data_crystal

_cell_length_a 10.23860
_cell_length_b 10.23860
_cell_length_c 31.01300
_cell_angle_alpha 90.00000
_cell_angle_beta  90.00000
_cell_angle_gamma 120.00000

_symmetry_space_group_name_	'P 1'
_symmetry_space_group_name_H-M	'P 1'

loop_
_symmetry_equiv_pos_as_xyz
  x,y,z

loop_
_atom_site_label
_atom_site_type_symbol
_atom_site_fract_x
_atom_site_fract_y
_atom_site_fract_z
_atom_site_charge
O 	O 	0.27699 0.09118 0.02120 -0.46600
O 	O 	0.16173 0.15617 0.06997 -0.57000
O 	O 	0.25427 0.00638 0.13160 -0.50800
O 	O 	0.49723 0.14376 0.14898 -0.56300
C 	C 	0.27795 0.15146 0.05656 0.53800
C 	C 	0.41571 0.21365 0.08514 -0.71800
H 	H 	0.44350 0.31510 0.09410 0.24600
H 	H 	0.49930 0.21900 0.06900 0.23200
C 	C 	0.38618 0.11475 0.12496 0.59300
O 	O 	0.94366 0.42451 0.35453 -0.45000
O 	O 	0.82840 0.48950 0.40330 -0.61600
O 	O 	0.92094 0.33971 0.46493 -0.41700
O 	O 	0.16390 0.47709 0.48231 -0.55200
C 	C 	0.94462 0.48479 0.38989 0.65700
C 	C 	0.08238 0.54698 0.41847 -0.82000
H 	H 	0.11017 0.64843 0.42743 0.25800
H 	H 	0.16597 0.55233 0.40233 0.25200
C 	C 	0.05285 0.44808 0.45829 0.49600
O 	O 	0.61032 0.75785 0.68787 -0.44300
O 	O 	0.49506 0.82284 0.73664 -0.60400
O 	O 	0.58760 0.67305 0.79827 -0.48300
O 	O 	0.83056 0.81043 0.81565 -0.40300
C 	C 	0.61128 0.81813 0.72323 0.58100
C 	C 	0.74904 0.88032 0.75181 -0.75300
H 	H 	0.77683 0.98177 0.76077 0.31200
H 	H 	0.83263 0.88567 0.73567 0.30500
C 	C 	0.71951 0.78142 0.79163 0.59400
O 	O 	0.90882 0.18581 0.02120 -0.35600
O 	O 	0.84383 0.00556 0.06997 -0.52600
O 	O 	0.99362 0.24789 0.13160 -0.37100
O 	O 	0.85624 0.35347 0.14898 -0.51500
C 	C 	0.84854 0.12649 0.05656 0.51300
C 	C 	0.78635 0.20206 0.08514 -0.65900
H 	H 	0.68490 0.12840 0.09410 0.21000
H 	H 	0.78100 0.28030 0.06900 0.22800
C 	C 	0.88525 0.27143 0.12496 0.56500
O 	O 	0.57549 0.51914 0.35453 -0.44800
O 	O 	0.51050 0.33889 0.40330 -0.62300
O 	O 	0.66029 0.58122 0.46493 -0.47500
O 	O 	0.52291 0.68680 0.48231 -0.53900
C 	C 	0.51521 0.45982 0.38989 0.54800
C 	C 	0.45302 0.53539 0.41847 -0.70700
H 	H 	0.35157 0.46173 0.42743 0.22700
H 	H 	0.44767 0.61363 0.40233 0.24100
C 	C 	0.55192 0.60476 0.45829 0.60300
O 	O 	0.24215 0.85248 0.68787 -0.45100
O 	O 	0.17716 0.67223 0.73664 -0.63000
O 	O 	0.32695 0.91456 0.79827 -0.49400
O 	O 	0.18957 0.02014 0.81565 -0.63200
C 	C 	0.18187 0.79316 0.72323 0.56400
C 	C 	0.11968 0.86873 0.75181 -0.77000
H 	H 	0.01823 0.79507 0.76077 0.23400
H 	H 	0.11433 0.94697 0.73567 0.27300
C 	C 	0.21858 0.93810 0.79163 0.73500
O 	O 	0.81419 0.72301 0.02120 -0.34800
O 	O 	0.99444 0.83827 0.06997 -0.36200
O 	O 	0.75211 0.74573 0.13160 -0.38800
O 	O 	0.64653 0.50277 0.14898 -0.53700
C 	C 	0.87351 0.72205 0.05656 0.51500
C 	C 	0.79794 0.58429 0.08514 -0.66500
H 	H 	0.87160 0.55650 0.09410 0.25500
H 	H 	0.71970 0.50070 0.06900 0.22700
C 	C 	0.72857 0.61382 0.12496 0.57700
O 	O 	0.48086 0.05634 0.35453 -0.47600
O 	O 	0.66111 0.17160 0.40330 -0.60400
O 	O 	0.41878 0.07906 0.46493 -0.59900
O 	O 	0.31320 0.83610 0.48231 -0.56300
C 	C 	0.54018 0.05538 0.38989 0.45700
C 	C 	0.46461 0.91762 0.41847 -0.62600
H 	H 	0.53827 0.88983 0.42743 0.24300
H 	H 	0.38637 0.83403 0.40233 0.22500
C 	C 	0.39524 0.94715 0.45829 0.71000
O 	O 	0.14752 0.38968 0.68787 -0.47700
O 	O 	0.32777 0.50494 0.73664 -0.60000
O 	O 	0.08544 0.41240 0.79827 -0.47200
O 	O 	0.97986 0.16944 0.81565 -0.35000
C 	C 	0.20684 0.38872 0.72323 0.50300
C 	C 	0.13127 0.25096 0.75181 -0.57900
H 	H 	0.20493 0.22317 0.76077 0.18300
H 	H 	0.05303 0.16737 0.73567 0.13300
C 	C 	0.06190 0.28049 0.79163 0.38800
O 	O 	0.72301 0.90882 0.97880 -0.29400
O 	O 	0.83827 0.84383 0.93003 -0.39900
O 	O 	0.74573 0.99362 0.86840 -0.34100
O 	O 	0.50277 0.85624 0.85102 -0.51400
C 	C 	0.72205 0.84854 0.94344 0.50800
C 	C 	0.58429 0.78635 0.91486 -0.64600
H 	H 	0.55650 0.68490 0.90590 0.23100
H 	H 	0.50070 0.78100 0.93100 0.23200
C 	C 	0.61382 0.88525 0.87504 0.56600
O 	O 	0.38968 0.24215 0.31213 -0.47100
O 	O 	0.50494 0.17716 0.26336 -0.61900
O 	O 	0.41240 0.32695 0.20173 -0.48400
O 	O 	0.16944 0.18957 0.18435 -0.53200
C 	C 	0.38872 0.18187 0.27677 0.51800
C 	C 	0.25096 0.11968 0.24819 -0.65000
H 	H 	0.22317 0.01823 0.23923 0.17300
H 	H 	0.16737 0.11433 0.26433 0.16800
C 	C 	0.28049 0.21858 0.20837 0.55700
O 	O 	0.05634 0.57549 0.64547 -0.46600
O 	O 	0.17160 0.51050 0.59670 -0.61300
O 	O 	0.07906 0.66029 0.53507 -0.57500
O 	O 	0.83610 0.52291 0.51769 -0.55100
C 	C 	0.05538 0.51521 0.61011 0.44700
C 	C 	0.91762 0.45302 0.58153 -0.61100
H 	H 	0.88983 0.35157 0.57257 0.22800
H 	H 	0.83403 0.44767 0.59767 0.22500
C 	C 	0.94715 0.55192 0.54171 0.70700
O 	O 	0.09118 0.81419 0.97880 -0.39500
O 	O 	0.15617 0.99444 0.93003 -0.43100
O 	O 	0.00638 0.75211 0.86840 -0.47000
O 	O 	0.14376 0.64653 0.85102 -0.56200
C 	C 	0.15146 0.87351 0.94344 0.53000
C 	C 	0.21365 0.79794 0.91486 -0.70000
H 	H 	0.31510 0.87160 0.90590 0.26700
H 	H 	0.21900 0.71970 0.93100 0.23400
C 	C 	0.11475 0.72857 0.87504 0.59200
O 	O 	0.75785 0.14752 0.31213 -0.46300
O 	O 	0.82284 0.32777 0.26336 -0.59400
O 	O 	0.67305 0.08544 0.20173 -0.47500
O 	O 	0.81043 0.97986 0.18435 -0.30600
C 	C 	0.81813 0.20684 0.27677 0.53900
C 	C 	0.88032 0.13127 0.24819 -0.64300
H 	H 	0.98177 0.20493 0.23923 0.25900
H 	H 	0.88567 0.05303 0.26433 0.20800
C 	C 	0.78142 0.06190 0.20837 0.42600
O 	O 	0.42451 0.48086 0.64547 -0.46800
O 	O 	0.48950 0.66111 0.59670 -0.60700
O 	O 	0.33971 0.41878 0.53507 -0.52100
O 	O 	0.47709 0.31320 0.51769 -0.56400
C 	C 	0.48479 0.54018 0.61011 0.56000
C 	C 	0.54698 0.46461 0.58153 -0.72900
H 	H 	0.64843 0.53827 0.57257 0.25900
H 	H 	0.55233 0.38637 0.59767 0.23800
C 	C 	0.44808 0.39524 0.54171 0.60500
O 	O 	0.18581 0.27699 0.97880 -0.41100
O 	O 	0.00556 0.16173 0.93003 -0.60800
O 	O 	0.24789 0.25427 0.86840 -0.45900
O 	O 	0.35347 0.49723 0.85102 -0.54000
C 	C 	0.12649 0.27795 0.94344 0.52900
C 	C 	0.20206 0.41571 0.91486 -0.69800
H 	H 	0.12840 0.44350 0.90590 0.22100
H 	H 	0.28030 0.49930 0.93100 0.23600
C 	C 	0.27143 0.38618 0.87504 0.58100
O 	O 	0.85248 0.61032 0.31213 -0.43700
O 	O 	0.67223 0.49506 0.26336 -0.62200
O 	O 	0.91456 0.58760 0.20173 -0.49200
O 	O 	0.02014 0.83056 0.18435 -0.55800
C 	C 	0.79316 0.61128 0.27677 0.59300
C 	C 	0.86873 0.74904 0.24819 -0.81500
H 	H 	0.79507 0.77683 0.23923 0.30100
H 	H 	0.94697 0.83263 0.26433 0.33700
C 	C 	0.93810 0.71951 0.20837 0.74200
O 	O 	0.51914 0.94366 0.64547 -0.44100
O 	O 	0.33889 0.82840 0.59670 -0.62400
O 	O 	0.58122 0.92094 0.53507 -0.40000
O 	O 	0.68680 0.16390 0.51769 -0.54000
C 	C 	0.45982 0.94462 0.61011 0.65000
C 	C 	0.53539 0.08238 0.58153 -0.80900
H 	H 	0.46173 0.11017 0.57257 0.24100
H 	H 	0.61363 0.16597 0.59767 0.25500
C 	C 	0.60476 0.05285 0.54171 0.50300
Nd	Nd	-0.00000 0.00000 -0.00000 1.49100
Nd	Nd	0.66667 0.33333 0.33333 2.21800
Nd	Nd	0.33333 0.66667 0.66667 2.21800
Nd	Nd	-0.00000 0.00000 0.13188 1.80100
Nd	Nd	0.66667 0.33333 0.46521 2.49100
Nd	Nd	0.33333 0.66667 0.79855 2.47700
Nd	Nd	-0.00000 -0.00000 0.86812 1.80600
Nd	Nd	0.66667 0.33333 0.20145 2.47700
Nd	Nd	0.33333 0.66667 0.53479 2.49000
