data_crystal

_cell_length_a 7.72660
_cell_length_b 7.96430
_cell_length_c 21.22050
_cell_angle_alpha 90.29800
_cell_angle_beta  92.20900
_cell_angle_gamma 90.80500

_symmetry_space_group_name_	'P 1'
_symmetry_space_group_name_H-M	'P 1'

loop_
_symmetry_equiv_pos_as_xyz
  x,y,z

loop_
_atom_site_label
_atom_site_type_symbol
_atom_site_fract_x
_atom_site_fract_y
_atom_site_fract_z
_atom_site_charge
Mn	Mn	0.61130 0.60285 0.60548 1.30400
Mn	Mn	0.29072 0.84870 0.55381 1.28900
Mn	Mn	0.20044 0.67359 0.82351 1.31200
Mn	Mn	0.52334 0.42480 0.87939 1.30300
Mn	Mn	0.59743 0.81821 0.97460 1.26500
P 	P 	0.58733 0.74633 0.45622 0.57200
P 	P 	0.26565 0.57450 0.97999 0.54300
P 	P 	0.32310 0.05334 0.88056 0.58100
O 	O 	0.50820 0.71260 0.52057 -0.58100
O 	O 	0.78560 0.70220 0.46353 -0.50000
H 	H 	0.79890 0.60350 0.45390 0.31200
O 	O 	0.50010 0.63460 0.40543 -0.42200
O 	O 	0.57950 0.92800 0.43720 -0.44300
O 	O 	0.41030 0.65200 0.02233 -0.55200
O 	O 	0.32200 0.58410 0.91185 -0.58100
O 	O 	0.10740 0.69480 0.98683 -0.47500
H 	H 	0.01880 0.63860 0.99100 0.29100
O 	O 	0.21470 0.39670 0.99782 -0.44200
O 	O 	0.41560 0.20100 0.85274 -0.44500
O 	O 	0.13130 0.11240 0.89545 -0.46400
H 	H 	0.11010 0.19980 0.87660 0.29300
O 	O 	0.40440 0.00280 0.94464 -0.55500
O 	O 	0.30340 0.90850 0.83565 -0.42400
O 	O 	0.87110 0.51070 0.58961 -0.36500
O 	O 	0.13170 0.60510 0.56393 -0.38600
O 	O 	0.78500 0.82420 0.62137 -0.34600
O 	O 	0.04060 0.92020 0.59120 -0.35300
O 	O 	0.42250 0.53580 0.78878 -0.48600
O 	O 	0.60890 0.54300 0.71106 -0.34100
O 	O 	0.19960 0.72010 0.71954 -0.35300
O 	O 	0.39620 0.74570 0.64521 -0.48100
O 	O 	0.77380 0.35510 0.84932 -0.35100
O 	O 	0.03370 0.44920 0.82479 -0.37000
O 	O 	0.68110 0.67160 0.87848 -0.46100
O 	O 	0.94140 0.76250 0.84915 -0.35100
C 	C 	0.98260 0.62400 0.58308 0.24900
C 	C 	0.93260 0.80610 0.60015 0.22600
C 	C 	0.47120 0.57880 0.73479 0.26000
C 	C 	0.34060 0.69150 0.69713 0.25400
C 	C 	0.88400 0.46970 0.84257 0.23000
C 	C 	0.82940 0.65110 0.85815 0.24400
Mn	Mn	0.38870 0.39715 0.39452 1.30400
Mn	Mn	0.70928 0.15130 0.44619 1.28900
Mn	Mn	0.79956 0.32641 0.17649 1.31200
Mn	Mn	0.47666 0.57520 0.12061 1.30300
Mn	Mn	0.40257 0.18179 0.02540 1.26500
P 	P 	0.41267 0.25367 0.54378 0.57200
P 	P 	0.73435 0.42550 0.02001 0.54300
P 	P 	0.67690 0.94666 0.11944 0.58100
O 	O 	0.49180 0.28740 0.47943 -0.58100
O 	O 	0.21440 0.29780 0.53647 -0.50000
H 	H 	0.20110 0.39650 0.54610 0.31200
O 	O 	0.49990 0.36540 0.59457 -0.42200
O 	O 	0.42050 0.07200 0.56280 -0.44300
O 	O 	0.58970 0.34800 0.97767 -0.55200
O 	O 	0.67800 0.41590 0.08815 -0.58100
O 	O 	0.89260 0.30520 0.01317 -0.47500
H 	H 	0.98120 0.36140 0.00900 0.29100
O 	O 	0.78530 0.60330 0.00218 -0.44200
O 	O 	0.58440 0.79900 0.14726 -0.44500
O 	O 	0.86870 0.88760 0.10455 -0.46400
H 	H 	0.88990 0.80020 0.12340 0.29300
O 	O 	0.59560 0.99720 0.05536 -0.55500
O 	O 	0.69660 0.09150 0.16435 -0.42400
O 	O 	0.12890 0.48930 0.41039 -0.36500
O 	O 	0.86830 0.39490 0.43607 -0.38600
O 	O 	0.21500 0.17580 0.37863 -0.34600
O 	O 	0.95940 0.07980 0.40880 -0.35300
O 	O 	0.57750 0.46420 0.21122 -0.48600
O 	O 	0.39110 0.45700 0.28894 -0.34100
O 	O 	0.80040 0.27990 0.28046 -0.35300
O 	O 	0.60380 0.25430 0.35479 -0.48100
O 	O 	0.22620 0.64490 0.15068 -0.35100
O 	O 	0.96630 0.55080 0.17521 -0.37000
O 	O 	0.31890 0.32840 0.12152 -0.46100
O 	O 	0.05860 0.23750 0.15085 -0.35100
C 	C 	0.01740 0.37600 0.41692 0.24900
C 	C 	0.06740 0.19390 0.39985 0.22600
C 	C 	0.52880 0.42120 0.26521 0.26000
C 	C 	0.65940 0.30850 0.30287 0.25400
C 	C 	0.11600 0.53030 0.15743 0.23000
C 	C 	0.17060 0.34890 0.14185 0.24400
