data_crystal

_cell_length_a 7.78950
_cell_length_b 8.07540
_cell_length_c 9.72860
_cell_angle_alpha 75.90200
_cell_angle_beta  79.14200
_cell_angle_gamma 86.69500

_symmetry_space_group_name_	'P 1'
_symmetry_space_group_name_H-M	'P 1'

loop_
_symmetry_equiv_pos_as_xyz
  x,y,z

loop_
_atom_site_label
_atom_site_type_symbol
_atom_site_fract_x
_atom_site_fract_y
_atom_site_fract_z
_atom_site_charge
Mn	Mn	0.65797 0.46703 0.25269 1.30500
Mn	Mn	0.32238 0.19107 0.37035 1.28900
P 	P 	0.57321 0.23023 0.59513 0.58800
O 	O 	0.52290 0.29590 0.44580 -0.57600
O 	O 	0.46470 0.31390 0.70560 -0.43700
O 	O 	0.56030 0.03980 0.64510 -0.44200
O 	O 	0.77210 0.27600 0.57720 -0.49500
H 	H 	0.77920 0.36010 0.60900 0.30700
O 	O 	0.84550 0.25670 0.22170 -0.34900
O 	O 	0.08870 0.14030 0.29180 -0.34900
O 	O 	0.91120 0.54790 0.28530 -0.35500
O 	O 	0.16010 0.43570 0.35010 -0.38600
O 	O 	0.46740 0.34730 0.16350 -0.48600
O 	O 	0.31310 0.40170 0.98440 -0.34900
C 	C 	0.98200 0.26110 0.26910 0.23200
C 	C 	0.02120 0.43010 0.30550 0.24400
C 	C 	0.43380 0.42730 0.04200 0.25800
Mn	Mn	0.34203 0.53297 0.74731 1.30600
Mn	Mn	0.67762 0.80893 0.62965 1.29000
P 	P 	0.42679 0.76977 0.40487 0.58800
O 	O 	0.47710 0.70410 0.55420 -0.57600
O 	O 	0.53530 0.68610 0.29440 -0.43700
O 	O 	0.43970 0.96020 0.35490 -0.44200
O 	O 	0.22790 0.72400 0.42280 -0.49500
H 	H 	0.22080 0.63990 0.39100 0.30700
O 	O 	0.15450 0.74330 0.77830 -0.34900
O 	O 	0.91130 0.85970 0.70820 -0.34900
O 	O 	0.08880 0.45210 0.71470 -0.35500
O 	O 	0.83990 0.56430 0.64990 -0.38600
O 	O 	0.53260 0.65270 0.83650 -0.48600
O 	O 	0.68690 0.59830 0.01560 -0.34900
C 	C 	0.01800 0.73890 0.73090 0.23200
C 	C 	0.97880 0.56990 0.69450 0.24400
C 	C 	0.56620 0.57270 0.95800 0.25800
