data_crystal

_cell_length_a 17.00500
_cell_length_b 17.53900
_cell_length_c 21.66800
_cell_angle_alpha 92.01000
_cell_angle_beta  104.49000
_cell_angle_gamma 107.16000

_symmetry_space_group_name_	'P 1'
_symmetry_space_group_name_H-M	'P 1'

loop_
_symmetry_equiv_pos_as_xyz
  x,y,z

loop_
_atom_site_label
_atom_site_type_symbol
_atom_site_fract_x
_atom_site_fract_y
_atom_site_fract_z
_atom_site_charge
Dy	Dy	0.88068 0.71120 0.09299 1.70600
Dy	Dy	0.00225 0.75898 0.29576 1.71600
Cu	Cu	0.43220 0.71086 0.19027 0.88900
Cu	Cu	0.87810 0.21779 0.19107 0.89100
Cu	Cu	0.88517 0.70721 0.67823 0.89300
O 	O 	0.97450 0.69130 0.38837 -0.39700
O 	O 	0.98400 0.81710 0.39507 -0.39600
O 	O 	0.94700 0.54750 0.58610 -0.23600
O 	O 	0.90950 0.60780 0.65830 -0.39100
O 	O 	0.92300 0.11390 0.34800 -0.23700
O 	O 	0.91420 0.20870 0.28240 -0.40200
O 	O 	0.95650 0.86160 0.24542 -0.49900
O 	O 	0.92600 0.84550 0.14062 -0.47900
O 	O 	0.87310 0.89120 0.78180 -0.21800
O 	O 	0.89450 0.64590 0.99557 -0.37600
O 	O 	0.90100 0.77460 0.99587 -0.37600
O 	O 	0.95300 0.62630 0.25158 -0.46400
O 	O 	0.05610 0.76570 0.20862 -0.51800
O 	O 	0.02820 0.74920 0.10156 -0.42600
O 	O 	0.42780 0.72420 0.28039 -0.39200
O 	O 	0.34850 0.74950 0.33940 -0.25900
O 	O 	0.83090 0.70610 0.18062 -0.54200
O 	O 	0.85380 0.72290 0.28650 -0.43600
O 	O 	0.52610 0.68470 0.04620 -0.25100
O 	O 	0.43840 0.70010 0.10154 -0.37900
O 	O 	0.92750 0.61020 0.14219 -0.45900
O 	O 	0.86090 0.32700 0.03330 -0.24300
O 	O 	0.86750 0.23240 0.10140 -0.36800
O 	O 	0.88100 0.81330 0.70070 -0.37600
N 	N 	0.89660 0.69930 0.77050 -0.21300
N 	N 	0.89810 0.11460 0.18380 -0.19700
N 	N 	0.90560 0.72880 0.59470 -0.19200
N 	N 	0.89190 0.33400 0.20180 -0.19900
N 	N 	0.54670 0.69960 0.20920 -0.19700
N 	N 	0.32240 0.73170 0.17250 -0.20000
C 	C 	0.93700 0.88380 0.19390 0.50100
C 	C 	0.80780 0.71070 0.23090 0.45300
C 	C 	0.71260 0.70390 0.22090 -0.12200
C 	C 	0.97030 0.75140 0.41660 0.34800
C 	C 	0.90090 0.71000 0.96810 0.28000
C 	C 	0.90440 0.70560 0.90010 -0.02500
C 	C 	0.65760 0.69780 0.16270 0.04700
H 	H 	0.67550 0.69440 0.12580 -0.00300
C 	C 	0.18860 0.74130 0.10780 -0.02100
H 	H 	0.15250 0.73990 0.06730 0.08000
C 	C 	0.26850 0.73230 0.11490 0.02100
H 	H 	0.28620 0.72640 0.07820 0.03800
C 	C 	0.21940 0.75250 0.22530 0.02300
H 	H 	0.20400 0.75890 0.26290 0.01000
C 	C 	0.29930 0.74220 0.22530 -0.05200
C 	C 	0.07640 0.75650 0.15700 0.43400
C 	C 	0.92210 0.96330 0.19150 -0.13300
C 	C 	0.51000 0.69260 0.09780 0.29200
C 	C 	0.36430 0.74000 0.28900 0.32200
C 	C 	0.16440 0.75240 0.16310 -0.10800
C 	C 	0.57540 0.69640 0.15810 -0.06800
C 	C 	0.59860 0.70390 0.26740 0.01100
H 	H 	0.57780 0.70570 0.30310 0.03200
C 	C 	0.90990 0.64050 0.86920 -0.06800
H 	H 	0.91640 0.59720 0.89120 0.07500
C 	C 	0.90610 0.63790 0.80480 0.02700
H 	H 	0.91020 0.59230 0.78420 0.02500
C 	C 	0.89090 0.76270 0.80060 -0.02700
C 	C 	0.89660 0.76900 0.86560 -0.04000
H 	H 	0.89520 0.81590 0.88600 0.07100
C 	C 	0.89980 0.44520 0.14080 0.00600
H 	H 	0.89630 0.46610 0.10180 0.04900
C 	C 	0.92080 0.49620 0.19850 -0.09100
C 	C 	0.93510 0.58550 0.19770 0.41000
C 	C 	0.88470 0.36460 0.14350 -0.04600
C 	C 	0.90780 0.38120 0.25590 0.02600
H 	H 	0.90840 0.35930 0.29450 0.03300
C 	C 	0.92330 0.46220 0.25430 -0.02500
H 	H 	0.93600 0.49500 0.29240 0.06800
C 	C 	0.89260 0.07240 0.13070 0.01200
H 	H 	0.88270 0.09430 0.09210 0.03500
C 	C 	0.91440 0.08580 0.24070 -0.05800
C 	C 	0.88220 0.82700 0.75860 0.26500
C 	C 	0.94980 0.67780 0.50940 0.00600
H 	H 	0.96560 0.63720 0.49210 0.06300
C 	C 	0.92800 0.67060 0.56800 -0.04300
C 	C 	0.90530 0.79680 0.56460 0.03000
H 	H 	0.89400 0.83860 0.58460 0.03700
C 	C 	0.90130 0.99450 0.13060 -0.00100
H 	H 	0.89370 0.96400 0.09230 0.04400
C 	C 	0.92710 0.00940 0.24450 0.04200
H 	H 	0.93910 0.99080 0.28440 0.04400
C 	C 	0.94810 0.74550 0.47640 -0.06900
C 	C 	0.68390 0.70600 0.27620 -0.01400
H 	H 	0.71990 0.70870 0.31690 0.05500
C 	C 	0.91980 0.13960 0.29540 0.29200
C 	C 	0.86950 0.30610 0.08620 0.28200
C 	C 	0.92610 0.60320 0.60630 0.31600
C 	C 	0.92180 0.80450 0.50370 -0.02600
H 	H 	0.91530 0.84800 0.48210 0.06400
Dy	Dy	0.11932 0.28880 0.90701 1.70500
Dy	Dy	0.99776 0.24102 0.70424 1.71500
Cu	Cu	0.56780 0.28914 0.80973 0.88800
Cu	Cu	0.12190 0.78221 0.80893 0.89000
Cu	Cu	0.11483 0.29279 0.32177 0.89200
O 	O 	0.02550 0.30870 0.61163 -0.39800
O 	O 	0.01600 0.18290 0.60493 -0.39700
O 	O 	0.05300 0.45250 0.41390 -0.23700
O 	O 	0.09050 0.39220 0.34170 -0.39200
O 	O 	0.07700 0.88610 0.65200 -0.23800
O 	O 	0.08580 0.79130 0.71760 -0.40300
O 	O 	0.04350 0.13840 0.75458 -0.50000
O 	O 	0.07400 0.15450 0.85938 -0.47900
O 	O 	0.12690 0.10880 0.21820 -0.21800
O 	O 	0.10550 0.35410 0.00443 -0.37600
O 	O 	0.09900 0.22540 0.00413 -0.37600
O 	O 	0.04700 0.37370 0.74842 -0.46400
O 	O 	0.94390 0.23430 0.79138 -0.51800
O 	O 	0.97180 0.25080 0.89844 -0.42600
O 	O 	0.57220 0.27580 0.71961 -0.39200
O 	O 	0.65150 0.25050 0.66060 -0.25900
O 	O 	0.16910 0.29390 0.81938 -0.54200
O 	O 	0.14620 0.27710 0.71350 -0.43600
O 	O 	0.47390 0.31530 0.95380 -0.25100
O 	O 	0.56160 0.29990 0.89846 -0.37900
O 	O 	0.07250 0.38980 0.85781 -0.45900
O 	O 	0.13910 0.67300 0.96670 -0.24300
O 	O 	0.13250 0.76760 0.89860 -0.36800
O 	O 	0.11900 0.18670 0.29930 -0.37600
N 	N 	0.10340 0.30070 0.22950 -0.21300
N 	N 	0.10190 0.88540 0.81620 -0.19700
N 	N 	0.09440 0.27120 0.40530 -0.19200
N 	N 	0.10810 0.66600 0.79820 -0.19900
N 	N 	0.45330 0.30040 0.79080 -0.19700
N 	N 	0.67760 0.26830 0.82750 -0.20000
C 	C 	0.06300 0.11620 0.80610 0.50100
C 	C 	0.19220 0.28930 0.76910 0.45300
C 	C 	0.28740 0.29610 0.77910 -0.12200
C 	C 	0.02970 0.24860 0.58340 0.34800
C 	C 	0.09910 0.29000 0.03190 0.28000
C 	C 	0.09560 0.29440 0.09990 -0.02500
C 	C 	0.34240 0.30220 0.83730 0.04700
H 	H 	0.32450 0.30560 0.87420 -0.00300
C 	C 	0.81140 0.25870 0.89220 -0.02100
H 	H 	0.84750 0.26010 0.93270 0.08000
C 	C 	0.73150 0.26770 0.88510 0.02100
H 	H 	0.71380 0.27360 0.92180 0.03800
C 	C 	0.78060 0.24750 0.77470 0.02300
H 	H 	0.79600 0.24110 0.73710 0.01000
C 	C 	0.70070 0.25780 0.77470 -0.05200
C 	C 	0.92360 0.24350 0.84300 0.43400
C 	C 	0.07790 0.03670 0.80850 -0.13300
C 	C 	0.49000 0.30740 0.90220 0.29200
C 	C 	0.63570 0.26000 0.71100 0.32200
C 	C 	0.83560 0.24760 0.83690 -0.10800
C 	C 	0.42460 0.30360 0.84190 -0.06800
C 	C 	0.40140 0.29610 0.73260 0.01100
H 	H 	0.42220 0.29430 0.69690 0.03200
C 	C 	0.09010 0.35950 0.13080 -0.06800
H 	H 	0.08360 0.40280 0.10880 0.07500
C 	C 	0.09390 0.36210 0.19520 0.02700
H 	H 	0.08980 0.40770 0.21580 0.02500
C 	C 	0.10910 0.23730 0.19940 -0.02700
C 	C 	0.10340 0.23100 0.13440 -0.04000
H 	H 	0.10480 0.18410 0.11400 0.07100
C 	C 	0.10020 0.55480 0.85920 0.00600
H 	H 	0.10370 0.53390 0.89820 0.04900
C 	C 	0.07920 0.50380 0.80150 -0.09100
C 	C 	0.06490 0.41450 0.80230 0.41000
C 	C 	0.11530 0.63540 0.85650 -0.04600
C 	C 	0.09220 0.61880 0.74410 0.02600
H 	H 	0.09160 0.64070 0.70550 0.03300
C 	C 	0.07670 0.53780 0.74570 -0.02500
H 	H 	0.06400 0.50500 0.70760 0.06800
C 	C 	0.10740 0.92760 0.86930 0.01200
H 	H 	0.11730 0.90570 0.90790 0.03500
C 	C 	0.08560 0.91420 0.75930 -0.05800
C 	C 	0.11780 0.17300 0.24140 0.26500
C 	C 	0.05020 0.32220 0.49060 0.00600
H 	H 	0.03440 0.36280 0.50790 0.06300
C 	C 	0.07200 0.32940 0.43200 -0.04300
C 	C 	0.09470 0.20320 0.43540 0.03000
H 	H 	0.10600 0.16140 0.41540 0.03700
C 	C 	0.09870 0.00550 0.86940 -0.00100
H 	H 	0.10630 0.03600 0.90770 0.04400
C 	C 	0.07290 0.99060 0.75550 0.04200
H 	H 	0.06090 0.00920 0.71560 0.04400
C 	C 	0.05190 0.25450 0.52360 -0.06900
C 	C 	0.31610 0.29400 0.72380 -0.01400
H 	H 	0.28010 0.29130 0.68310 0.05500
C 	C 	0.08020 0.86040 0.70460 0.29200
C 	C 	0.13050 0.69390 0.91380 0.28200
C 	C 	0.07390 0.39680 0.39370 0.31600
C 	C 	0.07820 0.19550 0.49630 -0.02600
H 	H 	0.08470 0.15200 0.51790 0.06400
