data_crystal

_cell_length_a 7.07000
_cell_length_b 12.35600
_cell_length_c 17.12000
_cell_angle_alpha 75.69800
_cell_angle_beta  85.65100
_cell_angle_gamma 78.33100

_symmetry_space_group_name_	'P 1'
_symmetry_space_group_name_H-M	'P 1'

loop_
_symmetry_equiv_pos_as_xyz
  x,y,z

loop_
_atom_site_label
_atom_site_type_symbol
_atom_site_fract_x
_atom_site_fract_y
_atom_site_fract_z
_atom_site_charge
Mn	Mn	0.25068 0.75016 0.74994 1.23600
V 	V 	0.46908 0.70373 0.57271 1.73400
V 	V 	0.03136 0.79622 0.92755 1.73200
V 	V 	0.26650 0.24707 0.75288 1.81000
V 	V 	0.76552 0.25317 0.74768 1.81200
P 	P 	0.06603 0.01489 0.78355 0.56400
O 	O 	0.13040 0.93080 0.73040 -0.46600
O 	O 	0.21450 0.08970 0.78270 -0.48700
O 	O 	0.03140 0.95000 0.87230 -0.53700
O 	O 	0.87120 0.09010 0.75280 -0.47400
P 	P 	0.48633 0.73958 0.41183 0.51300
P 	P 	0.43458 0.48505 0.71645 0.56700
P 	P 	0.01490 0.76094 0.08847 0.51200
O 	O 	0.65460 0.77440 0.35730 -0.47700
O 	O 	0.32070 0.73040 0.36390 -0.47000
O 	O 	0.54430 0.62800 0.47750 -0.44200
O 	O 	0.41070 0.82070 0.46860 -0.48700
O 	O 	0.28620 0.40960 0.71810 -0.48000
O 	O 	0.62940 0.41020 0.74710 -0.48400
O 	O 	0.46530 0.54950 0.62790 -0.53500
O 	O 	0.36890 0.56970 0.76920 -0.46600
O 	O 	0.18210 0.76930 0.13780 -0.46500
O 	O 	0.09440 0.67930 0.03190 -0.48100
O 	O 	0.95700 0.87150 0.02248 -0.44600
O 	O 	0.84670 0.72520 0.14170 -0.48500
O 	O 	0.51240 0.20500 0.78740 -0.64000
O 	O 	0.28450 0.76330 0.62270 -0.75900
O 	O 	0.99370 0.29540 0.71330 -0.64100
O 	O 	0.21700 0.73740 0.87730 -0.75700
Mn	Mn	0.74932 0.24984 0.25006 1.23500
V 	V 	0.53092 0.29627 0.42729 1.73300
V 	V 	0.96864 0.20378 0.07245 1.73200
V 	V 	0.73350 0.75293 0.24712 1.81000
V 	V 	0.23448 0.74683 0.25232 1.81200
P 	P 	0.93397 0.98511 0.21645 0.56400
O 	O 	0.86960 0.06920 0.26960 -0.46600
O 	O 	0.78550 0.91030 0.21730 -0.48700
O 	O 	0.96860 0.05000 0.12770 -0.53700
O 	O 	0.12880 0.90990 0.24720 -0.47400
P 	P 	0.51367 0.26042 0.58817 0.51300
P 	P 	0.56542 0.51495 0.28355 0.56700
P 	P 	0.98510 0.23906 0.91153 0.51200
O 	O 	0.34540 0.22560 0.64270 -0.47700
O 	O 	0.67930 0.26960 0.63610 -0.47000
O 	O 	0.45570 0.37200 0.52250 -0.44200
O 	O 	0.58930 0.17930 0.53140 -0.48700
O 	O 	0.71380 0.59040 0.28190 -0.48000
O 	O 	0.37060 0.58980 0.25290 -0.48400
O 	O 	0.53470 0.45050 0.37210 -0.53500
O 	O 	0.63110 0.43030 0.23080 -0.46600
O 	O 	0.81790 0.23070 0.86220 -0.46500
O 	O 	0.90560 0.32070 0.96810 -0.48100
O 	O 	0.04300 0.12850 0.97752 -0.44600
O 	O 	0.15330 0.27480 0.85830 -0.48500
O 	O 	0.48760 0.79500 0.21260 -0.64000
O 	O 	0.71550 0.23670 0.37730 -0.75900
O 	O 	0.00630 0.70460 0.28670 -0.64100
O 	O 	0.78300 0.26260 0.12270 -0.75700
