data_crystal

_cell_length_a 9.55740
_cell_length_b 12.60560
_cell_length_c 18.98920
_cell_angle_alpha 106.13100
_cell_angle_beta  98.97100
_cell_angle_gamma 100.47900

_symmetry_space_group_name_	'P 1'
_symmetry_space_group_name_H-M	'P 1'

loop_
_symmetry_equiv_pos_as_xyz
  x,y,z

loop_
_atom_site_label
_atom_site_type_symbol
_atom_site_fract_x
_atom_site_fract_y
_atom_site_fract_z
_atom_site_charge
La	La	0.76682 0.98179 0.99615 1.62000
O 	O 	0.69050 0.02270 0.11957 -0.44200
O 	O 	0.45980 0.03110 0.08820 -0.48800
N 	N 	0.00040 0.14750 0.67860 -0.12100
O 	O 	0.99750 0.88900 0.92560 -0.47000
O 	O 	0.76060 0.81400 0.88330 -0.40600
O 	O 	0.85790 0.06730 0.90130 -0.41500
N 	N 	0.95720 0.60890 0.67470 -0.11700
O 	O 	0.10260 0.12390 0.93540 -0.42700
C 	C 	0.92200 0.23220 0.57750 -0.16600
C 	C 	0.98090 0.34830 0.60230 0.21200
C 	C 	0.71250 0.25880 0.50160 -0.16100
C 	C 	0.90860 0.42000 0.57470 -0.15800
C 	C 	0.56810 0.08090 0.21710 -0.08500
C 	C 	0.77350 0.37490 0.52280 0.19200
C 	C 	0.44340 0.14030 0.31590 0.01100
H 	H 	0.35610 0.15130 0.33170 0.02400
C 	C 	0.44210 0.09920 0.24060 -0.03500
H 	H 	0.35400 0.08330 0.20440 0.05200
C 	C 	0.78400 0.18520 0.52720 0.21100
C 	C 	0.98800 0.12270 0.81600 -0.06700
C 	C 	0.69510 0.10210 0.27190 -0.04100
H 	H 	0.78230 0.08690 0.25780 0.05300
C 	C 	0.87450 0.14510 0.70160 0.02400
H 	H 	0.79170 0.15340 0.67070 0.02000
C 	C 	0.98200 0.10330 0.89140 0.36900
C 	C 	0.69170 0.14540 0.34660 0.01600
H 	H 	0.77790 0.16140 0.38400 0.02700
C 	C 	0.57200 0.04040 0.13430 0.38700
C 	C 	0.12410 0.39750 0.65950 -0.56300
H 	H 	0.14630 0.34070 0.68300 0.19300
H 	H 	0.11670 0.46520 0.69810 0.19200
H 	H 	0.20210 0.41840 0.63440 0.17700
C 	C 	0.86550 0.13050 0.77010 -0.04400
H 	H 	0.77550 0.12590 0.78580 0.05000
C 	C 	0.00740 0.15330 0.60030 -0.00300
H 	H 	0.11060 0.17920 0.59840 0.02000
H 	H 	0.96910 0.07610 0.56370 0.02100
C 	C 	0.11710 0.12810 0.79080 -0.04300
H 	H 	0.20290 0.12380 0.82170 0.05100
C 	C 	0.91650 0.74100 0.80790 -0.08700
C 	C 	0.05590 0.73710 0.79750 -0.02300
H 	H 	0.13840 0.77980 0.83650 0.02300
C 	C 	0.97970 0.54630 0.59980 -0.00700
H 	H 	0.08570 0.55650 0.60200 0.02800
H 	H 	0.93920 0.57950 0.56200 0.02500
C 	C 	0.88980 0.81960 0.87770 0.36500
C 	C 	0.82260 0.60860 0.68510 0.02100
H 	H 	0.74170 0.56230 0.64620 0.01900
C 	C 	0.72110 0.05940 0.50170 -0.56700
H 	H 	0.63600 0.03940 0.46030 0.18800
H 	H 	0.69140 0.03680 0.54360 0.18400
H 	H 	0.79470 0.01960 0.48470 0.18500
C 	C 	0.79860 0.67400 0.75110 -0.03700
H 	H 	0.70190 0.67320 0.75760 0.04800
C 	C 	0.12070 0.13960 0.72130 0.01800
H 	H 	0.20850 0.14180 0.70350 0.01600
C 	C 	0.56270 0.20910 0.44920 -0.00900
H 	H 	0.51020 0.14610 0.46380 0.01900
H 	H 	0.50630 0.26840 0.45550 0.02500
C 	C 	0.07380 0.67090 0.73030 0.00500
H 	H 	0.16940 0.66850 0.72280 0.02200
C 	C 	0.69180 0.45040 0.48970 -0.52600
H 	H 	0.65970 0.41530 0.43510 0.17300
H 	H 	0.75690 0.52550 0.50110 0.17000
H 	H 	0.60670 0.45840 0.51170 0.16600
N 	N 	0.56930 0.16500 0.36710 -0.11900
La	La	0.23318 0.01821 0.00385 1.62100
O 	O 	0.30950 0.97730 0.88043 -0.44100
O 	O 	0.54020 0.96890 0.91180 -0.48700
N 	N 	0.99960 0.85250 0.32140 -0.12000
O 	O 	0.00250 0.11100 0.07440 -0.46900
O 	O 	0.23940 0.18600 0.11670 -0.40500
O 	O 	0.14210 0.93270 0.09870 -0.41400
N 	N 	0.04280 0.39110 0.32530 -0.11600
O 	O 	0.89740 0.87610 0.06460 -0.42600
C 	C 	0.07800 0.76780 0.42250 -0.16500
C 	C 	0.01910 0.65170 0.39770 0.21200
C 	C 	0.28750 0.74120 0.49840 -0.16100
C 	C 	0.09140 0.58000 0.42530 -0.15800
C 	C 	0.43190 0.91910 0.78290 -0.08500
C 	C 	0.22650 0.62510 0.47720 0.19200
C 	C 	0.55660 0.85970 0.68410 0.01100
H 	H 	0.64390 0.84870 0.66830 0.02400
C 	C 	0.55790 0.90080 0.75940 -0.03500
H 	H 	0.64600 0.91670 0.79560 0.05200
C 	C 	0.21600 0.81480 0.47280 0.21100
C 	C 	0.01200 0.87730 0.18400 -0.06700
C 	C 	0.30490 0.89790 0.72810 -0.04100
H 	H 	0.21770 0.91310 0.74220 0.05300
C 	C 	0.12550 0.85490 0.29840 0.02400
H 	H 	0.20830 0.84660 0.32930 0.02000
C 	C 	0.01800 0.89670 0.10860 0.36900
C 	C 	0.30830 0.85460 0.65340 0.01600
H 	H 	0.22210 0.83860 0.61600 0.02700
C 	C 	0.42800 0.95960 0.86570 0.38700
C 	C 	0.87590 0.60250 0.34050 -0.56300
H 	H 	0.85370 0.65930 0.31700 0.19300
H 	H 	0.88330 0.53480 0.30190 0.19200
H 	H 	0.79790 0.58160 0.36560 0.17700
C 	C 	0.13450 0.86950 0.22990 -0.04400
H 	H 	0.22450 0.87410 0.21420 0.05000
C 	C 	0.99260 0.84670 0.39970 -0.00300
H 	H 	0.88940 0.82080 0.40160 0.02000
H 	H 	0.03090 0.92390 0.43630 0.02100
C 	C 	0.88290 0.87190 0.20920 -0.04300
H 	H 	0.79710 0.87620 0.17830 0.05100
C 	C 	0.08350 0.25900 0.19210 -0.08700
C 	C 	0.94410 0.26290 0.20250 -0.02300
H 	H 	0.86160 0.22020 0.16350 0.02300
C 	C 	0.02030 0.45370 0.40020 -0.00700
H 	H 	0.91430 0.44350 0.39800 0.02800
H 	H 	0.06080 0.42050 0.43800 0.02500
C 	C 	0.11020 0.18040 0.12230 0.36500
C 	C 	0.17740 0.39140 0.31490 0.02100
H 	H 	0.25830 0.43770 0.35380 0.01900
C 	C 	0.27890 0.94060 0.49830 -0.56700
H 	H 	0.36400 0.96060 0.53970 0.18800
H 	H 	0.30860 0.96320 0.45640 0.18400
H 	H 	0.20530 0.98040 0.51530 0.18500
C 	C 	0.20140 0.32600 0.24890 -0.03700
H 	H 	0.29810 0.32680 0.24240 0.04800
C 	C 	0.87930 0.86040 0.27870 0.01800
H 	H 	0.79150 0.85820 0.29650 0.01600
C 	C 	0.43730 0.79090 0.55080 -0.00900
H 	H 	0.48980 0.85390 0.53620 0.01900
H 	H 	0.49370 0.73160 0.54450 0.02500
C 	C 	0.92620 0.32910 0.26970 0.00500
H 	H 	0.83060 0.33150 0.27720 0.02200
C 	C 	0.30820 0.54960 0.51030 -0.52600
H 	H 	0.34030 0.58470 0.56490 0.17300
H 	H 	0.24310 0.47450 0.49890 0.17000
H 	H 	0.39330 0.54160 0.48830 0.16600
N 	N 	0.43070 0.83500 0.63290 -0.11900
