data_crystal

_cell_length_a 9.52510
_cell_length_b 12.56050
_cell_length_c 18.92310
_cell_angle_alpha 106.07700
_cell_angle_beta  98.87400
_cell_angle_gamma 100.64300

_symmetry_space_group_name_	'P 1'
_symmetry_space_group_name_H-M	'P 1'

loop_
_symmetry_equiv_pos_as_xyz
  x,y,z

loop_
_atom_site_label
_atom_site_type_symbol
_atom_site_fract_x
_atom_site_fract_y
_atom_site_fract_z
_atom_site_charge
Ce	Ce	0.23413 0.01779 0.00391 2.11700
O 	O 	0.45780 0.02940 0.08755 -0.59700
O 	O 	0.68880 0.02030 0.11865 -0.52700
O 	O 	0.00200 0.89130 0.92420 -0.56800
N 	N 	0.56810 0.15930 0.36710 -0.11600
O 	O 	0.76320 0.81890 0.88360 -0.48700
N 	N 	0.00510 0.15300 0.68220 -0.11700
O 	O 	0.10630 0.12680 0.93870 -0.51800
O 	O 	0.86040 0.07070 0.90490 -0.49700
N 	N 	0.95490 0.61040 0.67310 -0.11400
C 	C 	0.92410 0.23240 0.57850 -0.15400
C 	C 	0.89150 0.82340 0.87720 0.39100
C 	C 	0.56620 0.07660 0.21690 -0.10500
C 	C 	0.90540 0.41890 0.57330 -0.15600
C 	C 	0.57010 0.03790 0.13400 0.42900
C 	C 	0.98090 0.34850 0.60230 0.20700
C 	C 	0.43990 0.09640 0.24040 -0.02500
H 	H 	0.35180 0.08190 0.20430 0.04400
C 	C 	0.71060 0.25340 0.50170 -0.15100
C 	C 	0.69230 0.09610 0.27120 -0.02800
H 	H 	0.77950 0.08080 0.25670 0.05000
C 	C 	0.44240 0.13700 0.31570 0.00600
H 	H 	0.35550 0.14950 0.33180 0.02500
C 	C 	0.77070 0.37270 0.52290 0.18900
C 	C 	0.69000 0.13810 0.34680 0.01200
H 	H 	0.77590 0.15170 0.38420 0.02900
C 	C 	0.91620 0.74200 0.80530 -0.09900
C 	C 	0.99130 0.12630 0.81920 -0.08100
C 	C 	0.78620 0.18320 0.52830 0.19400
C 	C 	0.87890 0.14780 0.70450 0.02100
H 	H 	0.79500 0.15300 0.67250 0.02100
C 	C 	0.01110 0.15500 0.60210 -0.02000
H 	H 	0.11430 0.18090 0.59950 0.02200
H 	H 	0.97250 0.07660 0.56650 0.03000
C 	C 	0.12240 0.13350 0.79460 -0.03300
H 	H 	0.20810 0.13000 0.82620 0.04300
C 	C 	0.86940 0.13480 0.77310 -0.03600
H 	H 	0.77930 0.13170 0.78910 0.04600
C 	C 	0.12410 0.40140 0.65940 -0.55700
H 	H 	0.16270 0.34140 0.67360 0.18800
H 	H 	0.10800 0.45520 0.70420 0.19000
H 	H 	0.19450 0.44200 0.63740 0.17600
C 	C 	0.05490 0.73940 0.79470 -0.01100
H 	H 	0.13770 0.78350 0.83350 0.01200
C 	C 	0.79750 0.67620 0.74980 -0.02800
H 	H 	0.70120 0.67690 0.75720 0.04500
C 	C 	0.07280 0.67260 0.72780 0.00200
H 	H 	0.16830 0.67010 0.71980 0.02300
C 	C 	0.81860 0.60960 0.68370 0.01300
H 	H 	0.73680 0.56270 0.64520 0.02000
C 	C 	0.97500 0.54540 0.59720 -0.01000
H 	H 	0.08110 0.55620 0.59840 0.02800
H 	H 	0.93230 0.57760 0.55910 0.02600
C 	C 	0.98600 0.10720 0.89490 0.40400
C 	C 	0.12880 0.14550 0.72510 0.00800
H 	H 	0.21720 0.14850 0.70750 0.01700
C 	C 	0.56110 0.20240 0.45040 -0.01200
H 	H 	0.50290 0.26070 0.45710 0.02500
H 	H 	0.51050 0.13810 0.46490 0.01900
C 	C 	0.68460 0.44380 0.48820 -0.52800
H 	H 	0.60290 0.45510 0.51290 0.16500
H 	H 	0.64650 0.40380 0.43430 0.17400
H 	H 	0.74900 0.51810 0.49520 0.17000
C 	C 	0.72680 0.05460 0.50330 -0.54100
H 	H 	0.62490 0.03490 0.47560 0.17800
H 	H 	0.73150 0.02850 0.54770 0.17900
H 	H 	0.78580 0.01740 0.47060 0.17800
Ce	Ce	0.76587 0.98221 0.99609 2.11700
O 	O 	0.54220 0.97060 0.91245 -0.59700
O 	O 	0.31120 0.97970 0.88135 -0.52700
O 	O 	0.99800 0.10870 0.07580 -0.56800
N 	N 	0.43190 0.84070 0.63290 -0.11600
O 	O 	0.23680 0.18110 0.11640 -0.48700
N 	N 	0.99490 0.84700 0.31780 -0.11700
O 	O 	0.89370 0.87320 0.06130 -0.51800
O 	O 	0.13960 0.92930 0.09510 -0.49700
N 	N 	0.04510 0.38960 0.32690 -0.11400
C 	C 	0.07590 0.76760 0.42150 -0.15400
C 	C 	0.10850 0.17660 0.12280 0.39100
C 	C 	0.43380 0.92340 0.78310 -0.10500
C 	C 	0.09460 0.58110 0.42670 -0.15600
C 	C 	0.42990 0.96210 0.86600 0.42900
C 	C 	0.01910 0.65150 0.39770 0.20700
C 	C 	0.56010 0.90360 0.75960 -0.02500
H 	H 	0.64820 0.91810 0.79570 0.04400
C 	C 	0.28940 0.74660 0.49830 -0.15100
C 	C 	0.30770 0.90390 0.72880 -0.02800
H 	H 	0.22050 0.91920 0.74330 0.05000
C 	C 	0.55760 0.86300 0.68430 0.00600
H 	H 	0.64450 0.85050 0.66820 0.02500
C 	C 	0.22930 0.62730 0.47710 0.18900
C 	C 	0.31000 0.86190 0.65320 0.01200
H 	H 	0.22410 0.84830 0.61580 0.02900
C 	C 	0.08380 0.25800 0.19470 -0.09900
C 	C 	0.00870 0.87370 0.18080 -0.08100
C 	C 	0.21380 0.81680 0.47170 0.19400
C 	C 	0.12110 0.85220 0.29550 0.02100
H 	H 	0.20500 0.84700 0.32750 0.02100
C 	C 	0.98890 0.84500 0.39790 -0.02000
H 	H 	0.88570 0.81910 0.40050 0.02200
H 	H 	0.02750 0.92340 0.43350 0.03000
C 	C 	0.87760 0.86650 0.20540 -0.03300
H 	H 	0.79190 0.87000 0.17380 0.04300
C 	C 	0.13060 0.86520 0.22690 -0.03600
H 	H 	0.22070 0.86830 0.21090 0.04600
C 	C 	0.87590 0.59860 0.34060 -0.55700
H 	H 	0.83730 0.65860 0.32640 0.18800
H 	H 	0.89200 0.54480 0.29580 0.19000
H 	H 	0.80550 0.55800 0.36260 0.17600
C 	C 	0.94510 0.26060 0.20530 -0.01100
H 	H 	0.86230 0.21650 0.16650 0.01200
C 	C 	0.20250 0.32380 0.25020 -0.02800
H 	H 	0.29880 0.32310 0.24280 0.04500
C 	C 	0.92720 0.32740 0.27220 0.00200
H 	H 	0.83170 0.32990 0.28020 0.02300
C 	C 	0.18140 0.39040 0.31630 0.01300
H 	H 	0.26320 0.43730 0.35480 0.02000
C 	C 	0.02500 0.45460 0.40280 -0.01000
H 	H 	0.91890 0.44380 0.40160 0.02800
H 	H 	0.06770 0.42240 0.44090 0.02600
C 	C 	0.01400 0.89280 0.10510 0.40400
C 	C 	0.87120 0.85450 0.27490 0.00800
H 	H 	0.78280 0.85150 0.29250 0.01700
C 	C 	0.43890 0.79760 0.54960 -0.01200
H 	H 	0.49710 0.73930 0.54290 0.02500
H 	H 	0.48950 0.86190 0.53510 0.01900
C 	C 	0.31540 0.55620 0.51180 -0.52800
H 	H 	0.39710 0.54490 0.48710 0.16500
H 	H 	0.35350 0.59620 0.56570 0.17400
H 	H 	0.25100 0.48190 0.50480 0.17000
C 	C 	0.27320 0.94540 0.49670 -0.54100
H 	H 	0.37510 0.96510 0.52440 0.17800
H 	H 	0.26850 0.97150 0.45230 0.17900
H 	H 	0.21420 0.98260 0.52940 0.17800
