data_crystal

_cell_length_a 9.53000
_cell_length_b 12.54010
_cell_length_c 18.87190
_cell_angle_alpha 105.93200
_cell_angle_beta  98.86000
_cell_angle_gamma 100.48200

_symmetry_space_group_name_	'P 1'
_symmetry_space_group_name_H-M	'P 1'

loop_
_symmetry_equiv_pos_as_xyz
  x,y,z

loop_
_atom_site_label
_atom_site_type_symbol
_atom_site_fract_x
_atom_site_fract_y
_atom_site_fract_z
_atom_site_charge
Pr	Pr	0.76582 0.48222 0.49636 2.05100
O 	O 	0.45630 0.52980 0.58667 -0.58700
O 	O 	0.68670 0.51980 0.61744 -0.52200
N 	N 	0.00350 0.65190 0.18160 -0.11800
N 	N 	0.56730 0.66290 0.86630 -0.11700
N 	N 	0.95700 0.11000 0.17410 -0.11400
O 	O 	0.76680 0.31980 0.38560 -0.47700
C 	C 	0.90540 0.92010 0.07330 -0.15700
C 	C 	0.97990 0.84920 0.10160 0.20200
C 	C 	0.56810 0.53810 0.63270 0.43200
O 	O 	0.00630 0.39130 0.42490 -0.56300
C 	C 	0.92260 0.73190 0.07800 -0.15700
O 	O 	0.86120 0.56940 0.40500 -0.49700
C 	C 	0.77260 0.87580 0.02250 0.18000
C 	C 	0.92070 0.24340 0.30740 -0.09200
C 	C 	0.71020 0.75570 0.00130 -0.14600
C 	C 	0.69140 0.59820 0.77070 -0.03000
H 	H 	0.77840 0.58200 0.75630 0.05000
C 	C 	0.43950 0.59790 0.74000 -0.03000
H 	H 	0.35100 0.58280 0.70410 0.04800
C 	C 	0.56570 0.57860 0.71630 -0.10100
C 	C 	0.89580 0.32390 0.37850 0.39900
C 	C 	0.44290 0.63900 0.81560 0.01200
H 	H 	0.35590 0.65050 0.83200 0.02400
C 	C 	0.78650 0.68450 0.02840 0.19600
C 	C 	0.12440 0.89950 0.15880 -0.54400
H 	H 	0.16240 0.83790 0.17140 0.18400
H 	H 	0.10910 0.95180 0.20470 0.18500
H 	H 	0.19470 0.94140 0.13740 0.17200
C 	C 	0.86910 0.63430 0.27360 -0.03600
H 	H 	0.77950 0.63140 0.28990 0.04600
C 	C 	0.98960 0.62520 0.31870 -0.07800
C 	C 	0.00910 0.65450 0.10110 -0.00700
H 	H 	0.11200 0.68020 0.09830 0.01900
H 	H 	0.97040 0.57630 0.06540 0.02300
C 	C 	0.05790 0.23680 0.29660 -0.01900
H 	H 	0.14120 0.27750 0.33570 0.01600
C 	C 	0.68900 0.64150 0.84590 0.01200
H 	H 	0.77500 0.65600 0.88340 0.02900
C 	C 	0.07380 0.17080 0.22880 0.00400
H 	H 	0.16910 0.16820 0.22030 0.02300
C 	C 	0.97550 0.04580 0.09710 -0.00400
H 	H 	0.93210 0.07890 0.05950 0.02600
H 	H 	0.08110 0.05600 0.09750 0.02700
C 	C 	0.12070 0.63120 0.29400 -0.03800
H 	H 	0.20610 0.62630 0.32520 0.04600
C 	C 	0.12540 0.64420 0.22430 0.01400
H 	H 	0.21360 0.64760 0.20660 0.01600
C 	C 	0.87730 0.64770 0.20390 0.02100
H 	H 	0.79360 0.65400 0.17220 0.02100
C 	C 	0.79930 0.17710 0.25160 -0.03200
H 	H 	0.70330 0.17780 0.25940 0.04700
C 	C 	0.68670 0.94800 0.98880 -0.50100
H 	H 	0.60120 0.95440 0.01120 0.15600
H 	H 	0.65450 0.91180 0.93410 0.16600
H 	H 	0.74920 0.02430 0.99940 0.16000
C 	C 	0.82150 0.10950 0.18400 0.01800
H 	H 	0.74020 0.06320 0.14510 0.02000
C 	C 	0.56170 0.70720 0.95030 -0.01500
H 	H 	0.50530 0.76690 0.95710 0.02700
H 	H 	0.50960 0.64370 0.96510 0.02100
C 	C 	0.72370 0.55680 0.00330 -0.54800
H 	H 	0.79640 0.51720 0.98420 0.17900
H 	H 	0.63590 0.53680 0.96320 0.18200
H 	H 	0.69830 0.53390 0.04620 0.17900
O 	O 	0.10670 0.62550 0.43860 -0.51100
C 	C 	0.98450 0.60590 0.39510 0.40800
Pr	Pr	0.23418 0.51778 0.50364 2.05100
O 	O 	0.54370 0.47020 0.41333 -0.58700
O 	O 	0.31330 0.48020 0.38256 -0.52200
N 	N 	0.99650 0.34810 0.81840 -0.11800
N 	N 	0.43270 0.33710 0.13370 -0.11700
N 	N 	0.04300 0.89000 0.82590 -0.11400
O 	O 	0.23320 0.68020 0.61440 -0.47700
C 	C 	0.09460 0.07990 0.92670 -0.15700
C 	C 	0.02010 0.15080 0.89840 0.20200
C 	C 	0.43190 0.46190 0.36730 0.43200
O 	O 	0.99370 0.60870 0.57510 -0.56300
C 	C 	0.07740 0.26810 0.92200 -0.15700
O 	O 	0.13880 0.43060 0.59500 -0.49700
C 	C 	0.22740 0.12420 0.97750 0.18000
C 	C 	0.07930 0.75660 0.69260 -0.09200
C 	C 	0.28980 0.24430 0.99870 -0.14600
C 	C 	0.30860 0.40180 0.22930 -0.03000
H 	H 	0.22160 0.41800 0.24370 0.05000
C 	C 	0.56050 0.40210 0.26000 -0.03000
H 	H 	0.64900 0.41720 0.29590 0.04800
C 	C 	0.43430 0.42140 0.28370 -0.10100
C 	C 	0.10420 0.67610 0.62150 0.39900
C 	C 	0.55710 0.36100 0.18440 0.01200
H 	H 	0.64410 0.34950 0.16800 0.02400
C 	C 	0.21350 0.31550 0.97160 0.19600
C 	C 	0.87560 0.10050 0.84120 -0.54400
H 	H 	0.83760 0.16210 0.82860 0.18400
H 	H 	0.89090 0.04820 0.79530 0.18500
H 	H 	0.80530 0.05860 0.86260 0.17200
C 	C 	0.13090 0.36570 0.72640 -0.03600
H 	H 	0.22050 0.36860 0.71010 0.04600
C 	C 	0.01040 0.37480 0.68130 -0.07800
C 	C 	0.99090 0.34550 0.89890 -0.00700
H 	H 	0.88800 0.31980 0.90170 0.01900
H 	H 	0.02960 0.42370 0.93460 0.02300
C 	C 	0.94210 0.76320 0.70340 -0.01900
H 	H 	0.85880 0.72250 0.66430 0.01600
C 	C 	0.31100 0.35850 0.15410 0.01200
H 	H 	0.22500 0.34400 0.11660 0.02900
C 	C 	0.92620 0.82920 0.77120 0.00400
H 	H 	0.83090 0.83180 0.77970 0.02300
C 	C 	0.02450 0.95420 0.90290 -0.00400
H 	H 	0.06790 0.92110 0.94050 0.02600
H 	H 	0.91890 0.94400 0.90250 0.02700
C 	C 	0.87930 0.36880 0.70600 -0.03800
H 	H 	0.79390 0.37370 0.67480 0.04600
C 	C 	0.87460 0.35580 0.77570 0.01400
H 	H 	0.78640 0.35240 0.79340 0.01600
C 	C 	0.12270 0.35230 0.79610 0.02100
H 	H 	0.20640 0.34600 0.82780 0.02100
C 	C 	0.20070 0.82290 0.74840 -0.03200
H 	H 	0.29670 0.82220 0.74060 0.04700
C 	C 	0.31330 0.05200 0.01120 -0.50100
H 	H 	0.39880 0.04560 0.98880 0.15600
H 	H 	0.34550 0.08820 0.06590 0.16600
H 	H 	0.25080 0.97570 0.00060 0.16000
C 	C 	0.17850 0.89050 0.81600 0.01800
H 	H 	0.25980 0.93680 0.85490 0.02000
C 	C 	0.43830 0.29280 0.04970 -0.01500
H 	H 	0.49470 0.23310 0.04290 0.02700
H 	H 	0.49040 0.35630 0.03490 0.02100
C 	C 	0.27630 0.44320 0.99670 -0.54800
H 	H 	0.20360 0.48280 0.01580 0.17900
H 	H 	0.36410 0.46320 0.03680 0.18200
H 	H 	0.30170 0.46610 0.95380 0.17900
O 	O 	0.89330 0.37450 0.56140 -0.51100
C 	C 	0.01550 0.39410 0.60490 0.40800
