data_crystal

_cell_length_a 9.52970
_cell_length_b 12.69960
_cell_length_c 18.82030
_cell_angle_alpha 106.34700
_cell_angle_beta  98.63000
_cell_angle_gamma 100.05900

_symmetry_space_group_name_	'P 1'
_symmetry_space_group_name_H-M	'P 1'

loop_
_symmetry_equiv_pos_as_xyz
  x,y,z

loop_
_atom_site_label
_atom_site_type_symbol
_atom_site_fract_x
_atom_site_fract_y
_atom_site_fract_z
_atom_site_charge
Nd	Nd	0.76665 0.98368 0.99668 2.14500
O 	O 	0.45420 0.03010 0.08680 -0.61600
N 	N 	0.00050 0.14830 0.67990 -0.11200
O 	O 	0.68660 0.02440 0.11740 -0.55200
O 	O 	0.86080 0.06520 0.90400 -0.51800
O 	O 	0.00870 0.89090 0.92610 -0.57100
N 	N 	0.95870 0.60730 0.67460 -0.10800
O 	O 	0.76980 0.82290 0.88780 -0.50700
O 	O 	0.10530 0.12000 0.93650 -0.53300
N 	N 	0.56630 0.16720 0.36660 -0.11300
C 	C 	0.91990 0.23170 0.57800 -0.15300
C 	C 	0.56750 0.04140 0.13290 0.49100
C 	C 	0.56500 0.08250 0.21630 -0.13600
C 	C 	0.90540 0.41820 0.57410 -0.15400
C 	C 	0.43760 0.10210 0.24020 -0.00400
H 	H 	0.34880 0.08610 0.20440 0.03500
C 	C 	0.68750 0.14570 0.34610 0.00200
H 	H 	0.77300 0.15970 0.38370 0.03300
C 	C 	0.77230 0.37530 0.52340 0.19100
C 	C 	0.97950 0.34670 0.60250 0.20000
C 	C 	0.70960 0.25800 0.50230 -0.15200
C 	C 	0.78200 0.18610 0.52850 0.19900
C 	C 	0.89750 0.82350 0.88000 0.43900
C 	C 	0.98860 0.11850 0.81670 -0.11200
C 	C 	0.69100 0.10280 0.27040 -0.01100
H 	H 	0.77840 0.08740 0.25580 0.04100
C 	C 	0.05920 0.73760 0.79710 0.01600
H 	H 	0.14230 0.78110 0.83530 0.00000
C 	C 	0.98330 0.10020 0.89290 0.46200
C 	C 	0.80190 0.67560 0.75330 -0.00900
H 	H 	0.70580 0.67600 0.76120 0.03400
C 	C 	0.12300 0.39620 0.65950 -0.54600
H 	H 	0.15760 0.33600 0.67490 0.18400
H 	H 	0.10900 0.45250 0.70400 0.18500
H 	H 	0.19520 0.43200 0.63640 0.17200
C 	C 	0.00670 0.15370 0.60040 -0.02100
H 	H 	0.10960 0.17920 0.59800 0.02200
H 	H 	0.96900 0.07700 0.56360 0.03000
C 	C 	0.87420 0.14360 0.70310 0.00900
H 	H 	0.79030 0.15030 0.67190 0.02400
C 	C 	0.92070 0.74250 0.80910 -0.13500
C 	C 	0.44280 0.14520 0.31680 -0.00300
H 	H 	0.35690 0.15920 0.33390 0.02600
C 	C 	0.11800 0.12520 0.79150 -0.01200
H 	H 	0.20390 0.12080 0.82240 0.03200
C 	C 	0.86640 0.12930 0.77160 -0.01800
H 	H 	0.77710 0.12670 0.78840 0.03500
C 	C 	0.07590 0.66920 0.72930 -0.01600
H 	H 	0.17100 0.66560 0.72090 0.02700
C 	C 	0.82300 0.60850 0.68620 -0.00100
H 	H 	0.74130 0.56270 0.64790 0.02400
C 	C 	0.97900 0.54310 0.59880 -0.01200
H 	H 	0.08470 0.55100 0.60010 0.02900
H 	H 	0.93910 0.57630 0.56070 0.02600
C 	C 	0.55910 0.21090 0.45040 -0.01500
H 	H 	0.50340 0.27060 0.45750 0.02500
H 	H 	0.50620 0.14850 0.46490 0.01900
C 	C 	0.68910 0.44840 0.49050 -0.52700
H 	H 	0.60760 0.46030 0.51560 0.16500
H 	H 	0.65160 0.41080 0.43600 0.17200
H 	H 	0.75460 0.52140 0.49860 0.16900
C 	C 	0.12170 0.13820 0.72140 -0.00300
H 	H 	0.20900 0.14010 0.70280 0.02000
C 	C 	0.71760 0.06090 0.50280 -0.55000
H 	H 	0.61890 0.04460 0.47240 0.18100
H 	H 	0.71370 0.03540 0.54720 0.18000
H 	H 	0.77850 0.02120 0.47220 0.18000
Nd	Nd	0.23335 0.01632 0.00332 2.14400
O 	O 	0.54580 0.96990 0.91320 -0.61700
N 	N 	0.99950 0.85170 0.32010 -0.11300
O 	O 	0.31340 0.97560 0.88260 -0.55300
O 	O 	0.13920 0.93480 0.09600 -0.51900
O 	O 	0.99130 0.10910 0.07390 -0.57200
N 	N 	0.04130 0.39270 0.32540 -0.10900
O 	O 	0.23020 0.17710 0.11220 -0.50800
O 	O 	0.89470 0.88000 0.06350 -0.53300
N 	N 	0.43370 0.83280 0.63340 -0.11300
C 	C 	0.08010 0.76830 0.42200 -0.15300
C 	C 	0.43250 0.95860 0.86710 0.49100
C 	C 	0.43500 0.91750 0.78370 -0.13600
C 	C 	0.09460 0.58180 0.42590 -0.15400
C 	C 	0.56240 0.89790 0.75980 -0.00400
H 	H 	0.65120 0.91390 0.79560 0.03500
C 	C 	0.31250 0.85430 0.65390 0.00200
H 	H 	0.22700 0.84030 0.61630 0.03300
C 	C 	0.22770 0.62470 0.47660 0.19100
C 	C 	0.02050 0.65330 0.39750 0.20000
C 	C 	0.29040 0.74200 0.49770 -0.15200
C 	C 	0.21800 0.81390 0.47150 0.19900
C 	C 	0.10250 0.17650 0.12000 0.43900
C 	C 	0.01140 0.88150 0.18330 -0.11200
C 	C 	0.30900 0.89720 0.72960 -0.01100
H 	H 	0.22160 0.91260 0.74420 0.04100
C 	C 	0.94080 0.26240 0.20290 0.01600
H 	H 	0.85770 0.21890 0.16470 0.00000
C 	C 	0.01670 0.89980 0.10710 0.46200
C 	C 	0.19810 0.32440 0.24670 -0.00900
H 	H 	0.29420 0.32400 0.23880 0.03400
C 	C 	0.87700 0.60380 0.34050 -0.54600
H 	H 	0.84240 0.66400 0.32510 0.18400
H 	H 	0.89100 0.54750 0.29600 0.18500
H 	H 	0.80480 0.56800 0.36360 0.17200
C 	C 	0.99330 0.84630 0.39960 -0.02100
H 	H 	0.89040 0.82080 0.40200 0.02200
H 	H 	0.03100 0.92300 0.43640 0.03000
C 	C 	0.12580 0.85640 0.29690 0.00900
H 	H 	0.20970 0.84970 0.32810 0.02400
C 	C 	0.07930 0.25750 0.19090 -0.13500
C 	C 	0.55720 0.85480 0.68320 -0.00300
H 	H 	0.64310 0.84080 0.66610 0.02600
C 	C 	0.88200 0.87480 0.20850 -0.01200
H 	H 	0.79610 0.87920 0.17760 0.03200
C 	C 	0.13360 0.87070 0.22840 -0.01800
H 	H 	0.22290 0.87330 0.21160 0.03500
C 	C 	0.92410 0.33080 0.27070 -0.01600
H 	H 	0.82900 0.33440 0.27910 0.02700
C 	C 	0.17700 0.39150 0.31380 -0.00100
H 	H 	0.25870 0.43730 0.35210 0.02400
C 	C 	0.02100 0.45690 0.40120 -0.01200
H 	H 	0.91530 0.44900 0.39990 0.02900
H 	H 	0.06090 0.42370 0.43930 0.02600
C 	C 	0.44090 0.78910 0.54960 -0.01500
H 	H 	0.49660 0.72940 0.54250 0.02500
H 	H 	0.49380 0.85150 0.53510 0.01900
C 	C 	0.31090 0.55160 0.50950 -0.52700
H 	H 	0.39240 0.53970 0.48440 0.16500
H 	H 	0.34840 0.58920 0.56400 0.17200
H 	H 	0.24540 0.47860 0.50140 0.16900
C 	C 	0.87830 0.86180 0.27860 -0.00300
H 	H 	0.79100 0.85990 0.29720 0.02000
C 	C 	0.28240 0.93910 0.49720 -0.55000
H 	H 	0.38110 0.95540 0.52760 0.18100
H 	H 	0.28630 0.96460 0.45280 0.18000
H 	H 	0.22150 0.97880 0.52780 0.18000
