data_crystal

_cell_length_a 9.49770
_cell_length_b 12.62700
_cell_length_c 18.70720
_cell_angle_alpha 106.09600
_cell_angle_beta  98.45200
_cell_angle_gamma 100.27500

_symmetry_space_group_name_	'P 1'
_symmetry_space_group_name_H-M	'P 1'

loop_
_symmetry_equiv_pos_as_xyz
  x,y,z

loop_
_atom_site_label
_atom_site_type_symbol
_atom_site_fract_x
_atom_site_fract_y
_atom_site_fract_z
_atom_site_charge
Eu	Eu	0.23517 0.01618 0.00304 1.91800
O 	O 	0.45050 0.02860 0.08570 -0.57600
N 	N 	0.00530 0.15210 0.68260 -0.11800
N 	N 	0.95640 0.60820 0.67320 -0.11400
O 	O 	0.68250 0.02120 0.11550 -0.52400
O 	O 	0.77650 0.82870 0.88910 -0.48200
O 	O 	0.01830 0.89120 0.92510 -0.53100
O 	O 	0.86280 0.06720 0.90750 -0.48200
O 	O 	0.10790 0.12140 0.94090 -0.49800
C 	C 	0.91980 0.23240 0.57840 -0.16400
C 	C 	0.90380 0.82810 0.88060 0.43500
C 	C 	0.56300 0.07920 0.21560 -0.12500
N 	N 	0.56590 0.16510 0.36710 -0.11400
C 	C 	0.90280 0.41840 0.57350 -0.15300
C 	C 	0.70660 0.25560 0.50280 -0.15100
C 	C 	0.43640 0.10060 0.23990 -0.01100
H 	H 	0.34850 0.08810 0.20400 0.04200
C 	C 	0.76850 0.37180 0.52290 0.18100
C 	C 	0.97870 0.34760 0.60260 0.21200
C 	C 	0.68880 0.09840 0.26960 -0.01700
H 	H 	0.77640 0.08350 0.25450 0.04400
C 	C 	0.56480 0.03860 0.13160 0.47700
C 	C 	0.68540 0.13980 0.34630 0.00700
H 	H 	0.77000 0.15000 0.38390 0.03000
C 	C 	0.06150 0.73940 0.79660 -0.00100
H 	H 	0.14550 0.78210 0.83470 0.01500
C 	C 	0.92180 0.74360 0.80810 -0.11600
C 	C 	0.87870 0.14650 0.70510 0.01500
H 	H 	0.79480 0.15180 0.67290 0.02300
C 	C 	0.44010 0.14030 0.31680 -0.00100
H 	H 	0.35270 0.15020 0.33410 0.02600
C 	C 	0.86810 0.13280 0.77610 -0.02500
H 	H 	0.77870 0.13060 0.79330 0.04000
C 	C 	0.80200 0.67750 0.75420 -0.01800
H 	H 	0.70640 0.67820 0.76340 0.03900
C 	C 	0.12200 0.13140 0.79500 -0.01700
H 	H 	0.20930 0.12910 0.82610 0.03700
C 	C 	0.99400 0.12250 0.82090 -0.10500
C 	C 	0.78340 0.18360 0.52930 0.20600
C 	C 	0.12210 0.40010 0.65790 -0.56200
H 	H 	0.16140 0.34090 0.67290 0.18900
H 	H 	0.10740 0.45520 0.70310 0.19100
H 	H 	0.19130 0.43860 0.63400 0.17700
C 	C 	0.00830 0.15520 0.60210 -0.01400
H 	H 	0.11100 0.18060 0.59840 0.02100
H 	H 	0.97000 0.07750 0.56630 0.02800
C 	C 	0.07390 0.66950 0.72630 -0.00300
H 	H 	0.16840 0.66580 0.71630 0.02400
C 	C 	0.97450 0.54340 0.59700 -0.00900
H 	H 	0.08030 0.55220 0.59720 0.02700
H 	H 	0.93220 0.57600 0.55880 0.02700
C 	C 	0.82140 0.61090 0.68730 0.00600
H 	H 	0.73820 0.56520 0.64960 0.02200
C 	C 	0.12500 0.14370 0.72360 0.00600
H 	H 	0.21270 0.14610 0.70470 0.01800
C 	C 	0.98700 0.10230 0.89610 0.44200
C 	C 	0.68240 0.44720 0.48980 -0.51000
H 	H 	0.61310 0.47030 0.52160 0.16100
H 	H 	0.62890 0.40410 0.43790 0.16900
H 	H 	0.75100 0.51450 0.48900 0.16400
C 	C 	0.55670 0.20510 0.45100 -0.01300
H 	H 	0.49720 0.26260 0.45870 0.02500
H 	H 	0.50700 0.14020 0.46500 0.01800
C 	C 	0.72150 0.05800 0.50430 -0.56300
H 	H 	0.77960 0.01950 0.47090 0.18400
H 	H 	0.62000 0.04080 0.47670 0.18300
H 	H 	0.72460 0.03180 0.54900 0.18500
Eu	Eu	0.76483 0.98382 0.99696 1.91900
O 	O 	0.54950 0.97140 0.91430 -0.57500
N 	N 	0.99470 0.84790 0.31740 -0.11700
N 	N 	0.04360 0.39180 0.32680 -0.11300
O 	O 	0.31750 0.97880 0.88450 -0.52300
O 	O 	0.22350 0.17130 0.11090 -0.48100
O 	O 	0.98170 0.10880 0.07490 -0.53100
O 	O 	0.13720 0.93280 0.09250 -0.48200
O 	O 	0.89210 0.87860 0.05910 -0.49800
C 	C 	0.08020 0.76760 0.42160 -0.16400
C 	C 	0.09620 0.17190 0.11940 0.43500
C 	C 	0.43700 0.92080 0.78440 -0.12500
N 	N 	0.43410 0.83490 0.63290 -0.11400
C 	C 	0.09720 0.58160 0.42650 -0.15300
C 	C 	0.29340 0.74440 0.49720 -0.15100
C 	C 	0.56360 0.89940 0.76010 -0.01100
H 	H 	0.65150 0.91190 0.79600 0.04200
C 	C 	0.23150 0.62820 0.47710 0.18100
C 	C 	0.02130 0.65240 0.39740 0.21200
C 	C 	0.31120 0.90160 0.73040 -0.01700
H 	H 	0.22360 0.91650 0.74550 0.04400
C 	C 	0.43520 0.96140 0.86840 0.47700
C 	C 	0.31460 0.86020 0.65370 0.00700
H 	H 	0.23000 0.85000 0.61610 0.03000
C 	C 	0.93850 0.26060 0.20340 -0.00100
H 	H 	0.85450 0.21790 0.16530 0.01500
C 	C 	0.07820 0.25640 0.19190 -0.11600
C 	C 	0.12130 0.85350 0.29490 0.01500
H 	H 	0.20520 0.84820 0.32710 0.02300
C 	C 	0.55990 0.85970 0.68320 -0.00100
H 	H 	0.64730 0.84980 0.66590 0.02600
C 	C 	0.13190 0.86720 0.22390 -0.02500
H 	H 	0.22130 0.86940 0.20670 0.04000
C 	C 	0.19800 0.32250 0.24580 -0.01800
H 	H 	0.29360 0.32180 0.23660 0.03900
C 	C 	0.87800 0.86860 0.20500 -0.01700
H 	H 	0.79070 0.87090 0.17390 0.03700
C 	C 	0.00600 0.87750 0.17910 -0.10500
C 	C 	0.21660 0.81640 0.47070 0.20600
C 	C 	0.87790 0.59990 0.34210 -0.56200
H 	H 	0.83860 0.65910 0.32710 0.18900
H 	H 	0.89260 0.54480 0.29690 0.19100
H 	H 	0.80870 0.56140 0.36600 0.17700
C 	C 	0.99170 0.84480 0.39790 -0.01400
H 	H 	0.88900 0.81940 0.40160 0.02100
H 	H 	0.03000 0.92250 0.43370 0.02800
C 	C 	0.92610 0.33050 0.27370 -0.00300
H 	H 	0.83160 0.33420 0.28370 0.02400
C 	C 	0.02550 0.45660 0.40300 -0.00900
H 	H 	0.91970 0.44780 0.40280 0.02700
H 	H 	0.06780 0.42400 0.44120 0.02700
C 	C 	0.17860 0.38910 0.31270 0.00600
H 	H 	0.26180 0.43480 0.35040 0.02200
C 	C 	0.87500 0.85630 0.27640 0.00600
H 	H 	0.78730 0.85390 0.29530 0.01800
C 	C 	0.01300 0.89770 0.10390 0.44200
C 	C 	0.31760 0.55280 0.51020 -0.51000
H 	H 	0.38690 0.52970 0.47840 0.16100
H 	H 	0.37110 0.59590 0.56210 0.16900
H 	H 	0.24900 0.48550 0.51100 0.16400
C 	C 	0.44330 0.79490 0.54900 -0.01300
H 	H 	0.50280 0.73740 0.54130 0.02500
H 	H 	0.49300 0.85980 0.53500 0.01800
C 	C 	0.27850 0.94200 0.49570 -0.56300
H 	H 	0.22040 0.98050 0.52910 0.18400
H 	H 	0.38000 0.95920 0.52330 0.18300
H 	H 	0.27540 0.96820 0.45100 0.18500
