data_crystal

_cell_length_a 9.53070
_cell_length_b 12.70160
_cell_length_c 18.81990
_cell_angle_alpha 106.34900
_cell_angle_beta  98.62900
_cell_angle_gamma 100.06000

_symmetry_space_group_name_	'P 1'
_symmetry_space_group_name_H-M	'P 1'

loop_
_symmetry_equiv_pos_as_xyz
  x,y,z

loop_
_atom_site_label
_atom_site_type_symbol
_atom_site_fract_x
_atom_site_fract_y
_atom_site_fract_z
_atom_site_charge
Tb	Tb	0.76664 0.98367 0.99669 1.70900
N 	N 	0.00030 0.14820 0.67980 -0.11500
O 	O 	0.68640 0.02400 0.11720 -0.47300
O 	O 	0.86090 0.06530 0.90400 -0.44600
O 	O 	0.00870 0.89070 0.92620 -0.48100
N 	N 	0.95820 0.60740 0.67480 -0.11200
O 	O 	0.76980 0.82270 0.88780 -0.43600
O 	O 	0.10530 0.12000 0.93660 -0.45500
N 	N 	0.56660 0.16680 0.36790 -0.11400
C 	C 	0.92000 0.23100 0.57770 -0.15100
C 	C 	0.56670 0.04180 0.13280 0.43900
C 	C 	0.56460 0.08200 0.21600 -0.11100
C 	C 	0.90550 0.41840 0.57430 -0.15300
C 	C 	0.43790 0.10220 0.24040 -0.01800
H 	H 	0.34950 0.08700 0.20440 0.04600
C 	C 	0.68920 0.14610 0.34600 0.00700
H 	H 	0.77590 0.16150 0.38310 0.03100
C 	C 	0.77180 0.37500 0.52330 0.19000
C 	C 	0.97930 0.34710 0.60260 0.19900
C 	C 	0.70910 0.25860 0.50210 -0.15200
C 	C 	0.78180 0.18610 0.52830 0.19600
C 	C 	0.89790 0.82320 0.87980 0.39400
C 	C 	0.98850 0.11890 0.81690 -0.08700
C 	C 	0.69110 0.10290 0.27060 -0.02400
H 	H 	0.77820 0.08740 0.25570 0.04700
C 	C 	0.05930 0.73740 0.79720 -0.00700
H 	H 	0.14240 0.78070 0.83550 0.01900
C 	C 	0.98330 0.10040 0.89300 0.41600
C 	C 	0.80190 0.67580 0.75330 -0.02500
H 	H 	0.70600 0.67650 0.76140 0.04200
C 	C 	0.12300 0.39630 0.65950 -0.54700
H 	H 	0.16030 0.33540 0.67250 0.18500
H 	H 	0.10810 0.44930 0.70530 0.18800
H 	H 	0.19350 0.43590 0.63740 0.17300
C 	C 	0.00660 0.15400 0.60040 -0.01700
H 	H 	0.10950 0.18010 0.59810 0.02200
H 	H 	0.96960 0.07740 0.56350 0.02900
C 	C 	0.87380 0.14390 0.70320 0.01700
H 	H 	0.78990 0.15100 0.67210 0.02200
C 	C 	0.92050 0.74240 0.80880 -0.10500
C 	C 	0.44100 0.14410 0.31640 0.00100
H 	H 	0.35440 0.15730 0.33290 0.02600
C 	C 	0.11780 0.12510 0.79130 -0.02800
H 	H 	0.20370 0.12030 0.82200 0.04400
C 	C 	0.86610 0.12950 0.77180 -0.03300
H 	H 	0.77680 0.12670 0.78860 0.04400
C 	C 	0.07560 0.66880 0.72930 -0.00100
H 	H 	0.17060 0.66480 0.72080 0.02400
C 	C 	0.82220 0.60820 0.68610 0.01000
H 	H 	0.74040 0.56220 0.64780 0.02100
C 	C 	0.97900 0.54300 0.59870 -0.01100
H 	H 	0.08460 0.55100 0.60010 0.02800
H 	H 	0.93900 0.57610 0.56060 0.02700
C 	C 	0.55930 0.21070 0.45030 -0.01000
H 	H 	0.50670 0.14860 0.46520 0.01800
H 	H 	0.50320 0.27020 0.45700 0.02400
C 	C 	0.68810 0.44810 0.49010 -0.52900
H 	H 	0.61180 0.46530 0.51820 0.16600
H 	H 	0.64340 0.40750 0.43670 0.17400
H 	H 	0.75510 0.51840 0.49420 0.17100
C 	C 	0.12180 0.13820 0.72160 0.00800
H 	H 	0.20940 0.14030 0.70320 0.01800
C 	C 	0.71760 0.06080 0.50310 -0.54700
H 	H 	0.71790 0.03520 0.54760 0.18000
H 	H 	0.77600 0.02120 0.47070 0.18000
H 	H 	0.61720 0.04470 0.47460 0.18000
O 	O 	0.45400 0.03020 0.08690 -0.52400
Tb	Tb	0.23336 0.01633 0.00331 1.70800
N 	N 	0.99970 0.85180 0.32020 -0.11600
O 	O 	0.31360 0.97600 0.88280 -0.47400
O 	O 	0.13910 0.93470 0.09600 -0.44700
O 	O 	0.99130 0.10930 0.07380 -0.48200
N 	N 	0.04180 0.39260 0.32520 -0.11300
O 	O 	0.23020 0.17730 0.11220 -0.43600
O 	O 	0.89470 0.88000 0.06340 -0.45500
N 	N 	0.43340 0.83320 0.63210 -0.11400
C 	C 	0.08000 0.76900 0.42230 -0.15100
C 	C 	0.43330 0.95820 0.86720 0.43900
C 	C 	0.43540 0.91800 0.78400 -0.11100
C 	C 	0.09450 0.58160 0.42570 -0.15300
C 	C 	0.56210 0.89780 0.75960 -0.01800
H 	H 	0.65050 0.91300 0.79560 0.04600
C 	C 	0.31080 0.85390 0.65400 0.00700
H 	H 	0.22410 0.83850 0.61690 0.03100
C 	C 	0.22820 0.62500 0.47670 0.19000
C 	C 	0.02070 0.65290 0.39740 0.19900
C 	C 	0.29090 0.74140 0.49790 -0.15200
C 	C 	0.21820 0.81390 0.47170 0.19600
C 	C 	0.10210 0.17680 0.12020 0.39400
C 	C 	0.01150 0.88110 0.18310 -0.08700
C 	C 	0.30890 0.89710 0.72940 -0.02400
H 	H 	0.22180 0.91260 0.74430 0.04700
C 	C 	0.94070 0.26260 0.20280 -0.00700
H 	H 	0.85760 0.21930 0.16450 0.01900
C 	C 	0.01670 0.89960 0.10700 0.41600
C 	C 	0.19810 0.32420 0.24670 -0.02500
H 	H 	0.29400 0.32350 0.23860 0.04200
C 	C 	0.87700 0.60370 0.34050 -0.54700
H 	H 	0.83970 0.66460 0.32750 0.18500
H 	H 	0.89190 0.55070 0.29470 0.18800
H 	H 	0.80650 0.56410 0.36260 0.17300
C 	C 	0.99340 0.84600 0.39960 -0.01700
H 	H 	0.89050 0.81990 0.40190 0.02200
H 	H 	0.03040 0.92260 0.43650 0.02900
C 	C 	0.12620 0.85610 0.29680 0.01700
H 	H 	0.21010 0.84900 0.32790 0.02200
C 	C 	0.07950 0.25760 0.19120 -0.10500
C 	C 	0.55900 0.85590 0.68360 0.00100
H 	H 	0.64560 0.84270 0.66710 0.02600
C 	C 	0.88220 0.87490 0.20870 -0.02800
H 	H 	0.79630 0.87970 0.17800 0.04400
C 	C 	0.13390 0.87050 0.22820 -0.03300
H 	H 	0.22320 0.87330 0.21140 0.04400
C 	C 	0.92440 0.33120 0.27070 -0.00100
H 	H 	0.82940 0.33520 0.27920 0.02400
C 	C 	0.17780 0.39180 0.31390 0.01000
H 	H 	0.25960 0.43780 0.35220 0.02100
C 	C 	0.02100 0.45700 0.40130 -0.01100
H 	H 	0.91540 0.44900 0.39990 0.02800
H 	H 	0.06100 0.42390 0.43940 0.02700
C 	C 	0.44070 0.78930 0.54970 -0.01000
H 	H 	0.49330 0.85140 0.53480 0.01800
H 	H 	0.49680 0.72980 0.54300 0.02400
C 	C 	0.31190 0.55190 0.50990 -0.52900
H 	H 	0.38820 0.53470 0.48180 0.16600
H 	H 	0.35660 0.59250 0.56330 0.17400
H 	H 	0.24490 0.48160 0.50580 0.17100
C 	C 	0.87820 0.86180 0.27840 0.00800
H 	H 	0.79060 0.85970 0.29680 0.01800
C 	C 	0.28240 0.93920 0.49690 -0.54700
H 	H 	0.28210 0.96480 0.45240 0.18000
H 	H 	0.22400 0.97880 0.52930 0.18000
H 	H 	0.38280 0.95530 0.52540 0.18000
O 	O 	0.54600 0.96980 0.91310 -0.52400
