data_crystal

_cell_length_a 9.47270
_cell_length_b 12.65200
_cell_length_c 18.60170
_cell_angle_alpha 106.10600
_cell_angle_beta  98.08800
_cell_angle_gamma 100.25500

_symmetry_space_group_name_	'P 1'
_symmetry_space_group_name_H-M	'P 1'

loop_
_symmetry_equiv_pos_as_xyz
  x,y,z

loop_
_atom_site_label
_atom_site_type_symbol
_atom_site_fract_x
_atom_site_fract_y
_atom_site_fract_z
_atom_site_charge
Dy	Dy	0.76384 0.48437 0.49715 1.83000
O 	O 	0.55160 0.46820 0.41470 -0.56700
N 	N 	0.99560 0.34850 0.81720 -0.11500
O 	O 	0.97570 0.60810 0.57430 -0.52200
O 	O 	0.88950 0.38300 0.55970 -0.49100
O 	O 	0.31960 0.47910 0.38670 -0.51300
O 	O 	0.21850 0.66770 0.60770 -0.46800
N 	N 	0.43880 0.33720 0.13320 -0.11300
C 	C 	0.09870 0.08190 0.92640 -0.15400
C 	C 	0.43980 0.42010 0.28510 -0.11800
N 	N 	0.04390 0.89210 0.82620 -0.11100
C 	C 	0.08040 0.26840 0.92130 -0.15600
C 	C 	0.09050 0.67070 0.61750 0.44500
C 	C 	0.43910 0.46090 0.37060 0.47700
C 	C 	0.56580 0.39810 0.26040 -0.01500
H 	H 	0.65380 0.41070 0.29630 0.04700
C 	C 	0.07520 0.75610 0.68950 -0.11200
C 	C 	0.21870 0.31560 0.97070 0.19600
C 	C 	0.23290 0.12790 0.97710 0.17500
C 	C 	0.31420 0.40210 0.23120 -0.01700
H 	H 	0.22770 0.41940 0.24720 0.04400
C 	C 	0.29530 0.24550 0.99750 -0.14700
C 	C 	0.56250 0.35790 0.18350 0.00400
H 	H 	0.64930 0.34480 0.16610 0.02600
C 	C 	0.87810 0.10210 0.84240 -0.55600
H 	H 	0.83300 0.16310 0.83460 0.18600
H 	H 	0.81280 0.05370 0.86270 0.17600
H 	H 	0.89480 0.05710 0.79350 0.18900
C 	C 	0.31420 0.35910 0.15400 0.00300
H 	H 	0.22800 0.34540 0.11670 0.03200
C 	C 	0.19710 0.82170 0.74450 -0.01900
H 	H 	0.29270 0.81940 0.73520 0.04000
C 	C 	0.87540 0.37040 0.70460 -0.02100
H 	H 	0.78860 0.37430 0.67390 0.04100
C 	C 	0.93700 0.76290 0.70430 -0.00800
H 	H 	0.85180 0.72020 0.66710 0.02100
C 	C 	0.13040 0.36770 0.72330 -0.02600
H 	H 	0.22010 0.37100 0.70570 0.04000
C 	C 	0.92510 0.83180 0.77270 -0.00200
H 	H 	0.83070 0.83710 0.78290 0.02400
C 	C 	0.01160 0.39920 0.60240 0.44300
C 	C 	0.02160 0.15180 0.89800 0.20600
C 	C 	0.12220 0.35310 0.79300 0.01300
H 	H 	0.20650 0.34620 0.82410 0.02400
C 	C 	0.99160 0.34500 0.89840 -0.01000
H 	H 	0.02920 0.42240 0.93450 0.02500
H 	H 	0.88870 0.31910 0.90210 0.01900
C 	C 	0.27950 0.44160 0.99500 -0.54600
H 	H 	0.22290 0.47990 0.03000 0.17900
H 	H 	0.27290 0.46750 0.94990 0.18000
H 	H 	0.38220 0.45920 0.02100 0.17800
C 	C 	0.17900 0.88950 0.81210 0.00900
H 	H 	0.26240 0.93530 0.84950 0.02300
C 	C 	0.87330 0.35730 0.77570 0.00500
H 	H 	0.78560 0.35460 0.79510 0.01800
C 	C 	0.00580 0.37780 0.67850 -0.09900
C 	C 	0.02700 0.95780 0.90380 -0.00300
H 	H 	0.07030 0.92540 0.94200 0.02600
H 	H 	0.92140 0.94930 0.90460 0.02500
C 	C 	0.44670 0.29690 0.04920 -0.01300
H 	H 	0.50680 0.23970 0.04130 0.02700
H 	H 	0.49570 0.36150 0.03460 0.01900
C 	C 	0.31940 0.05470 0.01020 -0.49000
H 	H 	0.25570 0.98020 0.00120 0.15700
H 	H 	0.35480 0.09130 0.06530 0.16300
H 	H 	0.40300 0.04580 0.98530 0.15400
O 	O 	0.13610 0.43530 0.59120 -0.47700
Dy	Dy	0.23616 0.51563 0.50285 1.83000
O 	O 	0.44840 0.53180 0.58530 -0.56700
N 	N 	0.00440 0.65150 0.18280 -0.11500
O 	O 	0.02430 0.39190 0.42570 -0.52200
O 	O 	0.11050 0.61700 0.44030 -0.49100
O 	O 	0.68040 0.52090 0.61330 -0.51300
O 	O 	0.78150 0.33230 0.39230 -0.46800
N 	N 	0.56120 0.66280 0.86680 -0.11300
C 	C 	0.90130 0.91810 0.07360 -0.15400
C 	C 	0.56020 0.57990 0.71490 -0.11800
N 	N 	0.95610 0.10790 0.17380 -0.11100
C 	C 	0.91960 0.73160 0.07870 -0.15600
C 	C 	0.90950 0.32930 0.38250 0.44500
C 	C 	0.56090 0.53910 0.62940 0.47700
C 	C 	0.43420 0.60190 0.73960 -0.01500
H 	H 	0.34620 0.58930 0.70370 0.04700
C 	C 	0.92480 0.24390 0.31050 -0.11200
C 	C 	0.78130 0.68440 0.02930 0.19600
C 	C 	0.76710 0.87210 0.02290 0.17500
C 	C 	0.68580 0.59790 0.76880 -0.01700
H 	H 	0.77230 0.58060 0.75280 0.04400
C 	C 	0.70470 0.75450 0.00250 -0.14700
C 	C 	0.43750 0.64210 0.81650 0.00400
H 	H 	0.35070 0.65520 0.83390 0.02600
C 	C 	0.12190 0.89790 0.15760 -0.55600
H 	H 	0.16700 0.83690 0.16540 0.18600
H 	H 	0.18720 0.94630 0.13730 0.17600
H 	H 	0.10520 0.94290 0.20650 0.18900
C 	C 	0.68580 0.64090 0.84600 0.00300
H 	H 	0.77200 0.65460 0.88330 0.03200
C 	C 	0.80290 0.17830 0.25550 -0.01900
H 	H 	0.70730 0.18060 0.26480 0.04000
C 	C 	0.12460 0.62960 0.29540 -0.02100
H 	H 	0.21140 0.62570 0.32610 0.04100
C 	C 	0.06300 0.23710 0.29570 -0.00800
H 	H 	0.14820 0.27980 0.33290 0.02100
C 	C 	0.86960 0.63230 0.27670 -0.02600
H 	H 	0.77990 0.62900 0.29430 0.04000
C 	C 	0.07490 0.16820 0.22730 -0.00200
H 	H 	0.16930 0.16290 0.21710 0.02400
C 	C 	0.98840 0.60080 0.39760 0.44300
C 	C 	0.97840 0.84820 0.10200 0.20600
C 	C 	0.87780 0.64690 0.20700 0.01300
H 	H 	0.79350 0.65380 0.17590 0.02400
C 	C 	0.00840 0.65500 0.10160 -0.01000
H 	H 	0.97080 0.57760 0.06550 0.02500
H 	H 	0.11130 0.68090 0.09790 0.01900
C 	C 	0.72050 0.55840 0.00500 -0.54600
H 	H 	0.77710 0.52010 0.97000 0.17900
H 	H 	0.72710 0.53250 0.05010 0.18000
H 	H 	0.61780 0.54080 0.97900 0.17800
C 	C 	0.82100 0.11050 0.18790 0.00900
H 	H 	0.73760 0.06470 0.15050 0.02300
C 	C 	0.12670 0.64270 0.22430 0.00500
H 	H 	0.21440 0.64540 0.20490 0.01800
C 	C 	0.99420 0.62220 0.32150 -0.09900
C 	C 	0.97300 0.04220 0.09620 -0.00300
H 	H 	0.92970 0.07460 0.05800 0.02600
H 	H 	0.07860 0.05070 0.09540 0.02500
C 	C 	0.55330 0.70310 0.95080 -0.01300
H 	H 	0.49320 0.76030 0.95870 0.02700
H 	H 	0.50430 0.63850 0.96540 0.01900
C 	C 	0.68060 0.94530 0.98980 -0.49000
H 	H 	0.74430 0.01980 0.99880 0.15700
H 	H 	0.64520 0.90870 0.93470 0.16300
H 	H 	0.59700 0.95420 0.01470 0.15400
O 	O 	0.86390 0.56470 0.40880 -0.47700
