data_crystal

_cell_length_a 9.49510
_cell_length_b 12.55950
_cell_length_c 18.91910
_cell_angle_alpha 106.10700
_cell_angle_beta  98.86900
_cell_angle_gamma 100.65000

_symmetry_space_group_name_	'P 1'
_symmetry_space_group_name_H-M	'P 1'

loop_
_symmetry_equiv_pos_as_xyz
  x,y,z

loop_
_atom_site_label
_atom_site_type_symbol
_atom_site_fract_x
_atom_site_fract_y
_atom_site_fract_z
_atom_site_charge
Yb	Yb	0.23413 0.01781 0.00391 1.47600
O 	O 	0.45780 0.02950 0.08770 -0.46400
O 	O 	0.68900 0.02040 0.11880 -0.42200
O 	O 	0.00240 0.89120 0.92430 -0.43900
N 	N 	0.56780 0.15890 0.36730 -0.12100
O 	O 	0.76350 0.81880 0.88370 -0.39400
N 	N 	0.00540 0.15290 0.68190 -0.12100
O 	O 	0.10650 0.12710 0.93880 -0.40500
O 	O 	0.86050 0.07110 0.90500 -0.39700
N 	N 	0.95450 0.61040 0.67270 -0.11900
C 	C 	0.92410 0.23230 0.57840 -0.16700
C 	C 	0.89160 0.82320 0.87700 0.35000
C 	C 	0.56590 0.07640 0.21700 -0.07100
C 	C 	0.90550 0.41910 0.57330 -0.16200
C 	C 	0.56990 0.03790 0.13400 0.37500
C 	C 	0.98080 0.34850 0.60220 0.21400
C 	C 	0.44040 0.09640 0.24040 -0.04500
H 	H 	0.35220 0.08220 0.20420 0.05900
C 	C 	0.71100 0.25350 0.50160 -0.16200
C 	C 	0.69240 0.09640 0.27120 -0.04700
H 	H 	0.78000 0.08120 0.25660 0.05700
C 	C 	0.44220 0.13670 0.31580 0.01800
H 	H 	0.35490 0.14910 0.33180 0.02100
C 	C 	0.77010 0.37200 0.52250 0.19800
C 	C 	0.69000 0.13850 0.34660 0.02300
H 	H 	0.77660 0.15290 0.38400 0.02500
C 	C 	0.91620 0.74250 0.80540 -0.06800
C 	C 	0.99130 0.12650 0.81910 -0.05300
C 	C 	0.78650 0.18300 0.52840 0.21200
C 	C 	0.87870 0.14780 0.70440 0.03100
H 	H 	0.79450 0.15330 0.67250 0.01900
C 	C 	0.01170 0.15520 0.60260 -0.00700
H 	H 	0.11530 0.18140 0.60020 0.01900
H 	H 	0.97360 0.07670 0.56700 0.02500
C 	C 	0.12200 0.13350 0.79460 -0.05000
H 	H 	0.20800 0.13000 0.82620 0.05700
C 	C 	0.86910 0.13480 0.77320 -0.05200
H 	H 	0.77870 0.13160 0.78910 0.05500
C 	C 	0.12450 0.40170 0.65950 -0.56200
H 	H 	0.16370 0.34170 0.67350 0.19100
H 	H 	0.10800 0.45500 0.70450 0.19400
H 	H 	0.19500 0.44290 0.63770 0.17800
C 	C 	0.05540 0.73980 0.79510 -0.03400
H 	H 	0.13850 0.78400 0.83390 0.03600
C 	C 	0.79770 0.67580 0.74990 -0.04600
H 	H 	0.70110 0.67590 0.75750 0.05300
C 	C 	0.07280 0.67240 0.72790 0.01500
H 	H 	0.16860 0.66940 0.72010 0.02100
C 	C 	0.81800 0.60940 0.68380 0.02500
H 	H 	0.73560 0.56240 0.64550 0.01700
C 	C 	0.97470 0.54530 0.59710 -0.00300
H 	H 	0.08110 0.55630 0.59830 0.02600
H 	H 	0.93170 0.57720 0.55890 0.02400
C 	C 	0.98560 0.10750 0.89470 0.35500
C 	C 	0.12820 0.14530 0.72510 0.02000
H 	H 	0.21700 0.14820 0.70760 0.01500
C 	C 	0.56100 0.20210 0.45020 -0.00500
H 	H 	0.50240 0.26030 0.45690 0.02300
H 	H 	0.51030 0.13790 0.46480 0.01600
C 	C 	0.68490 0.44410 0.48870 -0.53400
H 	H 	0.60420 0.45670 0.51420 0.16800
H 	H 	0.64500 0.40430 0.43480 0.17600
H 	H 	0.75070 0.51780 0.49530 0.17200
C 	C 	0.72540 0.05570 0.50330 -0.56600
H 	H 	0.62610 0.03660 0.47210 0.18600
H 	H 	0.72170 0.03010 0.54750 0.18600
H 	H 	0.78850 0.01760 0.47380 0.18500
Yb	Yb	0.76587 0.98219 0.99609 1.47600
O 	O 	0.54220 0.97050 0.91230 -0.46400
O 	O 	0.31100 0.97960 0.88120 -0.42200
O 	O 	0.99760 0.10880 0.07570 -0.43900
N 	N 	0.43220 0.84110 0.63270 -0.12100
O 	O 	0.23650 0.18120 0.11630 -0.39400
N 	N 	0.99460 0.84710 0.31810 -0.12100
O 	O 	0.89350 0.87290 0.06120 -0.40500
O 	O 	0.13950 0.92890 0.09500 -0.39700
N 	N 	0.04550 0.38960 0.32730 -0.11900
C 	C 	0.07590 0.76770 0.42160 -0.16700
C 	C 	0.10840 0.17680 0.12300 0.35000
C 	C 	0.43410 0.92360 0.78300 -0.07100
C 	C 	0.09450 0.58090 0.42670 -0.16200
C 	C 	0.43010 0.96210 0.86600 0.37500
C 	C 	0.01920 0.65150 0.39780 0.21400
C 	C 	0.55960 0.90360 0.75960 -0.04500
H 	H 	0.64780 0.91780 0.79580 0.05900
C 	C 	0.28900 0.74650 0.49840 -0.16200
C 	C 	0.30760 0.90360 0.72880 -0.04700
H 	H 	0.22000 0.91880 0.74340 0.05700
C 	C 	0.55780 0.86330 0.68420 0.01800
H 	H 	0.64510 0.85090 0.66820 0.02100
C 	C 	0.22990 0.62800 0.47750 0.19800
C 	C 	0.31000 0.86150 0.65340 0.02300
H 	H 	0.22340 0.84710 0.61600 0.02500
C 	C 	0.08380 0.25750 0.19460 -0.06800
C 	C 	0.00870 0.87350 0.18090 -0.05300
C 	C 	0.21350 0.81700 0.47160 0.21200
C 	C 	0.12130 0.85220 0.29560 0.03100
H 	H 	0.20550 0.84670 0.32750 0.01900
C 	C 	0.98830 0.84480 0.39740 -0.00700
H 	H 	0.88470 0.81860 0.39980 0.01900
H 	H 	0.02640 0.92330 0.43300 0.02500
C 	C 	0.87800 0.86650 0.20540 -0.05000
H 	H 	0.79200 0.87000 0.17380 0.05700
C 	C 	0.13090 0.86520 0.22680 -0.05200
H 	H 	0.22130 0.86840 0.21090 0.05500
C 	C 	0.87550 0.59830 0.34050 -0.56200
H 	H 	0.83630 0.65830 0.32650 0.19100
H 	H 	0.89200 0.54500 0.29550 0.19400
H 	H 	0.80500 0.55710 0.36230 0.17800
C 	C 	0.94460 0.26020 0.20490 -0.03400
H 	H 	0.86150 0.21600 0.16610 0.03600
C 	C 	0.20230 0.32420 0.25010 -0.04600
H 	H 	0.29890 0.32410 0.24250 0.05300
C 	C 	0.92720 0.32760 0.27210 0.01500
H 	H 	0.83140 0.33060 0.27990 0.02100
C 	C 	0.18200 0.39060 0.31620 0.02500
H 	H 	0.26440 0.43760 0.35450 0.01700
C 	C 	0.02530 0.45470 0.40290 -0.00300
H 	H 	0.91890 0.44370 0.40170 0.02600
H 	H 	0.06830 0.42280 0.44110 0.02400
C 	C 	0.01440 0.89250 0.10530 0.35500
C 	C 	0.87180 0.85470 0.27490 0.02000
H 	H 	0.78300 0.85180 0.29240 0.01500
C 	C 	0.43900 0.79790 0.54980 -0.00500
H 	H 	0.49760 0.73970 0.54310 0.02300
H 	H 	0.48970 0.86210 0.53520 0.01600
C 	C 	0.31510 0.55590 0.51130 -0.53400
H 	H 	0.39580 0.54330 0.48580 0.16800
H 	H 	0.35500 0.59570 0.56520 0.17600
H 	H 	0.24930 0.48220 0.50470 0.17200
C 	C 	0.27460 0.94430 0.49670 -0.56600
H 	H 	0.37390 0.96340 0.52790 0.18600
H 	H 	0.27830 0.96990 0.45250 0.18600
H 	H 	0.21150 0.98240 0.52620 0.18500
