data_crystal

_cell_length_a 9.46440
_cell_length_b 12.72060
_cell_length_c 18.55390
_cell_angle_alpha 106.20600
_cell_angle_beta  97.89300
_cell_angle_gamma 100.26600

_symmetry_space_group_name_	'P 1'
_symmetry_space_group_name_H-M	'P 1'

loop_
_symmetry_equiv_pos_as_xyz
  x,y,z

loop_
_atom_site_label
_atom_site_type_symbol
_atom_site_fract_x
_atom_site_fract_y
_atom_site_fract_z
_atom_site_charge
Ho	Ho	0.26384 0.48509 0.49728 1.79600
O 	O 	0.28400 0.33330 0.39430 -0.46400
N 	N 	0.45810 0.10630 0.17410 -0.11000
C 	C 	0.40170 0.91690 0.07400 -0.16500
O 	O 	0.52670 0.39130 0.42690 -0.51700
N 	N 	0.50410 0.64940 0.18080 -0.11600
C 	C 	0.47780 0.84700 0.10220 0.21900
O 	O 	0.36450 0.56200 0.40770 -0.47300
N 	N 	0.06080 0.66430 0.86800 -0.11500
C 	C 	0.41860 0.73060 0.07810 -0.17200
O 	O 	0.61100 0.61350 0.43870 -0.48300
C 	C 	0.28190 0.68500 0.02990 0.21500
O 	O 	0.17960 0.52380 0.61317 -0.50900
C 	C 	0.20590 0.75650 0.00380 -0.16100
O 	O 	0.94680 0.53290 0.58529 -0.55700
C 	C 	0.26600 0.87210 0.02350 0.19500
C 	C 	0.47210 0.03990 0.09670 0.00500
H 	H 	0.57740 0.04840 0.09480 0.02400
H 	H 	0.42750 0.07180 0.05860 0.02300
C 	C 	0.50850 0.65450 0.10080 0.00300
H 	H 	0.61150 0.68120 0.09740 0.01500
H 	H 	0.47210 0.57780 0.06410 0.01900
C 	C 	0.05560 0.70880 0.95270 -0.00900
H 	H 	0.99920 0.76820 0.96000 0.02500
H 	H 	0.00310 0.64700 0.96850 0.01900
C 	C 	0.62070 0.89630 0.15780 -0.56900
H 	H 	0.66220 0.83570 0.16850 0.19100
H 	H 	0.60470 0.94570 0.20550 0.19300
H 	H 	0.68880 0.93990 0.13570 0.17800
C 	C 	0.21680 0.56070 0.00450 -0.57100
H 	H 	0.29140 0.51980 0.98840 0.18600
H 	H 	0.13420 0.54170 0.96150 0.18900
H 	H 	0.18240 0.53950 0.04700 0.18500
C 	C 	0.18210 0.94540 0.99150 -0.51500
H 	H 	0.13390 0.90460 0.93820 0.17000
H 	H 	0.25000 0.01450 0.99370 0.16300
H 	H 	0.10800 0.96440 0.02190 0.16100
C 	C 	0.57760 0.16690 0.22740 -0.00600
H 	H 	0.67220 0.16250 0.21700 0.02600
C 	C 	0.56410 0.23540 0.29720 -0.00300
H 	H 	0.64900 0.27600 0.33530 0.02000
C 	C 	0.42740 0.24460 0.31140 -0.11400
C 	C 	0.30370 0.17800 0.25700 -0.01800
H 	H 	0.20830 0.18020 0.26710 0.03900
C 	C 	0.32160 0.10930 0.18880 0.00600
H 	H 	0.23800 0.06360 0.15160 0.02300
C 	C 	0.41130 0.32850 0.38380 0.44500
C 	C 	0.62580 0.63990 0.22260 0.00500
H 	H 	0.71390 0.64300 0.20330 0.01800
C 	C 	0.62330 0.62560 0.29290 -0.02000
H 	H 	0.71010 0.62050 0.32300 0.04100
C 	C 	0.49400 0.61880 0.32020 -0.10000
C 	C 	0.36960 0.62950 0.27570 -0.02500
H 	H 	0.27990 0.62590 0.29350 0.04000
C 	C 	0.37730 0.64530 0.20680 0.01300
H 	H 	0.29280 0.65340 0.17660 0.02400
C 	C 	0.48790 0.59640 0.39580 0.44400
C 	C 	0.18460 0.64350 0.84540 0.00300
H 	H 	0.27150 0.65790 0.88250 0.03200
C 	C 	0.18590 0.60170 0.76900 -0.01900
H 	H 	0.27290 0.58570 0.75290 0.04500
C 	C 	0.05900 0.58280 0.71530 -0.11600
C 	C 	0.93280 0.60340 0.74050 -0.01500
H 	H 	0.84400 0.58830 0.70460 0.04700
C 	C 	0.93650 0.64620 0.81820 0.00100
H 	H 	0.85090 0.66250 0.83590 0.02600
C 	C 	0.06100 0.54200 0.62990 0.47200
Ho	Ho	0.73616 0.51491 0.50272 1.79500
O 	O 	0.71600 0.66670 0.60570 -0.46500
N 	N 	0.54190 0.89370 0.82590 -0.11100
C 	C 	0.59830 0.08310 0.92600 -0.16600
O 	O 	0.47330 0.60870 0.57310 -0.51700
N 	N 	0.49590 0.35060 0.81920 -0.11600
C 	C 	0.52220 0.15300 0.89780 0.21900
O 	O 	0.63550 0.43800 0.59230 -0.47300
N 	N 	0.93920 0.33570 0.13200 -0.11500
C 	C 	0.58140 0.26940 0.92190 -0.17200
O 	O 	0.38900 0.38650 0.56130 -0.48300
C 	C 	0.71810 0.31500 0.97010 0.21500
O 	O 	0.82040 0.47620 0.38683 -0.50900
C 	C 	0.79410 0.24350 0.99620 -0.16100
O 	O 	0.05320 0.46710 0.41471 -0.55700
C 	C 	0.73400 0.12790 0.97650 0.19500
C 	C 	0.52790 0.96010 0.90330 0.00500
H 	H 	0.42260 0.95160 0.90520 0.02400
H 	H 	0.57250 0.92820 0.94140 0.02300
C 	C 	0.49150 0.34550 0.89920 0.00300
H 	H 	0.38850 0.31880 0.90260 0.01500
H 	H 	0.52790 0.42220 0.93590 0.01900
C 	C 	0.94440 0.29120 0.04730 -0.00900
H 	H 	0.00080 0.23180 0.04000 0.02500
H 	H 	0.99690 0.35300 0.03150 0.01900
C 	C 	0.37930 0.10370 0.84220 -0.56900
H 	H 	0.33780 0.16430 0.83150 0.19100
H 	H 	0.39530 0.05430 0.79450 0.19300
H 	H 	0.31120 0.06010 0.86430 0.17800
C 	C 	0.78320 0.43930 0.99550 -0.57100
H 	H 	0.70860 0.48020 0.01160 0.18600
H 	H 	0.86580 0.45830 0.03850 0.18900
H 	H 	0.81760 0.46050 0.95300 0.18500
C 	C 	0.81790 0.05460 0.00850 -0.51500
H 	H 	0.86610 0.09540 0.06180 0.17000
H 	H 	0.75000 0.98550 0.00630 0.16300
H 	H 	0.89200 0.03560 0.97810 0.16100
C 	C 	0.42240 0.83310 0.77260 -0.00600
H 	H 	0.32780 0.83750 0.78300 0.02600
C 	C 	0.43590 0.76460 0.70280 -0.00300
H 	H 	0.35100 0.72400 0.66470 0.02000
C 	C 	0.57260 0.75540 0.68860 -0.11400
C 	C 	0.69630 0.82200 0.74300 -0.01800
H 	H 	0.79170 0.81980 0.73290 0.03900
C 	C 	0.67840 0.89070 0.81120 0.00600
H 	H 	0.76200 0.93640 0.84840 0.02300
C 	C 	0.58870 0.67150 0.61620 0.44500
C 	C 	0.37420 0.36010 0.77740 0.00500
H 	H 	0.28610 0.35700 0.79670 0.01800
C 	C 	0.37670 0.37440 0.70710 -0.02000
H 	H 	0.28990 0.37950 0.67700 0.04100
C 	C 	0.50600 0.38120 0.67980 -0.10000
C 	C 	0.63040 0.37050 0.72430 -0.02500
H 	H 	0.72010 0.37410 0.70650 0.04000
C 	C 	0.62270 0.35470 0.79320 0.01300
H 	H 	0.70720 0.34660 0.82340 0.02400
C 	C 	0.51210 0.40360 0.60420 0.44400
C 	C 	0.81540 0.35650 0.15460 0.00300
H 	H 	0.72850 0.34210 0.11750 0.03200
C 	C 	0.81410 0.39830 0.23100 -0.01900
H 	H 	0.72710 0.41430 0.24710 0.04500
C 	C 	0.94100 0.41720 0.28470 -0.11600
C 	C 	0.06720 0.39660 0.25950 -0.01500
H 	H 	0.15600 0.41170 0.29540 0.04700
C 	C 	0.06350 0.35380 0.18180 0.00100
H 	H 	0.14910 0.33750 0.16410 0.02600
C 	C 	0.93900 0.45800 0.37010 0.47200
