data_crystal

_cell_length_a 19.48500
_cell_length_b 7.08400
_cell_length_c 12.13400
_cell_angle_alpha 90.00000
_cell_angle_beta  103.33000
_cell_angle_gamma 90.00000

_symmetry_space_group_name_	'P 1'
_symmetry_space_group_name_H-M	'P 1'

loop_
_symmetry_equiv_pos_as_xyz
  x,y,z

loop_
_atom_site_label
_atom_site_type_symbol
_atom_site_fract_x
_atom_site_fract_y
_atom_site_fract_z
_atom_site_charge
Co	Co	0.71617 0.85665 0.86277 1.09800
O 	O 	0.68779 0.83520 0.01764 -0.44500
O 	O 	0.73958 0.08530 0.11490 -0.40400
N 	N 	0.72012 0.85480 0.51617 -0.14400
N 	N 	0.74073 0.87850 0.70310 -0.25500
N 	N 	0.50036 0.71020 0.25130 -0.14600
N 	N 	0.38464 0.73920 0.20390 -0.23900
C 	C 	0.68087 0.84170 0.40120 0.12600
C 	C 	0.61187 0.77290 0.38090 -0.18900
H 	H 	0.59240 0.73200 0.44170 0.09400
C 	C 	0.57241 0.76570 0.27020 0.12800
C 	C 	0.60151 0.81600 0.18000 -0.12600
H 	H 	0.57460 0.80500 0.10430 0.07100
C 	C 	0.67069 0.88270 0.20190 -0.03300
C 	C 	0.71007 0.89910 0.31300 -0.12700
H 	H 	0.75650 0.94920 0.32810 0.05000
C 	C 	0.69135 0.88260 0.60710 0.07500
H 	H 	0.64250 0.90230 0.60250 -0.02700
C 	C 	0.80373 0.85120 0.67150 -0.00100
H 	H 	0.84870 0.84380 0.72250 0.00300
C 	C 	0.79232 0.83640 0.55730 -0.00100
H 	H 	0.82680 0.81740 0.51430 0.01800
C 	C 	0.44492 0.81040 0.19280 0.09000
H 	H 	0.44900 0.91910 0.14890 -0.03200
C 	C 	0.40247 0.58260 0.27280 0.00300
H 	H 	0.36970 0.50010 0.29530 0.01600
C 	C 	0.47343 0.56430 0.30330 -0.00300
H 	H 	0.49940 0.46990 0.35090 0.03200
C 	C 	0.70204 0.94180 0.10500 0.26700
Co	Co	0.21617 0.35665 0.86277 1.10700
O 	O 	0.18779 0.33520 0.01764 -0.45000
O 	O 	0.23958 0.58530 0.11490 -0.46900
N 	N 	0.22012 0.35480 0.51617 -0.14000
N 	N 	0.24073 0.37850 0.70310 -0.24800
N 	N 	0.00036 0.21020 0.25130 -0.16500
N 	N 	0.88464 0.23920 0.20390 -0.22700
C 	C 	0.18087 0.34170 0.40120 0.14100
C 	C 	0.11187 0.27290 0.38090 -0.18600
H 	H 	0.09240 0.23200 0.44170 0.10400
C 	C 	0.07241 0.26570 0.27020 0.14200
C 	C 	0.10151 0.31600 0.18000 -0.11600
H 	H 	0.07460 0.30500 0.10430 0.07300
C 	C 	0.17069 0.38270 0.20190 -0.03900
C 	C 	0.21007 0.39910 0.31300 -0.11200
H 	H 	0.25650 0.44920 0.32810 0.06900
C 	C 	0.19135 0.38260 0.60710 0.08800
H 	H 	0.14250 0.40230 0.60250 -0.02300
C 	C 	0.30373 0.35120 0.67150 0.01200
H 	H 	0.34870 0.34380 0.72250 0.02300
C 	C 	0.29232 0.33640 0.55730 0.01600
H 	H 	0.32680 0.31740 0.51430 0.03400
C 	C 	0.94492 0.31040 0.19280 0.09400
H 	H 	0.94900 0.41910 0.14890 -0.02800
C 	C 	0.90247 0.08260 0.27280 -0.05700
H 	H 	0.86970 0.00010 0.29530 0.05200
C 	C 	0.97343 0.06430 0.30330 0.12500
H 	H 	0.99940 0.96990 0.35090 -0.06100
C 	C 	0.20204 0.44180 0.10500 0.34300
Co	Co	0.28383 0.85665 0.13723 1.09700
O 	O 	0.31221 0.83520 0.98236 -0.44600
O 	O 	0.26042 0.08530 0.88510 -0.40400
N 	N 	0.27988 0.85480 0.48383 -0.14400
N 	N 	0.25927 0.87850 0.29690 -0.25500
N 	N 	0.49964 0.71020 0.74870 -0.14600
N 	N 	0.61536 0.73920 0.79610 -0.23900
C 	C 	0.31913 0.84170 0.59880 0.12600
C 	C 	0.38813 0.77290 0.61910 -0.18900
H 	H 	0.40760 0.73200 0.55830 0.09400
C 	C 	0.42759 0.76570 0.72980 0.12800
C 	C 	0.39849 0.81600 0.82000 -0.12600
H 	H 	0.42540 0.80500 0.89570 0.07100
C 	C 	0.32931 0.88270 0.79810 -0.03300
C 	C 	0.28993 0.89910 0.68700 -0.12700
H 	H 	0.24350 0.94920 0.67190 0.05000
C 	C 	0.30865 0.88260 0.39290 0.07500
H 	H 	0.35750 0.90230 0.39750 -0.02700
C 	C 	0.19627 0.85120 0.32850 -0.00100
H 	H 	0.15130 0.84380 0.27750 0.00300
C 	C 	0.20768 0.83640 0.44270 -0.00100
H 	H 	0.17320 0.81740 0.48570 0.01800
C 	C 	0.55508 0.81040 0.80720 0.09000
H 	H 	0.55100 0.91910 0.85110 -0.03200
C 	C 	0.59753 0.58260 0.72720 0.00300
H 	H 	0.63030 0.50010 0.70470 0.01600
C 	C 	0.52657 0.56430 0.69670 -0.00300
H 	H 	0.50060 0.46990 0.64910 0.03200
C 	C 	0.29796 0.94180 0.89500 0.26700
Co	Co	0.78383 0.35665 0.13723 1.10700
O 	O 	0.81221 0.33520 0.98236 -0.45000
O 	O 	0.76042 0.58530 0.88510 -0.46900
N 	N 	0.77988 0.35480 0.48383 -0.14000
N 	N 	0.75927 0.37850 0.29690 -0.24800
N 	N 	0.99964 0.21020 0.74870 -0.16500
N 	N 	0.11536 0.23920 0.79610 -0.22700
C 	C 	0.81913 0.34170 0.59880 0.14100
C 	C 	0.88813 0.27290 0.61910 -0.18600
H 	H 	0.90760 0.23200 0.55830 0.10400
C 	C 	0.92759 0.26570 0.72980 0.14200
C 	C 	0.89849 0.31600 0.82000 -0.11600
H 	H 	0.92540 0.30500 0.89570 0.07300
C 	C 	0.82931 0.38270 0.79810 -0.03900
C 	C 	0.78993 0.39910 0.68700 -0.11200
H 	H 	0.74350 0.44920 0.67190 0.06900
C 	C 	0.80865 0.38260 0.39290 0.08800
H 	H 	0.85750 0.40230 0.39750 -0.02300
C 	C 	0.69627 0.35120 0.32850 0.01200
H 	H 	0.65130 0.34380 0.27750 0.02300
C 	C 	0.70768 0.33640 0.44270 0.01600
H 	H 	0.67320 0.31740 0.48570 0.03400
C 	C 	0.05508 0.31040 0.80720 0.09400
H 	H 	0.05100 0.41910 0.85110 -0.02800
C 	C 	0.09753 0.08260 0.72720 -0.05700
H 	H 	0.13030 0.00010 0.70470 0.05200
C 	C 	0.02657 0.06430 0.69670 0.12500
H 	H 	0.00060 0.96990 0.64910 -0.06100
C 	C 	0.79796 0.44180 0.89500 0.34300
