data_crystal

_cell_length_a 14.65600
_cell_length_b 14.65600
_cell_length_c 16.90500
_cell_angle_alpha 90.00000
_cell_angle_beta  90.00000
_cell_angle_gamma 120.00000

_symmetry_space_group_name_	'P 1'
_symmetry_space_group_name_H-M	'P 1'

loop_
_symmetry_equiv_pos_as_xyz
  x,y,z

loop_
_atom_site_label
_atom_site_type_symbol
_atom_site_fract_x
_atom_site_fract_y
_atom_site_fract_z
_atom_site_charge
Cu	Cu	0.11674 0.43944 0.85831 0.89600
Cu	Cu	0.32270 0.88326 0.19164 0.90800
Cu	Cu	0.56056 0.67730 0.52498 0.90400
Cu	Cu	0.88326 0.56056 0.35831 0.90800
Cu	Cu	0.67730 0.11674 0.69164 0.90200
Cu	Cu	0.43944 0.32270 0.02498 0.92400
Cu	Cu	0.67730 0.56056 0.47502 0.90300
Cu	Cu	0.43944 0.11674 0.14169 0.90700
Cu	Cu	0.88326 0.32270 0.80836 0.90600
Cu	Cu	0.32270 0.43944 0.97502 0.88400
Cu	Cu	0.56056 0.88326 0.64169 0.90600
Cu	Cu	0.11674 0.67730 0.30836 0.89900
Cu	Cu	-0.00000 0.16385 0.83333 0.91600
Cu	Cu	0.16385 1.00000 0.16667 0.94000
Cu	Cu	0.83615 0.83615 0.50000 0.93400
Cu	Cu	-0.00000 0.83615 0.33333 0.91400
Cu	Cu	0.83615 0.00000 0.66667 0.92700
Cu	Cu	0.16385 0.16385 -0.00000 0.95300
P 	P 	0.08062 0.31562 0.00577 0.43000
P 	P 	0.23500 0.91938 0.33910 0.40800
P 	P 	0.68438 0.76500 0.67244 0.40700
P 	P 	0.91938 0.68438 0.50577 0.41300
P 	P 	0.76500 0.08062 0.83910 0.47800
P 	P 	0.31562 0.23500 0.17244 0.40400
P 	P 	0.76500 0.68438 0.32756 0.40700
P 	P 	0.31562 0.08062 0.99423 0.37400
P 	P 	0.91938 0.23500 0.66090 0.41200
P 	P 	0.23500 0.31562 0.82756 0.40700
P 	P 	0.68438 0.91938 0.49423 0.41000
P 	P 	0.08062 0.76500 0.16090 0.32500
H 	H 	0.06450 0.44230 0.13160 0.03600
H 	H 	0.77400 0.31600 0.17900 -0.17300
H 	H 	0.73600 0.21300 0.07700 0.29300
H 	H 	0.85900 0.21100 0.01100 -0.05800
H 	H 	0.37780 0.93550 0.46493 0.04900
H 	H 	0.54200 0.22600 0.51233 0.07000
H 	H 	0.47700 0.26400 0.41033 0.07200
H 	H 	0.35200 0.14100 0.34433 0.06000
H 	H 	0.55770 0.62220 0.79827 0.03800
H 	H 	0.68400 0.45800 0.84567 0.01100
H 	H 	0.78700 0.52300 0.74367 0.11500
H 	H 	0.78900 0.64800 0.67767 0.03600
H 	H 	0.93550 0.55770 0.63160 0.05500
H 	H 	0.22600 0.68400 0.67900 0.19400
H 	H 	0.26400 0.78700 0.57700 -0.03700
H 	H 	0.14100 0.78900 0.51100 0.13100
H 	H 	0.62220 0.06450 0.96493 -0.16100
H 	H 	0.45800 0.77400 0.01233 -0.42100
H 	H 	0.52300 0.73600 0.91033 0.59700
H 	H 	0.64800 0.85900 0.84433 -0.36600
H 	H 	0.44230 0.37780 0.29827 0.04800
H 	H 	0.31600 0.54200 0.34567 0.00600
H 	H 	0.21300 0.47700 0.24367 0.12300
H 	H 	0.21100 0.35200 0.17767 0.02600
H 	H 	0.62220 0.55770 0.20173 0.04100
H 	H 	0.45800 0.68400 0.15433 -0.00600
H 	H 	0.52300 0.78700 0.25633 0.14700
H 	H 	0.64800 0.78900 0.32233 0.01000
H 	H 	0.44230 0.06450 0.86840 0.04100
H 	H 	0.31600 0.77400 0.82100 -0.05800
H 	H 	0.21300 0.73600 0.92300 0.16300
H 	H 	0.21100 0.85900 0.98900 -0.02700
H 	H 	0.93550 0.37780 0.53507 0.05400
H 	H 	0.22600 0.54200 0.48767 0.18300
H 	H 	0.26400 0.47700 0.58967 -0.02700
H 	H 	0.14100 0.35200 0.65567 0.12500
H 	H 	0.37780 0.44230 0.70173 0.04500
H 	H 	0.54200 0.31600 0.65433 0.00400
H 	H 	0.47700 0.21300 0.75633 0.12600
H 	H 	0.35200 0.21100 0.82233 0.02300
H 	H 	0.55770 0.93550 0.36840 0.04400
H 	H 	0.68400 0.22600 0.32100 0.07800
H 	H 	0.78700 0.26400 0.42300 0.06800
H 	H 	0.78900 0.14100 0.48900 0.06400
H 	H 	0.06450 0.62220 0.03507 0.22800
H 	H 	0.77400 0.45800 0.98767 0.16400
H 	H 	0.73600 0.52300 0.08967 -0.11200
H 	H 	0.85900 0.64800 0.15567 0.26600
C 	C 	0.97940 0.32220 0.06460 -0.10100
C 	C 	0.00460 0.39710 0.12490 0.03900
C 	C 	0.92510 0.39510 0.17090 -0.22400
C 	C 	0.81910 0.31690 0.15730 0.47100
C 	C 	0.79480 0.24540 0.09730 -0.53800
C 	C 	0.87430 0.24720 0.05020 0.30500
C 	C 	0.95000 0.47760 0.23390 0.44800
C 	C 	0.34280 0.02060 0.39793 -0.06600
C 	C 	0.39250 0.99540 0.45823 0.02600
C 	C 	0.47000 0.07490 0.50423 -0.07400
C 	C 	0.49780 0.18090 0.49063 -0.03000
C 	C 	0.45060 0.20520 0.43063 -0.06300
C 	C 	0.37290 0.12570 0.38353 -0.01800
C 	C 	0.52760 0.05000 0.56723 0.32600
C 	C 	0.67780 0.65720 0.73127 -0.06500
C 	C 	0.60290 0.60750 0.79157 0.02900
C 	C 	0.60490 0.53000 0.83757 -0.11200
C 	C 	0.68310 0.50220 0.82397 0.07900
C 	C 	0.75460 0.54940 0.76397 -0.16000
C 	C 	0.75280 0.62710 0.71687 0.04700
C 	C 	0.52240 0.47240 0.90057 0.35800
C 	C 	0.02060 0.67780 0.56460 -0.04000
C 	C 	0.99540 0.60290 0.62490 0.02000
C 	C 	0.07490 0.60490 0.67090 0.00400
C 	C 	0.18090 0.68310 0.65730 -0.28500
C 	C 	0.20520 0.75460 0.59730 0.18500
C 	C 	0.12570 0.75280 0.55020 -0.18500
C 	C 	0.05000 0.52240 0.73390 0.26900
C 	C 	0.65720 0.97940 0.89793 -0.48200
C 	C 	0.60750 0.00460 0.95823 0.46700
C 	C 	0.53000 0.92510 0.00423 -0.52800
C 	C 	0.50220 0.81910 0.99063 1.04800
C 	C 	0.54940 0.79480 0.93063 -1.28900
C 	C 	0.62710 0.87430 0.88353 0.95200
C 	C 	0.47240 0.95000 0.06723 0.53600
C 	C 	0.32220 0.34280 0.23127 -0.07300
C 	C 	0.39710 0.39250 0.29157 0.02400
C 	C 	0.39510 0.47000 0.33757 -0.11200
C 	C 	0.31690 0.49780 0.32397 0.09300
C 	C 	0.24540 0.45060 0.26397 -0.18300
C 	C 	0.24720 0.37290 0.21687 0.05900
C 	C 	0.47760 0.52760 0.40057 0.35700
C 	C 	0.65720 0.67780 0.26873 -0.09100
C 	C 	0.60750 0.60290 0.20843 0.05000
C 	C 	0.53000 0.60490 0.16243 -0.12700
C 	C 	0.50220 0.68310 0.17603 0.14800
C 	C 	0.54940 0.75460 0.23603 -0.23000
C 	C 	0.62710 0.75280 0.28313 0.10700
C 	C 	0.47240 0.52240 0.09943 0.36700
C 	C 	0.32220 0.97940 0.93540 -0.09300
C 	C 	0.39710 0.00460 0.87510 0.03100
C 	C 	0.39510 0.92510 0.82910 -0.15600
C 	C 	0.31690 0.81910 0.84270 0.21600
C 	C 	0.24540 0.79480 0.90270 -0.30600
C 	C 	0.24720 0.87430 0.94980 0.14100
C 	C 	0.47760 0.95000 0.76610 0.39000
C 	C 	0.02060 0.34280 0.60207 -0.04300
C 	C 	0.99540 0.39250 0.54177 0.02000
C 	C 	0.07490 0.47000 0.49577 -0.00300
C 	C 	0.18090 0.49780 0.50937 -0.26200
C 	C 	0.20520 0.45060 0.56937 0.16100
C 	C 	0.12570 0.37290 0.61647 -0.17000
C 	C 	0.05000 0.52760 0.43277 0.27000
C 	C 	0.34280 0.32220 0.76873 -0.07800
C 	C 	0.39250 0.39710 0.70843 0.02800
C 	C 	0.47000 0.39510 0.66243 -0.11500
C 	C 	0.49780 0.31690 0.67603 0.10000
C 	C 	0.45060 0.24540 0.73603 -0.18900
C 	C 	0.37290 0.24720 0.78313 0.06500
C 	C 	0.52760 0.47760 0.59943 0.35800
C 	C 	0.67780 0.02060 0.43540 -0.06700
C 	C 	0.60290 0.99540 0.37510 0.03600
C 	C 	0.60490 0.07490 0.32910 -0.07300
C 	C 	0.68310 0.18090 0.34270 -0.03800
C 	C 	0.75460 0.20520 0.40270 -0.05100
C 	C 	0.75280 0.12570 0.44980 -0.02000
C 	C 	0.52240 0.05000 0.26610 0.32600
C 	C 	0.97940 0.65720 0.10207 0.28000
C 	C 	0.00460 0.60750 0.04177 -0.37800
C 	C 	0.92510 0.53000 0.99577 0.12500
C 	C 	0.81910 0.50220 0.00937 -0.29500
C 	C 	0.79480 0.54940 0.06937 0.38700
C 	C 	0.87430 0.62710 0.11647 -0.45600
C 	C 	0.95000 0.47240 0.93277 0.31300
O 	O 	0.04650 0.30180 0.91750 -0.50200
O 	O 	0.18820 0.41460 0.01900 -0.37800
O 	O 	0.07890 0.21700 0.03650 -0.36300
O 	O 	0.04670 0.54780 0.24420 -0.45600
O 	O 	0.87200 0.47290 0.26990 -0.42000
O 	O 	0.25530 0.95350 0.25083 -0.45800
O 	O 	0.22640 0.81180 0.35233 -0.39800
O 	O 	0.13810 0.92110 0.36983 -0.37100
O 	O 	0.50110 0.95330 0.57753 -0.38800
O 	O 	0.60090 0.12800 0.60323 -0.39800
O 	O 	0.69820 0.74470 0.58417 -0.46400
O 	O 	0.58540 0.77360 0.68567 -0.38800
O 	O 	0.78300 0.86190 0.70317 -0.34500
O 	O 	0.45220 0.49890 0.91087 -0.42500
O 	O 	0.52710 0.39910 0.93657 -0.42200
O 	O 	0.95350 0.69820 0.41750 -0.44700
O 	O 	0.81180 0.58540 0.51900 -0.39400
O 	O 	0.92110 0.78300 0.53650 -0.35100
O 	O 	0.95330 0.45220 0.74420 -0.36100
O 	O 	0.12800 0.52710 0.76990 -0.38800
O 	O 	0.74470 0.04650 0.75083 -0.47300
O 	O 	0.77360 0.18820 0.85233 -0.40200
O 	O 	0.86190 0.07890 0.86983 -0.36400
O 	O 	0.49890 0.04670 0.07753 -0.44500
O 	O 	0.39910 0.87200 0.10323 -0.43600
O 	O 	0.30180 0.25530 0.08417 -0.45300
O 	O 	0.41460 0.22640 0.18567 -0.39100
O 	O 	0.21700 0.13810 0.20317 -0.36900
O 	O 	0.54780 0.50110 0.41087 -0.40700
O 	O 	0.47290 0.60090 0.43657 -0.40600
O 	O 	0.74470 0.69820 0.41583 -0.46300
O 	O 	0.77360 0.58540 0.31433 -0.39300
O 	O 	0.86190 0.78300 0.29683 -0.34600
O 	O 	0.49890 0.45220 0.08913 -0.39400
O 	O 	0.39910 0.52710 0.06343 -0.38300
O 	O 	0.30180 0.04650 0.08250 -0.44400
O 	O 	0.41460 0.18820 0.98100 -0.40900
O 	O 	0.21700 0.07890 0.96350 -0.38100
O 	O 	0.54780 0.04670 0.75580 -0.42300
O 	O 	0.47290 0.87200 0.73010 -0.41300
O 	O 	0.95350 0.25530 0.74917 -0.44800
O 	O 	0.81180 0.22640 0.64767 -0.39600
O 	O 	0.92110 0.13810 0.63017 -0.35800
O 	O 	0.95330 0.50110 0.42247 -0.36100
O 	O 	0.12800 0.60090 0.39677 -0.38700
O 	O 	0.25530 0.30180 0.91583 -0.47900
O 	O 	0.22640 0.41460 0.81433 -0.40200
O 	O 	0.13810 0.21700 0.79683 -0.37400
O 	O 	0.50110 0.54780 0.58913 -0.40700
O 	O 	0.60090 0.47290 0.56343 -0.40500
O 	O 	0.69820 0.95350 0.58250 -0.45600
O 	O 	0.58540 0.81180 0.48100 -0.39400
O 	O 	0.78300 0.92110 0.46350 -0.35400
O 	O 	0.45220 0.95330 0.25580 -0.39000
O 	O 	0.52710 0.12800 0.23010 -0.39300
O 	O 	0.04650 0.74470 0.24917 -0.47200
O 	O 	0.18820 0.77360 0.14767 -0.37800
O 	O 	0.07890 0.86190 0.13017 -0.35000
O 	O 	0.04670 0.49890 0.92247 -0.43700
O 	O 	0.87200 0.39910 0.89677 -0.39700
O 	O 	0.03380 0.06760 0.91667 -0.29000
O 	O 	0.03380 0.96620 0.25000 -0.26900
O 	O 	0.93240 0.96620 0.58333 -0.23900
O 	O 	0.96620 0.93240 0.41667 -0.23200
O 	O 	0.96620 0.03380 0.75000 -0.24600
O 	O 	0.06760 0.03380 0.08333 -0.26000
