data_crystal

_cell_length_a 30.29490
_cell_length_b 30.29490
_cell_length_c 30.29490
_cell_angle_alpha 60.00000
_cell_angle_beta  60.00000
_cell_angle_gamma 60.00000

_symmetry_space_group_name_	'P 1'
_symmetry_space_group_name_H-M	'P 1'

loop_
_symmetry_equiv_pos_as_xyz
  x,y,z

loop_
_atom_site_label
_atom_site_type_symbol
_atom_site_fract_x
_atom_site_fract_y
_atom_site_fract_z
_atom_site_charge
Zn	Zn	0.74227 0.00000 -0.00000 1.11200
Zn	Zn	0.64221 0.00000 -0.00000 1.11100
Zn	Zn	-0.00000 0.74227 0.25773 1.19100
Zn	Zn	1.00000 0.64221 0.35779 1.21300
Zn	Zn	-0.00000 0.25773 0.74227 1.19000
Zn	Zn	1.00000 0.35779 0.64221 1.21200
Zn	Zn	0.25773 0.00000 -0.00000 1.10900
Zn	Zn	0.35779 0.00000 -0.00000 1.11000
Zn	Zn	0.74227 0.00000 0.25773 1.15400
Zn	Zn	0.64221 0.00000 0.35779 1.15600
Zn	Zn	1.00000 0.25773 -0.00000 1.16500
Zn	Zn	1.00000 0.35779 -0.00000 1.16800
Zn	Zn	-0.00000 0.74227 -0.00000 1.14900
Zn	Zn	1.00000 0.64221 -0.00000 1.16800
Zn	Zn	0.25773 -0.00000 0.74227 1.15800
Zn	Zn	0.35779 0.00000 0.64221 1.15600
Zn	Zn	0.74227 0.25773 -0.00000 1.15300
Zn	Zn	0.64221 0.35779 -0.00000 1.15600
Zn	Zn	-0.00000 -0.00000 0.74227 1.14800
Zn	Zn	0.00000 0.00000 0.64221 1.14500
Zn	Zn	1.00000 0.00000 0.25773 1.16500
Zn	Zn	0.00000 0.00000 0.35779 1.14400
Zn	Zn	0.25773 0.74227 -0.00000 1.15900
Zn	Zn	0.35779 0.64221 -0.00000 1.15600
H 	H 	0.55830 0.96610 0.17070 0.04000
H 	H 	0.96610 0.55830 0.30490 0.03200
H 	H 	0.17070 0.30490 0.55830 0.02400
H 	H 	0.30490 0.17070 0.96610 0.03800
H 	H 	0.55830 0.17070 0.30490 0.01500
H 	H 	0.96610 0.30490 0.17070 0.02000
H 	H 	0.17070 0.55830 0.96610 0.04800
H 	H 	0.30490 0.96610 0.55830 0.05100
H 	H 	0.55830 0.30490 0.96610 0.04900
H 	H 	0.96610 0.17070 0.55830 0.02400
H 	H 	0.17070 0.96610 0.30490 0.04600
H 	H 	0.30490 0.55830 0.17070 0.01800
H 	H 	0.03390 0.44170 0.82930 0.04200
H 	H 	0.44170 0.03390 0.69510 0.01900
H 	H 	0.69510 0.82930 0.44170 0.04800
H 	H 	0.82930 0.69510 0.03390 0.02200
H 	H 	0.82930 0.44170 0.69510 0.03900
H 	H 	0.69510 0.03390 0.82930 0.03100
H 	H 	0.44170 0.82930 0.03390 0.03000
H 	H 	0.03390 0.69510 0.44170 0.03200
H 	H 	0.69510 0.44170 0.03390 0.01500
H 	H 	0.82930 0.03390 0.44170 0.01800
H 	H 	0.03390 0.82930 0.69510 0.04700
H 	H 	0.44170 0.69510 0.82930 0.05100
H 	H 	0.44170 0.03390 0.82930 0.03000
H 	H 	0.03390 0.44170 0.69510 0.03200
H 	H 	0.82930 0.69510 0.44170 0.03900
H 	H 	0.69510 0.82930 0.03390 0.03100
H 	H 	0.44170 0.82930 0.69510 0.05100
H 	H 	0.03390 0.69510 0.82930 0.04700
H 	H 	0.82930 0.44170 0.03390 0.01800
H 	H 	0.69510 0.03390 0.44170 0.01600
H 	H 	0.44170 0.69510 0.03390 0.01900
H 	H 	0.03390 0.82930 0.44170 0.04300
H 	H 	0.82930 0.03390 0.69510 0.02300
H 	H 	0.69510 0.44170 0.82930 0.04800
H 	H 	0.96610 0.55830 0.17070 0.02300
H 	H 	0.55830 0.96610 0.30490 0.04900
H 	H 	0.30490 0.17070 0.55830 0.01800
H 	H 	0.17070 0.30490 0.96610 0.04500
H 	H 	0.17070 0.55830 0.30490 0.02400
H 	H 	0.30490 0.96610 0.17070 0.03900
H 	H 	0.55830 0.17070 0.96610 0.04000
H 	H 	0.96610 0.30490 0.55830 0.03300
H 	H 	0.30490 0.55830 0.96610 0.05100
H 	H 	0.17070 0.96610 0.55830 0.04900
H 	H 	0.96610 0.17070 0.30490 0.02000
H 	H 	0.55830 0.30490 0.17070 0.01500
H 	H 	0.68650 0.98250 0.16550 0.03400
H 	H 	0.98250 0.68650 0.16550 0.01600
H 	H 	0.16550 0.16550 0.68650 0.00600
H 	H 	0.16550 0.16550 0.98250 0.02900
H 	H 	0.68650 0.16550 0.16550 -0.00800
H 	H 	0.98250 0.16550 0.16550 -0.00200
H 	H 	0.16550 0.68650 0.98250 0.04600
H 	H 	0.16550 0.98250 0.68650 0.04700
H 	H 	0.68650 0.16550 0.98250 0.03400
H 	H 	0.98250 0.16550 0.68650 0.01600
H 	H 	0.16550 0.98250 0.16550 0.02900
H 	H 	0.16550 0.68650 0.16550 0.00600
H 	H 	0.01750 0.31350 0.83450 0.02400
H 	H 	0.31350 0.01750 0.83450 0.01000
H 	H 	0.83450 0.83450 0.31350 0.03300
H 	H 	0.83450 0.83450 0.01750 0.01500
H 	H 	0.83450 0.31350 0.83450 0.03400
H 	H 	0.83450 0.01750 0.83450 0.01500
H 	H 	0.31350 0.83450 0.01750 0.01000
H 	H 	0.01750 0.83450 0.31350 0.02400
H 	H 	0.83450 0.31350 0.01750 -0.00600
H 	H 	0.83450 0.01750 0.31350 -0.00500
H 	H 	0.01750 0.83450 0.83450 0.04300
H 	H 	0.31350 0.83450 0.83450 0.04800
H 	H 	0.39940 0.93560 0.26560 0.10100
H 	H 	0.93560 0.39940 0.39940 0.09900
H 	H 	0.26560 0.39940 0.39940 0.09500
H 	H 	0.39940 0.26560 0.93560 0.10100
H 	H 	0.39940 0.26560 0.39940 0.09000
H 	H 	0.93560 0.39940 0.26560 0.09300
H 	H 	0.26560 0.39940 0.93560 0.10500
H 	H 	0.39940 0.93560 0.39940 0.10700
H 	H 	0.39940 0.39940 0.93560 0.10700
H 	H 	0.93560 0.26560 0.39940 0.09300
H 	H 	0.26560 0.93560 0.39940 0.10600
H 	H 	0.39940 0.39940 0.26560 0.09000
H 	H 	0.06440 0.60060 0.73440 0.10400
H 	H 	0.60060 0.06440 0.60060 0.09100
H 	H 	0.60060 0.73440 0.60060 0.10700
H 	H 	0.73440 0.60060 0.06440 0.09200
H 	H 	0.73440 0.60060 0.60060 0.10200
H 	H 	0.60060 0.06440 0.73440 0.09700
H 	H 	0.60060 0.73440 0.06440 0.09700
H 	H 	0.06440 0.60060 0.60060 0.09800
H 	H 	0.60060 0.60060 0.06440 0.09100
H 	H 	0.73440 0.06440 0.60060 0.09200
H 	H 	0.06440 0.73440 0.60060 0.10500
H 	H 	0.60060 0.60060 0.73440 0.10700
C 	C 	0.64967 0.98363 0.10243 0.42600
C 	C 	0.62484 0.97734 0.15978 -0.13600
C 	C 	0.57524 0.96844 0.18832 0.02400
C 	C 	0.98363 0.64967 0.26427 0.43700
C 	C 	0.97734 0.62484 0.23804 -0.15700
C 	C 	0.96844 0.57524 0.26800 0.03300
C 	C 	0.10243 0.26427 0.64967 0.44200
C 	C 	0.15978 0.23804 0.62484 -0.17200
C 	C 	0.18832 0.26800 0.57524 0.03700
C 	C 	0.26427 0.10243 0.98363 0.42700
C 	C 	0.23804 0.15978 0.97734 -0.14000
C 	C 	0.26800 0.18832 0.96844 0.02600
C 	C 	0.64967 0.10243 0.26427 0.44500
C 	C 	0.62484 0.15978 0.23804 -0.18800
C 	C 	0.57524 0.18832 0.26800 0.04200
C 	C 	0.98363 0.26427 0.10243 0.44400
C 	C 	0.97734 0.23804 0.15978 -0.18000
C 	C 	0.96844 0.26800 0.18832 0.04000
C 	C 	0.10243 0.64967 0.98363 0.42300
C 	C 	0.15978 0.62484 0.97734 -0.12000
C 	C 	0.18832 0.57524 0.96844 0.01900
C 	C 	0.26427 0.98363 0.64967 0.42100
C 	C 	0.23804 0.97734 0.62484 -0.11700
C 	C 	0.26800 0.96844 0.57524 0.01800
C 	C 	0.64967 0.26427 0.98363 0.42400
C 	C 	0.62484 0.23804 0.97734 -0.12700
C 	C 	0.57524 0.26800 0.96844 0.02300
C 	C 	0.98363 0.10243 0.64967 0.43700
C 	C 	0.97734 0.15978 0.62484 -0.16400
C 	C 	0.96844 0.18832 0.57524 0.03300
C 	C 	0.10243 0.98363 0.26427 0.42700
C 	C 	0.15978 0.97734 0.23804 -0.13300
C 	C 	0.18832 0.96844 0.26800 0.02500
C 	C 	0.26427 0.64967 0.10243 0.44200
C 	C 	0.23804 0.62484 0.15978 -0.17800
C 	C 	0.26800 0.57524 0.18832 0.03800
C 	C 	0.01637 0.35033 0.89757 0.42900
C 	C 	0.02266 0.37516 0.84022 -0.14100
C 	C 	0.03156 0.42476 0.81168 0.02800
C 	C 	0.35033 0.01637 0.73573 0.44100
C 	C 	0.37516 0.02266 0.76196 -0.17300
C 	C 	0.42476 0.03156 0.73200 0.03500
C 	C 	0.73573 0.89757 0.35033 0.42400
C 	C 	0.76196 0.84022 0.37516 -0.12900
C 	C 	0.73200 0.81168 0.42476 0.02400
C 	C 	0.89757 0.73573 0.01637 0.43800
C 	C 	0.84022 0.76196 0.02266 -0.16700
C 	C 	0.81168 0.73200 0.03156 0.03200
C 	C 	0.89757 0.35033 0.73573 0.43500
C 	C 	0.84022 0.37516 0.76196 -0.13900
C 	C 	0.81168 0.42476 0.73200 0.02600
C 	C 	0.73573 0.01637 0.89757 0.42700
C 	C 	0.76196 0.02266 0.84022 -0.15600
C 	C 	0.73200 0.03156 0.81168 0.02900
C 	C 	0.35033 0.89757 0.01637 0.42900
C 	C 	0.37516 0.84022 0.02266 -0.16000
C 	C 	0.42476 0.81168 0.03156 0.03200
C 	C 	0.01637 0.73573 0.35033 0.44000
C 	C 	0.02266 0.76196 0.37516 -0.15200
C 	C 	0.03156 0.73200 0.42476 0.03100
C 	C 	0.73573 0.35033 0.01637 0.44500
C 	C 	0.76196 0.37516 0.02266 -0.18600
C 	C 	0.73200 0.42476 0.03156 0.04100
C 	C 	0.89757 0.01637 0.35033 0.44300
C 	C 	0.84022 0.02266 0.37516 -0.18300
C 	C 	0.81168 0.03156 0.42476 0.04100
C 	C 	0.01637 0.89757 0.73573 0.42200
C 	C 	0.02266 0.84022 0.76196 -0.12300
C 	C 	0.03156 0.81168 0.73200 0.01900
C 	C 	0.35033 0.73573 0.89757 0.42100
C 	C 	0.37516 0.76196 0.84022 -0.11600
C 	C 	0.42476 0.73200 0.81168 0.01700
C 	C 	0.35033 0.01637 0.89757 0.42900
C 	C 	0.37516 0.02266 0.84022 -0.16000
C 	C 	0.42476 0.03156 0.81168 0.03200
C 	C 	0.01637 0.35033 0.73573 0.44000
C 	C 	0.02266 0.37516 0.76196 -0.15300
C 	C 	0.03156 0.42476 0.73200 0.03100
C 	C 	0.89757 0.73573 0.35033 0.43500
C 	C 	0.84022 0.76196 0.37516 -0.13900
C 	C 	0.81168 0.73200 0.42476 0.02600
C 	C 	0.73573 0.89757 0.01637 0.42800
C 	C 	0.76196 0.84022 0.02266 -0.15600
C 	C 	0.73200 0.81168 0.03156 0.03000
C 	C 	0.35033 0.89757 0.73573 0.42100
C 	C 	0.37516 0.84022 0.76196 -0.11600
C 	C 	0.42476 0.81168 0.73200 0.01700
C 	C 	0.01637 0.73573 0.89757 0.42300
C 	C 	0.02266 0.76196 0.84022 -0.12400
C 	C 	0.03156 0.73200 0.81168 0.02000
C 	C 	0.89757 0.35033 0.01637 0.44400
C 	C 	0.84022 0.37516 0.02266 -0.18400
C 	C 	0.81168 0.42476 0.03156 0.04100
C 	C 	0.73573 0.01637 0.35033 0.44500
C 	C 	0.76196 0.02266 0.37516 -0.18600
C 	C 	0.73200 0.03156 0.42476 0.04100
C 	C 	0.35033 0.73573 0.01637 0.44100
C 	C 	0.37516 0.76196 0.02266 -0.17300
C 	C 	0.42476 0.73200 0.03156 0.03400
C 	C 	0.01637 0.89757 0.35033 0.42800
C 	C 	0.02266 0.84022 0.37516 -0.14000
C 	C 	0.03156 0.81168 0.42476 0.02800
C 	C 	0.89757 0.01637 0.73573 0.43600
C 	C 	0.84022 0.02266 0.76196 -0.16500
C 	C 	0.81168 0.03156 0.73200 0.03200
C 	C 	0.73573 0.35033 0.89757 0.42400
C 	C 	0.76196 0.37516 0.84022 -0.12800
C 	C 	0.73200 0.42476 0.81168 0.02400
C 	C 	0.98363 0.64967 0.10243 0.43900
C 	C 	0.97734 0.62484 0.15978 -0.16600
C 	C 	0.96844 0.57524 0.18832 0.03400
C 	C 	0.64967 0.98363 0.26427 0.42400
C 	C 	0.62484 0.97734 0.23804 -0.12700
C 	C 	0.57524 0.96844 0.26800 0.02300
C 	C 	0.26427 0.10243 0.64967 0.44200
C 	C 	0.23804 0.15978 0.62484 -0.17800
C 	C 	0.26800 0.18832 0.57524 0.03800
C 	C 	0.10243 0.26427 0.98363 0.42800
C 	C 	0.15978 0.23804 0.97734 -0.13500
C 	C 	0.18832 0.26800 0.96844 0.02600
C 	C 	0.10243 0.64967 0.26427 0.44200
C 	C 	0.15978 0.62484 0.23804 -0.17100
C 	C 	0.18832 0.57524 0.26800 0.03700
C 	C 	0.26427 0.98363 0.10243 0.42700
C 	C 	0.23804 0.97734 0.15978 -0.14000
C 	C 	0.26800 0.96844 0.18832 0.02500
C 	C 	0.64967 0.10243 0.98363 0.42600
C 	C 	0.62484 0.15978 0.97734 -0.13600
C 	C 	0.57524 0.18832 0.96844 0.02400
C 	C 	0.98363 0.26427 0.64967 0.43700
C 	C 	0.97734 0.23804 0.62484 -0.15600
C 	C 	0.96844 0.26800 0.57524 0.03200
C 	C 	0.26427 0.64967 0.98363 0.42100
C 	C 	0.23804 0.62484 0.97734 -0.11800
C 	C 	0.26800 0.57524 0.96844 0.01900
C 	C 	0.10243 0.98363 0.64967 0.42200
C 	C 	0.15978 0.97734 0.62484 -0.11900
C 	C 	0.18832 0.96844 0.57524 0.01900
C 	C 	0.98363 0.10243 0.26427 0.44300
C 	C 	0.97734 0.15978 0.23804 -0.18000
C 	C 	0.96844 0.18832 0.26800 0.04000
C 	C 	0.64967 0.26427 0.10243 0.44500
C 	C 	0.62484 0.23804 0.15978 -0.18800
C 	C 	0.57524 0.26800 0.18832 0.04200
C 	C 	0.65140 0.97952 0.18454 0.08200
C 	C 	0.55124 0.96316 0.24280 -0.02400
C 	C 	0.50314 0.95506 0.27090 0.02900
C 	C 	0.45970 0.94810 0.29610 -0.05800
C 	C 	0.40526 0.94014 0.32730 0.13700
C 	C 	0.97952 0.65140 0.18454 0.09500
C 	C 	0.96316 0.55124 0.24280 -0.04500
C 	C 	0.95506 0.50314 0.27090 0.02400
C 	C 	0.94810 0.45970 0.29610 -0.07400
C 	C 	0.94014 0.40526 0.32730 0.13000
C 	C 	0.18454 0.18454 0.65140 0.10000
C 	C 	0.24280 0.24280 0.55124 -0.05400
C 	C 	0.27090 0.27090 0.50314 0.02200
C 	C 	0.29610 0.29610 0.45970 -0.08100
C 	C 	0.32730 0.32730 0.40526 0.12700
C 	C 	0.18454 0.18454 0.97952 0.08500
C 	C 	0.24280 0.24280 0.96316 -0.02800
C 	C 	0.27090 0.27090 0.95506 0.02900
C 	C 	0.29610 0.29610 0.94810 -0.06000
C 	C 	0.32730 0.32730 0.94014 0.13600
C 	C 	0.65140 0.18454 0.18454 0.10600
C 	C 	0.55124 0.24280 0.24280 -0.06300
C 	C 	0.50314 0.27090 0.27090 0.02100
C 	C 	0.45970 0.29610 0.29610 -0.08500
C 	C 	0.40526 0.32730 0.32730 0.12600
C 	C 	0.97952 0.18454 0.18454 0.10400
C 	C 	0.96316 0.24280 0.24280 -0.05600
C 	C 	0.95506 0.27090 0.27090 0.02300
C 	C 	0.94810 0.29610 0.29610 -0.08000
C 	C 	0.94014 0.32730 0.32730 0.12900
C 	C 	0.18454 0.65140 0.97952 0.07600
C 	C 	0.24280 0.55124 0.96316 -0.01600
C 	C 	0.27090 0.50314 0.95506 0.03000
C 	C 	0.29610 0.45970 0.94810 -0.05400
C 	C 	0.32730 0.40526 0.94014 0.13700
C 	C 	0.18454 0.97952 0.65140 0.07600
C 	C 	0.24280 0.96316 0.55124 -0.01600
C 	C 	0.27090 0.95506 0.50314 0.03000
C 	C 	0.29610 0.94810 0.45970 -0.05400
C 	C 	0.32730 0.94014 0.40526 0.13700
C 	C 	0.65140 0.18454 0.97952 0.08200
C 	C 	0.55124 0.24280 0.96316 -0.02400
C 	C 	0.50314 0.27090 0.95506 0.02900
C 	C 	0.45970 0.29610 0.94810 -0.05800
C 	C 	0.40526 0.32730 0.94014 0.13700
C 	C 	0.97952 0.18454 0.65140 0.09400
C 	C 	0.96316 0.24280 0.55124 -0.04400
C 	C 	0.95506 0.27090 0.50314 0.02400
C 	C 	0.94810 0.29610 0.45970 -0.07400
C 	C 	0.94014 0.32730 0.40526 0.13000
C 	C 	0.18454 0.97952 0.18454 0.08400
C 	C 	0.24280 0.96316 0.24280 -0.02700
C 	C 	0.27090 0.95506 0.27090 0.02900
C 	C 	0.29610 0.94810 0.29610 -0.06000
C 	C 	0.32730 0.94014 0.32730 0.13700
C 	C 	0.18454 0.65140 0.18454 0.10000
C 	C 	0.24280 0.55124 0.24280 -0.05400
C 	C 	0.27090 0.50314 0.27090 0.02100
C 	C 	0.29610 0.45970 0.29610 -0.08100
C 	C 	0.32730 0.40526 0.32730 0.12700
C 	C 	0.02048 0.34860 0.81546 0.09000
C 	C 	0.03684 0.44876 0.75720 -0.03400
C 	C 	0.04494 0.49686 0.72910 0.02800
C 	C 	0.05190 0.54030 0.70390 -0.06500
C 	C 	0.05986 0.59474 0.67270 0.13500
C 	C 	0.34860 0.02048 0.81546 0.09500
C 	C 	0.44876 0.03684 0.75720 -0.04900
C 	C 	0.49686 0.04494 0.72910 0.02100
C 	C 	0.54030 0.05190 0.70390 -0.07800
C 	C 	0.59474 0.05986 0.67270 0.12800
C 	C 	0.81546 0.81546 0.34860 0.08400
C 	C 	0.75720 0.75720 0.44876 -0.02500
C 	C 	0.72910 0.72910 0.49686 0.03000
C 	C 	0.70390 0.70390 0.54030 -0.05900
C 	C 	0.67270 0.67270 0.59474 0.13700
C 	C 	0.81546 0.81546 0.02048 0.09200
C 	C 	0.75720 0.75720 0.03684 -0.04600
C 	C 	0.72910 0.72910 0.04494 0.02100
C 	C 	0.70390 0.70390 0.05190 -0.07600
C 	C 	0.67270 0.67270 0.05986 0.12800
C 	C 	0.81546 0.34860 0.81546 0.08400
C 	C 	0.75720 0.44876 0.75720 -0.02500
C 	C 	0.72910 0.49686 0.72910 0.03000
C 	C 	0.70390 0.54030 0.70390 -0.05900
C 	C 	0.67270 0.59474 0.67270 0.13700
C 	C 	0.81546 0.02048 0.81546 0.09100
C 	C 	0.75720 0.03684 0.75720 -0.04500
C 	C 	0.72910 0.04494 0.72910 0.02100
C 	C 	0.70390 0.05190 0.70390 -0.07600
C 	C 	0.67270 0.05986 0.67270 0.12800
C 	C 	0.34860 0.81546 0.02048 0.09500
C 	C 	0.44876 0.75720 0.03684 -0.04900
C 	C 	0.49686 0.72910 0.04494 0.02100
C 	C 	0.54030 0.70390 0.05190 -0.07800
C 	C 	0.59474 0.67270 0.05986 0.12800
C 	C 	0.02048 0.81546 0.34860 0.09000
C 	C 	0.03684 0.75720 0.44876 -0.03400
C 	C 	0.04494 0.72910 0.49686 0.02800
C 	C 	0.05190 0.70390 0.54030 -0.06400
C 	C 	0.05986 0.67270 0.59474 0.13500
C 	C 	0.81546 0.34860 0.02048 0.10500
C 	C 	0.75720 0.44876 0.03684 -0.06000
C 	C 	0.72910 0.49686 0.04494 0.02100
C 	C 	0.70390 0.54030 0.05190 -0.08300
C 	C 	0.67270 0.59474 0.05986 0.12700
C 	C 	0.81546 0.02048 0.34860 0.10500
C 	C 	0.75720 0.03684 0.44876 -0.06000
C 	C 	0.72910 0.04494 0.49686 0.02100
C 	C 	0.70390 0.05190 0.54030 -0.08300
C 	C 	0.67270 0.05986 0.59474 0.12700
C 	C 	0.02048 0.81546 0.81546 0.07700
C 	C 	0.03684 0.75720 0.75720 -0.02000
C 	C 	0.04494 0.72910 0.72910 0.02800
C 	C 	0.05190 0.70390 0.70390 -0.05800
C 	C 	0.05986 0.67270 0.67270 0.13600
C 	C 	0.34860 0.81546 0.81546 0.07400
C 	C 	0.44876 0.75720 0.75720 -0.01400
C 	C 	0.49686 0.72910 0.72910 0.03000
C 	C 	0.54030 0.70390 0.70390 -0.05400
C 	C 	0.59474 0.67270 0.67270 0.13800
C 	C 	0.38050 0.93830 0.30070 -0.18800
C 	C 	0.93830 0.38050 0.38050 -0.19200
C 	C 	0.30070 0.38050 0.38050 -0.19400
C 	C 	0.38050 0.30070 0.93830 -0.18800
C 	C 	0.38050 0.30070 0.38050 -0.19500
C 	C 	0.93830 0.38050 0.30070 -0.19300
C 	C 	0.30070 0.38050 0.93830 -0.18800
C 	C 	0.38050 0.93830 0.38050 -0.18700
C 	C 	0.38050 0.38050 0.93830 -0.18700
C 	C 	0.93830 0.30070 0.38050 -0.19300
C 	C 	0.30070 0.93830 0.38050 -0.18700
C 	C 	0.38050 0.38050 0.30070 -0.19500
C 	C 	0.06170 0.61950 0.69930 -0.18900
C 	C 	0.61950 0.06170 0.61950 -0.19400
C 	C 	0.61950 0.69930 0.61950 -0.18800
C 	C 	0.69930 0.61950 0.06170 -0.19400
C 	C 	0.69930 0.61950 0.61950 -0.18800
C 	C 	0.61950 0.06170 0.69930 -0.19300
C 	C 	0.61950 0.69930 0.06170 -0.19300
C 	C 	0.06170 0.61950 0.61950 -0.19000
C 	C 	0.61950 0.61950 0.06170 -0.19400
C 	C 	0.69930 0.06170 0.61950 -0.19400
C 	C 	0.06170 0.69930 0.61950 -0.18900
C 	C 	0.61950 0.61950 0.69930 -0.18800
O 	O 	0.69617 0.98667 0.07903 -0.46200
O 	O 	0.62371 0.98603 0.07919 -0.46100
O 	O 	0.98667 0.69617 0.23813 -0.48200
O 	O 	0.98603 0.62371 0.31107 -0.48100
O 	O 	0.07903 0.23813 0.69617 -0.50700
O 	O 	0.07919 0.31107 0.62371 -0.50600
O 	O 	0.23813 0.07903 0.98667 -0.46500
O 	O 	0.31107 0.07919 0.98603 -0.46200
O 	O 	0.69617 0.07903 0.23813 -0.53800
O 	O 	0.62371 0.07919 0.31107 -0.53000
O 	O 	0.98667 0.23813 0.07903 -0.52700
O 	O 	0.98603 0.31107 0.07919 -0.51900
O 	O 	0.07903 0.69617 0.98667 -0.43300
O 	O 	0.07919 0.62371 0.98603 -0.43900
O 	O 	0.23813 0.98667 0.69617 -0.42500
O 	O 	0.31107 0.98603 0.62371 -0.42500
O 	O 	0.69617 0.23813 0.98667 -0.43400
O 	O 	0.62371 0.31107 0.98603 -0.42700
O 	O 	0.98667 0.07903 0.69617 -0.50800
O 	O 	0.98603 0.07919 0.62371 -0.51000
O 	O 	0.07903 0.98667 0.23813 -0.44900
O 	O 	0.07919 0.98603 0.31107 -0.43700
O 	O 	0.23813 0.69617 0.07903 -0.52700
O 	O 	0.31107 0.62371 0.07919 -0.52700
O 	O 	0.01333 0.30383 0.92097 -0.45300
O 	O 	0.01397 0.37629 0.92081 -0.44400
O 	O 	0.30383 0.01333 0.76187 -0.52600
O 	O 	0.37629 0.01397 0.68893 -0.52700
O 	O 	0.76187 0.92097 0.30383 -0.43500
O 	O 	0.68893 0.92081 0.37629 -0.42800
O 	O 	0.92097 0.76187 0.01333 -0.51100
O 	O 	0.92081 0.68893 0.01397 -0.51600
O 	O 	0.92097 0.30383 0.76187 -0.47300
O 	O 	0.92081 0.37629 0.68893 -0.47600
O 	O 	0.76187 0.01333 0.92097 -0.47100
O 	O 	0.68893 0.01397 0.92081 -0.46800
O 	O 	0.30383 0.92097 0.01333 -0.47500
O 	O 	0.37629 0.92081 0.01397 -0.46900
O 	O 	0.01333 0.76187 0.30383 -0.49700
O 	O 	0.01397 0.68893 0.37629 -0.50000
O 	O 	0.76187 0.30383 0.01333 -0.53700
O 	O 	0.68893 0.37629 0.01397 -0.53000
O 	O 	0.92097 0.01333 0.30383 -0.52800
O 	O 	0.92081 0.01397 0.37629 -0.51600
O 	O 	0.01333 0.92097 0.76187 -0.43400
O 	O 	0.01397 0.92081 0.68893 -0.43600
O 	O 	0.30383 0.76187 0.92097 -0.42400
O 	O 	0.37629 0.68893 0.92081 -0.42600
O 	O 	0.30383 0.01333 0.92097 -0.47500
O 	O 	0.37629 0.01397 0.92081 -0.46900
O 	O 	0.01333 0.30383 0.76187 -0.49800
O 	O 	0.01397 0.37629 0.68893 -0.50000
O 	O 	0.92097 0.76187 0.30383 -0.47400
O 	O 	0.92081 0.68893 0.37629 -0.47600
O 	O 	0.76187 0.92097 0.01333 -0.47200
O 	O 	0.68893 0.92081 0.01397 -0.46800
O 	O 	0.30383 0.92097 0.76187 -0.42400
O 	O 	0.37629 0.92081 0.68893 -0.42500
O 	O 	0.01333 0.76187 0.92097 -0.43500
O 	O 	0.01397 0.68893 0.92081 -0.44100
O 	O 	0.92097 0.30383 0.01333 -0.52900
O 	O 	0.92081 0.37629 0.01397 -0.52100
O 	O 	0.76187 0.01333 0.30383 -0.53700
O 	O 	0.68893 0.01397 0.37629 -0.52900
O 	O 	0.30383 0.76187 0.01333 -0.52500
O 	O 	0.37629 0.68893 0.01397 -0.52700
O 	O 	0.01333 0.92097 0.30383 -0.45100
O 	O 	0.01397 0.92081 0.37629 -0.43900
O 	O 	0.92097 0.01333 0.76187 -0.50900
O 	O 	0.92081 0.01397 0.68893 -0.51100
O 	O 	0.76187 0.30383 0.92097 -0.43400
O 	O 	0.68893 0.37629 0.92081 -0.42700
O 	O 	0.98667 0.69617 0.07903 -0.50900
O 	O 	0.98603 0.62371 0.07919 -0.51500
O 	O 	0.69617 0.98667 0.23813 -0.43400
O 	O 	0.62371 0.98603 0.31107 -0.42700
O 	O 	0.23813 0.07903 0.69617 -0.52700
O 	O 	0.31107 0.07919 0.62371 -0.52800
O 	O 	0.07903 0.23813 0.98667 -0.45000
O 	O 	0.07919 0.31107 0.98603 -0.44200
O 	O 	0.07903 0.69617 0.23813 -0.50700
O 	O 	0.07919 0.62371 0.31107 -0.50500
O 	O 	0.23813 0.98667 0.07903 -0.46500
O 	O 	0.31107 0.98603 0.07919 -0.46200
O 	O 	0.69617 0.07903 0.98667 -0.46100
O 	O 	0.62371 0.07919 0.98603 -0.46100
O 	O 	0.98667 0.23813 0.69617 -0.48100
O 	O 	0.98603 0.31107 0.62371 -0.48100
O 	O 	0.23813 0.69617 0.98667 -0.42500
O 	O 	0.31107 0.62371 0.98603 -0.42500
O 	O 	0.07903 0.98667 0.69617 -0.43200
O 	O 	0.07919 0.98603 0.62371 -0.43400
O 	O 	0.98667 0.07903 0.23813 -0.52600
O 	O 	0.98603 0.07919 0.31107 -0.51400
O 	O 	0.69617 0.23813 0.07903 -0.53800
O 	O 	0.62371 0.31107 0.07919 -0.53000
