data_crystal

_cell_length_a 30.26120
_cell_length_b 30.26120
_cell_length_c 30.26120
_cell_angle_alpha 60.00000
_cell_angle_beta  60.00000
_cell_angle_gamma 60.00000

_symmetry_space_group_name_	'P 1'
_symmetry_space_group_name_H-M	'P 1'

loop_
_symmetry_equiv_pos_as_xyz
  x,y,z

loop_
_atom_site_label
_atom_site_type_symbol
_atom_site_fract_x
_atom_site_fract_y
_atom_site_fract_z
_atom_site_charge
Cu	Cu	0.26265 0.00000 0.73735 0.87100
Cu	Cu	-0.00000 0.26265 -0.00000 0.83100
Cu	Cu	0.73735 1.00000 0.26265 0.94000
Cu	Cu	1.00000 0.73735 -0.00000 0.88400
Cu	Cu	0.26265 0.73735 -0.00000 0.86000
Cu	Cu	0.00000 0.00000 0.73735 0.85000
Cu	Cu	0.73735 0.26265 -0.00000 0.85800
Cu	Cu	0.00000 0.00000 0.26265 0.84500
Cu	Cu	0.26265 0.00000 -0.00000 0.82300
Cu	Cu	1.00000 0.73735 0.26265 0.92800
Cu	Cu	0.73735 1.00000 -0.00000 0.89700
Cu	Cu	1.00000 0.26265 0.73735 0.93100
Cu	Cu	-0.00000 0.00000 0.64979 0.84100
Cu	Cu	-0.00000 0.00000 0.35021 0.84000
Cu	Cu	0.64979 0.35021 -0.00000 0.85200
Cu	Cu	0.35021 0.64979 -0.00000 0.85200
Cu	Cu	-0.00000 0.64979 0.35021 0.87500
Cu	Cu	-0.00000 0.35021 0.64979 0.87400
Cu	Cu	0.64979 0.00000 -0.00000 0.81600
Cu	Cu	0.35021 0.00000 -0.00000 0.81700
Cu	Cu	1.00000 0.35021 -0.00000 0.87700
Cu	Cu	-0.00000 0.64979 -0.00000 0.82800
Cu	Cu	0.64979 0.00000 0.35021 0.86200
Cu	Cu	0.35021 0.00000 0.64979 0.86400
H 	H 	0.55830 0.96850 0.16990 0.06400
H 	H 	0.96850 0.55830 0.30330 0.06700
H 	H 	0.16990 0.30330 0.55830 0.05500
H 	H 	0.30330 0.16990 0.96850 0.07100
H 	H 	0.55830 0.16990 0.30330 0.05100
H 	H 	0.96850 0.30330 0.16990 0.05800
H 	H 	0.16990 0.55830 0.96850 0.07500
H 	H 	0.30330 0.96850 0.55830 0.07400
H 	H 	0.55830 0.30330 0.96850 0.07700
H 	H 	0.96850 0.16990 0.55830 0.06300
H 	H 	0.16990 0.96850 0.30330 0.06800
H 	H 	0.30330 0.55830 0.16990 0.05000
H 	H 	0.03150 0.44170 0.83010 0.06800
H 	H 	0.44170 0.03150 0.69670 0.05600
H 	H 	0.69670 0.83010 0.44170 0.07300
H 	H 	0.83010 0.69670 0.03150 0.05700
H 	H 	0.83010 0.44170 0.69670 0.07300
H 	H 	0.69670 0.03150 0.83010 0.06700
H 	H 	0.44170 0.83010 0.03150 0.05800
H 	H 	0.03150 0.69670 0.44170 0.05900
H 	H 	0.69670 0.44170 0.03150 0.05000
H 	H 	0.83010 0.03150 0.44170 0.05800
H 	H 	0.03150 0.83010 0.69670 0.06900
H 	H 	0.44170 0.69670 0.83010 0.07800
H 	H 	0.44170 0.03150 0.83010 0.06500
H 	H 	0.03150 0.44170 0.69670 0.06000
H 	H 	0.83010 0.69670 0.44170 0.07100
H 	H 	0.69670 0.83010 0.03150 0.05900
H 	H 	0.44170 0.83010 0.69670 0.07600
H 	H 	0.03150 0.69670 0.83010 0.07100
H 	H 	0.83010 0.44170 0.03150 0.05400
H 	H 	0.69670 0.03150 0.44170 0.05400
H 	H 	0.44170 0.69670 0.03150 0.05100
H 	H 	0.03150 0.83010 0.44170 0.06500
H 	H 	0.83010 0.03150 0.69670 0.06200
H 	H 	0.69670 0.44170 0.83010 0.07700
H 	H 	0.96850 0.55830 0.16990 0.06000
H 	H 	0.55830 0.96850 0.30330 0.07100
H 	H 	0.30330 0.16990 0.55830 0.05300
H 	H 	0.16990 0.30330 0.96850 0.07200
H 	H 	0.16990 0.55830 0.30330 0.05400
H 	H 	0.30330 0.96850 0.16990 0.06400
H 	H 	0.55830 0.16990 0.96850 0.07200
H 	H 	0.96850 0.30330 0.55830 0.06800
H 	H 	0.30330 0.55830 0.96850 0.07800
H 	H 	0.16990 0.96850 0.55830 0.07100
H 	H 	0.96850 0.16990 0.30330 0.06000
H 	H 	0.55830 0.30330 0.16990 0.04900
H 	H 	0.69120 0.97760 0.16560 0.06500
H 	H 	0.97760 0.69120 0.16560 0.06200
H 	H 	0.16560 0.16560 0.69120 0.05100
H 	H 	0.16560 0.16560 0.97760 0.06900
H 	H 	0.69120 0.16560 0.16560 0.04400
H 	H 	0.97760 0.16560 0.16560 0.05400
H 	H 	0.16560 0.69120 0.97760 0.07800
H 	H 	0.16560 0.97760 0.69120 0.07400
H 	H 	0.69120 0.16560 0.97760 0.07500
H 	H 	0.97760 0.16560 0.69120 0.06600
H 	H 	0.16560 0.97760 0.16560 0.06200
H 	H 	0.16560 0.69120 0.16560 0.04800
H 	H 	0.02240 0.30880 0.83440 0.06100
H 	H 	0.30880 0.02240 0.83440 0.05800
H 	H 	0.83440 0.83440 0.30880 0.07000
H 	H 	0.83440 0.83440 0.02240 0.05600
H 	H 	0.83440 0.30880 0.83440 0.07500
H 	H 	0.83440 0.02240 0.83440 0.06500
H 	H 	0.30880 0.83440 0.02240 0.05100
H 	H 	0.02240 0.83440 0.30880 0.05800
H 	H 	0.83440 0.30880 0.02240 0.04700
H 	H 	0.83440 0.02240 0.30880 0.05000
H 	H 	0.02240 0.83440 0.83440 0.07200
H 	H 	0.30880 0.83440 0.83440 0.07900
H 	H 	0.39700 0.94280 0.26320 0.07700
H 	H 	0.94280 0.39700 0.39700 0.08000
H 	H 	0.26320 0.39700 0.39700 0.07400
H 	H 	0.39700 0.26320 0.94280 0.08100
H 	H 	0.39700 0.26320 0.39700 0.07300
H 	H 	0.94280 0.39700 0.26320 0.07500
H 	H 	0.26320 0.39700 0.94280 0.08200
H 	H 	0.39700 0.94280 0.39700 0.08200
H 	H 	0.39700 0.39700 0.94280 0.08400
H 	H 	0.94280 0.26320 0.39700 0.07700
H 	H 	0.26320 0.94280 0.39700 0.08000
H 	H 	0.39700 0.39700 0.26320 0.07100
H 	H 	0.05720 0.60300 0.73680 0.08000
H 	H 	0.60300 0.05720 0.60300 0.07300
H 	H 	0.60300 0.73680 0.60300 0.08200
H 	H 	0.73680 0.60300 0.05720 0.07400
H 	H 	0.73680 0.60300 0.60300 0.08100
H 	H 	0.60300 0.05720 0.73680 0.07800
H 	H 	0.60300 0.73680 0.05720 0.07500
H 	H 	0.05720 0.60300 0.60300 0.07500
H 	H 	0.60300 0.60300 0.05720 0.07100
H 	H 	0.73680 0.05720 0.60300 0.07600
H 	H 	0.05720 0.73680 0.60300 0.07900
H 	H 	0.60300 0.60300 0.73680 0.08400
C 	C 	0.64990 0.98270 0.10570 0.30000
C 	C 	0.62420 0.97540 0.16460 -0.04600
C 	C 	0.57530 0.96890 0.18890 -0.04900
C 	C 	0.98270 0.64990 0.26170 0.30100
C 	C 	0.97540 0.62420 0.23580 -0.04700
C 	C 	0.96890 0.57530 0.26690 -0.04700
C 	C 	0.10570 0.26170 0.64990 0.30500
C 	C 	0.16460 0.23580 0.62420 -0.06500
C 	C 	0.18890 0.26690 0.57530 -0.03900
C 	C 	0.26170 0.10570 0.98270 0.29500
C 	C 	0.23580 0.16460 0.97540 -0.03700
C 	C 	0.26690 0.18890 0.96890 -0.05300
C 	C 	0.64990 0.10570 0.26170 0.30700
C 	C 	0.62420 0.16460 0.23580 -0.07300
C 	C 	0.57530 0.18890 0.26690 -0.03600
C 	C 	0.98270 0.26170 0.10570 0.30200
C 	C 	0.97540 0.23580 0.16460 -0.05900
C 	C 	0.96890 0.26690 0.18890 -0.04300
C 	C 	0.10570 0.64990 0.98270 0.29600
C 	C 	0.16460 0.62420 0.97540 -0.02900
C 	C 	0.18890 0.57530 0.96890 -0.05800
C 	C 	0.26170 0.98270 0.64990 0.29600
C 	C 	0.23580 0.97540 0.62420 -0.03200
C 	C 	0.26690 0.96890 0.57530 -0.05500
C 	C 	0.64990 0.26170 0.98270 0.29500
C 	C 	0.62420 0.23580 0.97540 -0.02800
C 	C 	0.57530 0.26690 0.96890 -0.05600
C 	C 	0.98270 0.10570 0.64990 0.29800
C 	C 	0.97540 0.16460 0.62420 -0.04600
C 	C 	0.96890 0.18890 0.57530 -0.04900
C 	C 	0.10570 0.98270 0.26170 0.29700
C 	C 	0.16460 0.97540 0.23580 -0.04500
C 	C 	0.18890 0.96890 0.26690 -0.04900
C 	C 	0.26170 0.64990 0.10570 0.30300
C 	C 	0.23580 0.62420 0.16460 -0.07000
C 	C 	0.26690 0.57530 0.18890 -0.03800
C 	C 	0.01730 0.35010 0.89430 0.29700
C 	C 	0.02460 0.37580 0.83540 -0.04600
C 	C 	0.03110 0.42470 0.81110 -0.04800
C 	C 	0.35010 0.01730 0.73830 0.30200
C 	C 	0.37580 0.02460 0.76420 -0.05800
C 	C 	0.42470 0.03110 0.73310 -0.04500
C 	C 	0.73830 0.89430 0.35010 0.30000
C 	C 	0.76420 0.83540 0.37580 -0.03700
C 	C 	0.73310 0.81110 0.42470 -0.05200
C 	C 	0.89430 0.73830 0.01730 0.30000
C 	C 	0.83540 0.76420 0.02460 -0.05800
C 	C 	0.81110 0.73310 0.03110 -0.04400
C 	C 	0.89430 0.35010 0.73830 0.30000
C 	C 	0.83540 0.37580 0.76420 -0.03400
C 	C 	0.81110 0.42470 0.73310 -0.05500
C 	C 	0.73830 0.01730 0.89430 0.29700
C 	C 	0.76420 0.02460 0.83540 -0.04400
C 	C 	0.73310 0.03110 0.81110 -0.05000
C 	C 	0.35010 0.89430 0.01730 0.29700
C 	C 	0.37580 0.83540 0.02460 -0.06000
C 	C 	0.42470 0.81110 0.03110 -0.04300
C 	C 	0.01730 0.73830 0.35010 0.30500
C 	C 	0.02460 0.76420 0.37580 -0.05700
C 	C 	0.03110 0.73310 0.42470 -0.04400
C 	C 	0.73830 0.35010 0.01730 0.30300
C 	C 	0.76420 0.37580 0.02460 -0.07000
C 	C 	0.73310 0.42470 0.03110 -0.03800
C 	C 	0.89430 0.01730 0.35010 0.30000
C 	C 	0.83540 0.02460 0.37580 -0.06000
C 	C 	0.81110 0.03110 0.42470 -0.04100
C 	C 	0.01730 0.89430 0.73830 0.29500
C 	C 	0.02460 0.83540 0.76420 -0.03700
C 	C 	0.03110 0.81110 0.73310 -0.05400
C 	C 	0.35010 0.73830 0.89430 0.29400
C 	C 	0.37580 0.76420 0.83540 -0.02500
C 	C 	0.42470 0.73310 0.81110 -0.05900
C 	C 	0.35010 0.01730 0.89430 0.29500
C 	C 	0.37580 0.02460 0.83540 -0.04900
C 	C 	0.42470 0.03110 0.81110 -0.04700
C 	C 	0.01730 0.35010 0.73830 0.30500
C 	C 	0.02460 0.37580 0.76420 -0.05400
C 	C 	0.03110 0.42470 0.73310 -0.04500
C 	C 	0.89430 0.73830 0.35010 0.30100
C 	C 	0.83540 0.76420 0.37580 -0.03900
C 	C 	0.81110 0.73310 0.42470 -0.05100
C 	C 	0.73830 0.89430 0.01730 0.29900
C 	C 	0.76420 0.83540 0.02460 -0.05700
C 	C 	0.73310 0.81110 0.03110 -0.04500
C 	C 	0.35010 0.89430 0.73830 0.29600
C 	C 	0.37580 0.83540 0.76420 -0.02700
C 	C 	0.42470 0.81110 0.73310 -0.05800
C 	C 	0.01730 0.73830 0.89430 0.29600
C 	C 	0.02460 0.76420 0.83540 -0.03600
C 	C 	0.03110 0.73310 0.81110 -0.05400
C 	C 	0.89430 0.35010 0.01730 0.30200
C 	C 	0.83540 0.37580 0.02460 -0.06700
C 	C 	0.81110 0.42470 0.03110 -0.03900
C 	C 	0.73830 0.01730 0.35010 0.30700
C 	C 	0.76420 0.02460 0.37580 -0.06600
C 	C 	0.73310 0.03110 0.42470 -0.03900
C 	C 	0.35010 0.73830 0.01730 0.30300
C 	C 	0.37580 0.76420 0.02460 -0.06600
C 	C 	0.42470 0.73310 0.03110 -0.04100
C 	C 	0.01730 0.89430 0.35010 0.29800
C 	C 	0.02460 0.83540 0.37580 -0.04900
C 	C 	0.03110 0.81110 0.42470 -0.04600
C 	C 	0.89430 0.01730 0.73830 0.29800
C 	C 	0.83540 0.02460 0.76420 -0.04800
C 	C 	0.81110 0.03110 0.73310 -0.04900
C 	C 	0.73830 0.35010 0.89430 0.29500
C 	C 	0.76420 0.37580 0.83540 -0.02900
C 	C 	0.73310 0.42470 0.81110 -0.05600
C 	C 	0.98270 0.64990 0.10570 0.30100
C 	C 	0.97540 0.62420 0.16460 -0.05200
C 	C 	0.96890 0.57530 0.18890 -0.04600
C 	C 	0.64990 0.98270 0.26170 0.30000
C 	C 	0.62420 0.97540 0.23580 -0.04100
C 	C 	0.57530 0.96890 0.26690 -0.05000
C 	C 	0.26170 0.10570 0.64990 0.30300
C 	C 	0.23580 0.16460 0.62420 -0.06600
C 	C 	0.26690 0.18890 0.57530 -0.03900
C 	C 	0.10570 0.26170 0.98270 0.29700
C 	C 	0.16460 0.23580 0.97540 -0.03600
C 	C 	0.18890 0.26690 0.96890 -0.05300
C 	C 	0.10570 0.64990 0.26170 0.30500
C 	C 	0.16460 0.62420 0.23580 -0.06800
C 	C 	0.18890 0.57530 0.26690 -0.03800
C 	C 	0.26170 0.98270 0.10570 0.29700
C 	C 	0.23580 0.97540 0.16460 -0.04700
C 	C 	0.26690 0.96890 0.18890 -0.04900
C 	C 	0.64990 0.10570 0.98270 0.29700
C 	C 	0.62420 0.16460 0.97540 -0.03300
C 	C 	0.57530 0.18890 0.96890 -0.05500
C 	C 	0.98270 0.26170 0.64990 0.30100
C 	C 	0.97540 0.23580 0.62420 -0.04300
C 	C 	0.96890 0.26690 0.57530 -0.04900
C 	C 	0.26170 0.64990 0.98270 0.29400
C 	C 	0.23580 0.62420 0.97540 -0.02500
C 	C 	0.26690 0.57530 0.96890 -0.05800
C 	C 	0.10570 0.98270 0.64990 0.29600
C 	C 	0.16460 0.97540 0.62420 -0.03500
C 	C 	0.18890 0.96890 0.57530 -0.05500
C 	C 	0.98270 0.10570 0.26170 0.30000
C 	C 	0.97540 0.16460 0.23580 -0.05600
C 	C 	0.96890 0.18890 0.26690 -0.04300
C 	C 	0.64990 0.26170 0.10570 0.30400
C 	C 	0.62420 0.23580 0.16460 -0.07300
C 	C 	0.57530 0.26690 0.18890 -0.03600
C 	C 	0.65530 0.97650 0.18410 -0.01200
C 	C 	0.55240 0.96280 0.24240 0.03400
C 	C 	0.50020 0.95420 0.27280 0.00100
C 	C 	0.46190 0.95030 0.29390 -0.03600
C 	C 	0.40880 0.94480 0.32320 0.07400
C 	C 	0.97650 0.65530 0.18410 -0.00900
C 	C 	0.96280 0.55240 0.24240 0.02800
C 	C 	0.95420 0.50020 0.27280 0.00000
C 	C 	0.95030 0.46190 0.29390 -0.04000
C 	C 	0.94480 0.40880 0.32320 0.07300
C 	C 	0.18410 0.18410 0.65530 -0.00200
C 	C 	0.24240 0.24240 0.55240 0.01500
C 	C 	0.27280 0.27280 0.50020 -0.00100
C 	C 	0.29390 0.29390 0.46190 -0.04900
C 	C 	0.32320 0.32320 0.40880 0.07000
C 	C 	0.18410 0.18410 0.97650 -0.01600
C 	C 	0.24240 0.24240 0.96280 0.03900
C 	C 	0.27280 0.27280 0.95420 0.00100
C 	C 	0.29390 0.29390 0.95030 -0.03200
C 	C 	0.32320 0.32320 0.94480 0.07500
C 	C 	0.65530 0.18410 0.18410 0.00200
C 	C 	0.55240 0.24240 0.24240 0.00900
C 	C 	0.50020 0.27280 0.27280 -0.00100
C 	C 	0.46190 0.29390 0.29390 -0.05200
C 	C 	0.40880 0.32320 0.32320 0.07000
C 	C 	0.97650 0.18410 0.18410 -0.00600
C 	C 	0.96280 0.24240 0.24240 0.02200
C 	C 	0.95420 0.27280 0.27280 -0.00000
C 	C 	0.95030 0.29390 0.29390 -0.04300
C 	C 	0.94480 0.32320 0.32320 0.07200
C 	C 	0.18410 0.65530 0.97650 -0.02100
C 	C 	0.24240 0.55240 0.96280 0.04600
C 	C 	0.27280 0.50020 0.95420 0.00000
C 	C 	0.29390 0.46190 0.95030 -0.02800
C 	C 	0.32320 0.40880 0.94480 0.07600
C 	C 	0.18410 0.97650 0.65530 -0.01800
C 	C 	0.24240 0.96280 0.55240 0.04100
C 	C 	0.27280 0.95420 0.50020 -0.00000
C 	C 	0.29390 0.95030 0.46190 -0.03200
C 	C 	0.32320 0.94480 0.40880 0.07500
C 	C 	0.65530 0.18410 0.97650 -0.01900
C 	C 	0.55240 0.24240 0.96280 0.04400
C 	C 	0.50020 0.27280 0.95420 0.00100
C 	C 	0.46190 0.29390 0.95030 -0.03000
C 	C 	0.40880 0.32320 0.94480 0.07600
C 	C 	0.97650 0.18410 0.65530 -0.01200
C 	C 	0.96280 0.24240 0.55240 0.03200
C 	C 	0.95420 0.27280 0.50020 -0.00000
C 	C 	0.95030 0.29390 0.46190 -0.03800
C 	C 	0.94480 0.32320 0.40880 0.07300
C 	C 	0.18410 0.97650 0.18410 -0.01200
C 	C 	0.24240 0.96280 0.24240 0.03100
C 	C 	0.27280 0.95420 0.27280 -0.00000
C 	C 	0.29390 0.95030 0.29390 -0.03700
C 	C 	0.32320 0.94480 0.32320 0.07400
C 	C 	0.18410 0.65530 0.18410 0.00000
C 	C 	0.24240 0.55240 0.24240 0.01200
C 	C 	0.27280 0.50020 0.27280 -0.00100
C 	C 	0.29390 0.46190 0.29390 -0.05000
C 	C 	0.32320 0.40880 0.32320 0.07000
C 	C 	0.02350 0.34470 0.81590 -0.00900
C 	C 	0.03720 0.44760 0.75760 0.02800
C 	C 	0.04580 0.49980 0.72720 0.00000
C 	C 	0.04970 0.53810 0.70610 -0.04000
C 	C 	0.05520 0.59120 0.67680 0.07300
C 	C 	0.34470 0.02350 0.81590 -0.00900
C 	C 	0.44760 0.03720 0.75760 0.02500
C 	C 	0.49980 0.04580 0.72720 -0.00100
C 	C 	0.53810 0.04970 0.70610 -0.04300
C 	C 	0.59120 0.05520 0.67680 0.07200
C 	C 	0.81590 0.81590 0.34470 -0.01400
C 	C 	0.75760 0.75760 0.44760 0.03900
C 	C 	0.72720 0.72720 0.49980 0.00200
C 	C 	0.70610 0.70610 0.53810 -0.03200
C 	C 	0.67680 0.67680 0.59120 0.07600
C 	C 	0.81590 0.81590 0.02350 -0.00700
C 	C 	0.75760 0.75760 0.03720 0.02100
C 	C 	0.72720 0.72720 0.04580 -0.00200
C 	C 	0.70610 0.70610 0.04970 -0.04600
C 	C 	0.67680 0.67680 0.05520 0.07000
C 	C 	0.81590 0.34470 0.81590 -0.01800
C 	C 	0.75760 0.44760 0.75760 0.04300
C 	C 	0.72720 0.49980 0.72720 0.00100
C 	C 	0.70610 0.53810 0.70610 -0.03000
C 	C 	0.67680 0.59120 0.67680 0.07600
C 	C 	0.81590 0.02350 0.81590 -0.01300
C 	C 	0.75760 0.03720 0.75760 0.03000
C 	C 	0.72720 0.04580 0.72720 -0.00100
C 	C 	0.70610 0.04970 0.70610 -0.04000
C 	C 	0.67680 0.05520 0.67680 0.07200
C 	C 	0.34470 0.81590 0.02350 -0.00400
C 	C 	0.44760 0.75760 0.03720 0.01700
C 	C 	0.49980 0.72720 0.04580 -0.00200
C 	C 	0.53810 0.70610 0.04970 -0.04800
C 	C 	0.59120 0.67680 0.05520 0.07000
C 	C 	0.02350 0.81590 0.34470 -0.00700
C 	C 	0.03720 0.75760 0.44760 0.02600
C 	C 	0.04580 0.72720 0.49980 0.00000
C 	C 	0.04970 0.70610 0.53810 -0.04100
C 	C 	0.05520 0.67680 0.59120 0.07300
C 	C 	0.81590 0.34470 0.02350 -0.00100
C 	C 	0.75760 0.44760 0.03720 0.01300
C 	C 	0.72720 0.49980 0.04580 -0.00100
C 	C 	0.70610 0.53810 0.04970 -0.05000
C 	C 	0.67680 0.59120 0.05520 0.07000
C 	C 	0.81590 0.02350 0.34470 -0.00200
C 	C 	0.75760 0.03720 0.44760 0.01800
C 	C 	0.72720 0.04580 0.49980 -0.00000
C 	C 	0.70610 0.04970 0.53810 -0.04600
C 	C 	0.67680 0.05520 0.59120 0.07200
C 	C 	0.02350 0.81590 0.81590 -0.01800
C 	C 	0.03720 0.75760 0.75760 0.03800
C 	C 	0.04580 0.72720 0.72720 -0.00100
C 	C 	0.04970 0.70610 0.70610 -0.03500
C 	C 	0.05520 0.67680 0.67680 0.07400
C 	C 	0.34470 0.81590 0.81590 -0.02200
C 	C 	0.44760 0.75760 0.75760 0.04700
C 	C 	0.49980 0.72720 0.72720 0.00000
C 	C 	0.53810 0.70610 0.70610 -0.02800
C 	C 	0.59120 0.67680 0.67680 0.07600
C 	C 	0.37850 0.94410 0.29890 -0.11700
C 	C 	0.94410 0.37850 0.37850 -0.11900
C 	C 	0.29890 0.37850 0.37850 -0.12300
C 	C 	0.37850 0.29890 0.94410 -0.11500
C 	C 	0.37850 0.29890 0.37850 -0.12300
C 	C 	0.94410 0.37850 0.29890 -0.11900
C 	C 	0.29890 0.37850 0.94410 -0.11500
C 	C 	0.37850 0.94410 0.37850 -0.11700
C 	C 	0.37850 0.37850 0.94410 -0.11500
C 	C 	0.94410 0.29890 0.37850 -0.11900
C 	C 	0.29890 0.94410 0.37850 -0.11700
C 	C 	0.37850 0.37850 0.29890 -0.12300
C 	C 	0.05590 0.62150 0.70110 -0.11800
C 	C 	0.62150 0.05590 0.62150 -0.12000
C 	C 	0.62150 0.70110 0.62150 -0.11500
C 	C 	0.70110 0.62150 0.05590 -0.12200
C 	C 	0.70110 0.62150 0.62150 -0.11500
C 	C 	0.62150 0.05590 0.70110 -0.12000
C 	C 	0.62150 0.70110 0.05590 -0.12200
C 	C 	0.05590 0.62150 0.62150 -0.11900
C 	C 	0.62150 0.62150 0.05590 -0.12200
C 	C 	0.70110 0.05590 0.62150 -0.12000
C 	C 	0.05590 0.70110 0.62150 -0.11800
C 	C 	0.62150 0.62150 0.70110 -0.11500
O 	O 	0.69820 0.98758 0.07720 -0.37800
O 	O 	0.62508 0.98592 0.07860 -0.36700
O 	O 	0.98758 0.69820 0.23702 -0.36700
O 	O 	0.98592 0.62508 0.31040 -0.35700
O 	O 	0.07720 0.23702 0.69820 -0.40200
O 	O 	0.07860 0.31040 0.62508 -0.39200
O 	O 	0.23702 0.07720 0.98758 -0.34800
O 	O 	0.31040 0.07860 0.98592 -0.34600
O 	O 	0.69820 0.07720 0.23702 -0.41500
O 	O 	0.62508 0.07860 0.31040 -0.40000
O 	O 	0.98758 0.23702 0.07720 -0.38300
O 	O 	0.98592 0.31040 0.07860 -0.38700
O 	O 	0.07720 0.69820 0.98758 -0.34500
O 	O 	0.07860 0.62508 0.98592 -0.34100
O 	O 	0.23702 0.98758 0.69820 -0.34000
O 	O 	0.31040 0.98592 0.62508 -0.34100
O 	O 	0.69820 0.23702 0.98758 -0.33000
O 	O 	0.62508 0.31040 0.98592 -0.32900
O 	O 	0.98758 0.07720 0.69820 -0.36800
O 	O 	0.98592 0.07860 0.62508 -0.37000
O 	O 	0.07720 0.98758 0.23702 -0.35700
O 	O 	0.07860 0.98592 0.31040 -0.35300
O 	O 	0.23702 0.69820 0.07720 -0.40400
O 	O 	0.31040 0.62508 0.07860 -0.40200
O 	O 	0.01242 0.30180 0.92280 -0.34900
O 	O 	0.01408 0.37492 0.92140 -0.35200
O 	O 	0.30180 0.01242 0.76298 -0.39400
O 	O 	0.37492 0.01408 0.68960 -0.39400
O 	O 	0.76298 0.92280 0.30180 -0.35800
O 	O 	0.68960 0.92140 0.37492 -0.34500
O 	O 	0.92280 0.76298 0.01242 -0.38800
O 	O 	0.92140 0.68960 0.01408 -0.38100
O 	O 	0.92280 0.30180 0.76298 -0.36000
O 	O 	0.92140 0.37492 0.68960 -0.35400
O 	O 	0.76298 0.01242 0.92280 -0.36200
O 	O 	0.68960 0.01408 0.92140 -0.35100
O 	O 	0.30180 0.92280 0.01242 -0.37200
O 	O 	0.37492 0.92140 0.01408 -0.36800
O 	O 	0.01242 0.76298 0.30180 -0.39800
O 	O 	0.01408 0.68960 0.37492 -0.39000
O 	O 	0.76298 0.30180 0.01242 -0.40600
O 	O 	0.68960 0.37492 0.01408 -0.40300
O 	O 	0.92280 0.01242 0.30180 -0.37800
O 	O 	0.92140 0.01408 0.37492 -0.37300
O 	O 	0.01242 0.92280 0.76298 -0.35000
O 	O 	0.01408 0.92140 0.68960 -0.35300
O 	O 	0.30180 0.76298 0.92280 -0.32700
O 	O 	0.37492 0.68960 0.92140 -0.32900
O 	O 	0.30180 0.01242 0.92280 -0.35300
O 	O 	0.37492 0.01408 0.92140 -0.34900
O 	O 	0.01242 0.30180 0.76298 -0.39700
O 	O 	0.01408 0.37492 0.68960 -0.39000
O 	O 	0.92280 0.76298 0.30180 -0.36400
O 	O 	0.92140 0.68960 0.37492 -0.35500
O 	O 	0.76298 0.92280 0.01242 -0.38300
O 	O 	0.68960 0.92140 0.01408 -0.37100
O 	O 	0.30180 0.92280 0.76298 -0.33800
O 	O 	0.37492 0.92140 0.68960 -0.34000
O 	O 	0.01242 0.76298 0.92280 -0.34800
O 	O 	0.01408 0.68960 0.92140 -0.34300
O 	O 	0.92280 0.30180 0.01242 -0.38700
O 	O 	0.92140 0.37492 0.01408 -0.38900
O 	O 	0.76298 0.01242 0.30180 -0.41200
O 	O 	0.68960 0.01408 0.37492 -0.39800
O 	O 	0.30180 0.76298 0.01242 -0.40300
O 	O 	0.37492 0.68960 0.01408 -0.40200
O 	O 	0.01242 0.92280 0.30180 -0.35900
O 	O 	0.01408 0.92140 0.37492 -0.35400
O 	O 	0.92280 0.01242 0.76298 -0.36900
O 	O 	0.92140 0.01408 0.68960 -0.37100
O 	O 	0.76298 0.30180 0.92280 -0.33000
O 	O 	0.68960 0.37492 0.92140 -0.32900
O 	O 	0.98758 0.69820 0.07720 -0.38500
O 	O 	0.98592 0.62508 0.07860 -0.37900
O 	O 	0.69820 0.98758 0.23702 -0.36000
O 	O 	0.62508 0.98592 0.31040 -0.34500
O 	O 	0.23702 0.07720 0.69820 -0.39700
O 	O 	0.31040 0.07860 0.62508 -0.39600
O 	O 	0.07720 0.23702 0.98758 -0.34500
O 	O 	0.07860 0.31040 0.98592 -0.35000
O 	O 	0.07720 0.69820 0.23702 -0.40300
O 	O 	0.07860 0.62508 0.31040 -0.39200
O 	O 	0.23702 0.98758 0.07720 -0.36700
O 	O 	0.31040 0.98592 0.07860 -0.36400
O 	O 	0.69820 0.07720 0.98758 -0.35700
O 	O 	0.62508 0.07860 0.98592 -0.34800
O 	O 	0.98758 0.23702 0.69820 -0.36400
O 	O 	0.98592 0.31040 0.62508 -0.35600
O 	O 	0.23702 0.69820 0.98758 -0.32800
O 	O 	0.31040 0.62508 0.98592 -0.32800
O 	O 	0.07720 0.98758 0.69820 -0.34800
O 	O 	0.07860 0.98592 0.62508 -0.35100
O 	O 	0.98758 0.07720 0.23702 -0.37700
O 	O 	0.98592 0.07860 0.31040 -0.37100
O 	O 	0.69820 0.23702 0.07720 -0.40700
O 	O 	0.62508 0.31040 0.07860 -0.40300
