data_crystal

_cell_length_a 20.40510
_cell_length_b 16.49690
_cell_length_c 9.34690
_cell_angle_alpha 90.00000
_cell_angle_beta  94.12210
_cell_angle_gamma 90.00000

_symmetry_space_group_name_	'P 1'
_symmetry_space_group_name_H-M	'P 1'

loop_
_symmetry_equiv_pos_as_xyz
  x,y,z

loop_
_atom_site_label
_atom_site_type_symbol
_atom_site_fract_x
_atom_site_fract_y
_atom_site_fract_z
_atom_site_charge
O 	O 	0.31153 0.17296 0.40871 -0.46800
O 	O 	0.18491 0.16981 0.62729 -0.43500
O 	O 	0.18445 0.17090 0.38810 -0.44100
O 	O 	0.32059 0.17510 0.64922 -0.43100
C 	C 	0.15819 0.14783 0.50369 0.33400
C 	C 	0.10037 0.09762 0.48581 -0.09300
C 	C 	0.06680 0.06204 0.59893 -0.00900
H 	H 	0.08322 0.07594 0.70853 0.04100
C 	C 	0.39476 0.05575 0.37775 0.00900
H 	H 	0.35440 0.06846 0.30069 0.04500
C 	C 	0.97776 0.97445 0.68183 -0.06100
H 	H 	0.99286 0.98845 0.79095 0.04400
C 	C 	0.01163 0.00879 0.57092 0.01300
H 	H 	0.33828 0.30293 0.14422 0.04400
H 	H 	0.34104 0.19660 0.89492 0.05100
C 	C 	0.34182 0.15043 0.52833 0.33000
C 	C 	0.39611 0.09175 0.51464 -0.08000
C 	C 	0.45174 0.07328 0.60905 -0.01400
H 	H 	0.45697 0.10317 0.71232 0.04100
C 	C 	0.07688 0.07689 0.34568 0.01700
H 	H 	0.10130 0.10046 0.25600 0.03800
C 	C 	0.44484 0.00335 0.33706 -0.05800
H 	H 	0.44335 0.98140 0.22909 0.04500
C 	C 	0.50173 0.01785 0.56855 0.01300
C 	C 	0.21110 0.17773 0.08085 -0.03100
H 	H 	0.23459 0.12142 0.12470 0.04200
H 	H 	0.15982 0.17498 0.11061 0.04200
C 	C 	0.21210 0.17814 0.90965 -0.03600
H 	H 	0.16082 0.17680 0.86328 0.05000
H 	H 	0.23456 0.12145 0.87236 0.04700
O 	O 	0.68847 0.67296 0.59129 -0.46700
O 	O 	0.81509 0.66981 0.37271 -0.43400
O 	O 	0.81555 0.67090 0.61190 -0.44000
O 	O 	0.67941 0.67510 0.35078 -0.43000
C 	C 	0.84181 0.64783 0.49631 0.33400
C 	C 	0.89963 0.59762 0.51419 -0.09300
C 	C 	0.93320 0.56204 0.40107 -0.00900
H 	H 	0.91678 0.57594 0.29147 0.04100
C 	C 	0.60524 0.55575 0.62225 0.00900
H 	H 	0.64560 0.56846 0.69931 0.04500
C 	C 	0.02224 0.47445 0.31817 -0.06100
H 	H 	0.00714 0.48845 0.20905 0.04400
C 	C 	0.98837 0.50879 0.42908 0.01300
H 	H 	0.66172 0.80293 0.85578 0.04400
H 	H 	0.65896 0.69660 0.10508 0.05100
C 	C 	0.65818 0.65043 0.47167 0.33000
C 	C 	0.60389 0.59175 0.48536 -0.08000
C 	C 	0.54826 0.57328 0.39095 -0.01400
H 	H 	0.54303 0.60317 0.28768 0.04100
C 	C 	0.92312 0.57689 0.65432 0.01700
H 	H 	0.89870 0.60046 0.74400 0.03800
C 	C 	0.55516 0.50335 0.66294 -0.05800
H 	H 	0.55665 0.48140 0.77091 0.04500
C 	C 	0.49827 0.51785 0.43145 0.01300
C 	C 	0.78890 0.67773 0.91915 -0.03100
H 	H 	0.76541 0.62142 0.87530 0.04200
H 	H 	0.84018 0.67498 0.88939 0.04200
C 	C 	0.78790 0.67814 0.09035 -0.03600
H 	H 	0.83918 0.67680 0.13672 0.05000
H 	H 	0.76544 0.62145 0.12764 0.04700
O 	O 	0.68847 0.82704 0.59129 -0.46700
O 	O 	0.81509 0.83019 0.37271 -0.43400
O 	O 	0.81555 0.82910 0.61190 -0.44000
O 	O 	0.67941 0.82490 0.35078 -0.43000
C 	C 	0.84181 0.85217 0.49631 0.33400
C 	C 	0.89963 0.90238 0.51419 -0.09300
C 	C 	0.93320 0.93796 0.40107 -0.00900
H 	H 	0.91678 0.92406 0.29147 0.04100
C 	C 	0.60524 0.94425 0.62225 0.00900
H 	H 	0.64560 0.93154 0.69931 0.04500
C 	C 	0.02224 0.02555 0.31817 -0.06100
H 	H 	0.00714 0.01155 0.20905 0.04400
C 	C 	0.98837 0.99121 0.42908 0.01300
H 	H 	0.66172 0.69707 0.85578 0.04400
H 	H 	0.65896 0.80340 0.10508 0.05100
C 	C 	0.65818 0.84957 0.47167 0.33000
C 	C 	0.60389 0.90825 0.48536 -0.08000
C 	C 	0.54826 0.92672 0.39095 -0.01400
H 	H 	0.54303 0.89683 0.28768 0.04100
C 	C 	0.92312 0.92311 0.65432 0.01700
H 	H 	0.89870 0.89954 0.74400 0.03800
C 	C 	0.55516 0.99665 0.66294 -0.05800
H 	H 	0.55665 0.01860 0.77091 0.04500
C 	C 	0.49827 0.98215 0.43145 0.01300
C 	C 	0.78890 0.82227 0.91915 -0.03100
H 	H 	0.76541 0.87858 0.87530 0.04200
H 	H 	0.84018 0.82502 0.88939 0.04200
C 	C 	0.78790 0.82186 0.09035 -0.03600
H 	H 	0.83918 0.82320 0.13672 0.05000
H 	H 	0.76544 0.87855 0.12764 0.04700
O 	O 	0.31153 0.32704 0.40871 -0.46700
O 	O 	0.18491 0.33019 0.62729 -0.43400
O 	O 	0.18445 0.32910 0.38810 -0.44000
O 	O 	0.32059 0.32490 0.64922 -0.43000
C 	C 	0.15819 0.35217 0.50369 0.33400
C 	C 	0.10037 0.40238 0.48581 -0.09300
C 	C 	0.06680 0.43796 0.59893 -0.00900
H 	H 	0.08322 0.42406 0.70853 0.04100
C 	C 	0.39476 0.44425 0.37775 0.00900
H 	H 	0.35440 0.43154 0.30069 0.04500
C 	C 	0.97776 0.52555 0.68183 -0.06100
H 	H 	0.99286 0.51155 0.79095 0.04400
C 	C 	0.01163 0.49121 0.57092 0.01300
H 	H 	0.33828 0.19707 0.14422 0.04400
H 	H 	0.34104 0.30340 0.89492 0.05100
C 	C 	0.34182 0.34957 0.52833 0.33000
C 	C 	0.39611 0.40825 0.51464 -0.08000
C 	C 	0.45174 0.42672 0.60905 -0.01400
H 	H 	0.45697 0.39683 0.71232 0.04100
C 	C 	0.07688 0.42311 0.34568 0.01700
H 	H 	0.10130 0.39954 0.25600 0.03800
C 	C 	0.44484 0.49665 0.33706 -0.05800
H 	H 	0.44335 0.51860 0.22909 0.04500
C 	C 	0.50173 0.48215 0.56855 0.01300
C 	C 	0.21110 0.32227 0.08085 -0.03100
H 	H 	0.23459 0.37858 0.12470 0.04200
H 	H 	0.15982 0.32502 0.11061 0.04200
C 	C 	0.21210 0.32186 0.90965 -0.03600
H 	H 	0.16082 0.32320 0.86328 0.05000
H 	H 	0.23456 0.37855 0.87236 0.04700
Ni	Ni	0.25177 0.25000 0.63725 1.09900
Ni	Ni	0.25009 0.25000 0.39237 1.11100
N 	N 	0.24650 0.25000 0.85199 -0.16800
N 	N 	0.24362 0.25000 0.15064 -0.14900
C 	C 	0.31115 0.25000 0.09954 -0.03700
C 	C 	0.31301 0.25000 0.92841 -0.04000
Ni	Ni	0.74823 0.75000 0.36275 1.09900
Ni	Ni	0.74991 0.75000 0.60763 1.11100
N 	N 	0.75350 0.75000 0.14801 -0.16800
N 	N 	0.75638 0.75000 0.84936 -0.14900
C 	C 	0.68885 0.75000 0.90046 -0.03700
C 	C 	0.68699 0.75000 0.07159 -0.04000
