data_crystal

_cell_length_a 9.47780
_cell_length_b 11.06570
_cell_length_c 12.69360
_cell_angle_alpha 101.54400
_cell_angle_beta  92.06540
_cell_angle_gamma 100.59100

_symmetry_space_group_name_	'P 1'
_symmetry_space_group_name_H-M	'P 1'

loop_
_symmetry_equiv_pos_as_xyz
  x,y,z

loop_
_atom_site_label
_atom_site_type_symbol
_atom_site_fract_x
_atom_site_fract_y
_atom_site_fract_z
_atom_site_charge
Ni	Ni	0.16762 0.26634 0.45472 1.12200
O 	O 	0.17891 0.33750 0.33319 -0.42900
O 	O 	0.94241 0.32701 0.34025 -0.41100
O 	O 	0.98271 0.42277 0.57072 -0.42100
O 	O 	0.84994 0.13530 0.39358 -0.50200
N 	N 	0.39763 0.27416 0.46495 -0.16100
C 	C 	0.47585 0.38077 0.55282 -0.02500
C 	C 	0.43346 0.15698 0.49226 -0.04000
C 	C 	0.46190 0.28903 0.36587 -0.02400
C 	C 	0.05472 0.33326 0.28688 0.33000
C 	C 	0.02585 0.30700 0.16880 -0.11000
C 	C 	0.13788 0.30878 0.09943 0.01100
C 	C 	0.10805 0.28107 0.98662 -0.02000
C 	C 	0.21885 0.27357 0.91693 -0.05300
C 	C 	0.88354 0.28607 0.12371 0.04500
C 	C 	0.10459 0.47049 0.54628 0.27600
C 	C 	0.09296 0.59148 0.51038 -0.09800
C 	C 	0.97726 0.64690 0.53471 0.01000
C 	C 	0.96685 0.75185 0.49904 0.02800
C 	C 	0.84413 0.80617 0.51735 -0.05300
C 	C 	0.21003 0.64331 0.46055 0.01000
Ni	Ni	0.90480 0.27367 0.47709 1.13300
O 	O 	0.89928 0.20551 0.59732 -0.42500
O 	O 	0.13389 0.20893 0.58925 -0.43100
O 	O 	0.07654 0.11792 0.35972 -0.47300
O 	O 	0.20942 0.40232 0.54307 -0.46500
N 	N 	0.68241 0.27989 0.47625 -0.16200
C 	C 	0.63982 0.38541 0.56091 -0.03700
C 	C 	0.59511 0.16591 0.49853 -0.02100
C 	C 	0.62228 0.29490 0.37034 -0.03400
C 	C 	0.02195 0.20694 0.64311 0.33200
C 	C 	0.04759 0.23516 0.76090 -0.10400
C 	C 	0.93504 0.23866 0.83009 0.00900
C 	C 	0.96457 0.26022 0.94254 0.02800
C 	C 	0.85347 0.26307 0.01186 -0.05000
C 	C 	0.18887 0.25014 0.80551 0.01600
C 	C 	0.95221 0.08188 0.38866 0.36700
C 	C 	0.94533 0.95598 0.42108 -0.07100
C 	C 	0.06543 0.90795 0.40294 -0.02700
C 	C 	0.08061 0.80479 0.44328 -0.00400
C 	C 	0.20049 0.74998 0.42246 -0.05100
C 	C 	0.83122 0.90868 0.47533 0.01600
H 	H 	0.24731 0.32445 0.13339 0.04000
H 	H 	0.32876 0.28590 0.94832 0.04000
H 	H 	0.79504 0.28629 0.17470 0.03700
H 	H 	0.82540 0.22791 0.79666 0.04100
H 	H 	0.74303 0.24300 0.97901 0.03800
H 	H 	0.27664 0.24580 0.75412 0.03900
H 	H 	0.89144 0.60419 0.58449 0.04200
H 	H 	0.75691 0.76471 0.56671 0.04000
H 	H 	0.30869 0.59768 0.45250 0.03400
H 	H 	0.15169 0.95324 0.35486 0.04900
H 	H 	0.28977 0.79176 0.37486 0.03900
H 	H 	0.73298 0.95489 0.48321 0.03400
H 	H 	0.43175 0.36886 0.63328 0.04800
H 	H 	0.45701 0.47402 0.53559 0.04700
H 	H 	0.38063 0.07214 0.42730 0.03000
H 	H 	0.39154 0.14542 0.57344 0.03800
H 	H 	0.43893 0.37910 0.34436 0.04300
H 	H 	0.41147 0.20615 0.29831 0.03600
H 	H 	0.69802 0.48042 0.54791 0.03400
H 	H 	0.67305 0.37467 0.64524 0.04100
H 	H 	0.63097 0.15647 0.58271 0.04100
H 	H 	0.61484 0.08056 0.43817 0.04800
H 	H 	0.64700 0.21735 0.30399 0.05100
H 	H 	0.67530 0.38997 0.35428 0.03900
