data_crystal

_cell_length_a 12.69470
_cell_length_b 12.82420
_cell_length_c 14.79710
_cell_angle_alpha 85.11000
_cell_angle_beta  65.98800
_cell_angle_gamma 89.66300

_symmetry_space_group_name_	'P 1'
_symmetry_space_group_name_H-M	'P 1'

loop_
_symmetry_equiv_pos_as_xyz
  x,y,z

loop_
_atom_site_label
_atom_site_type_symbol
_atom_site_fract_x
_atom_site_fract_y
_atom_site_fract_z
_atom_site_charge
Zn	Zn	0.28282 0.04782 0.44211 1.22300
Zn	Zn	0.84472 0.40285 0.86813 1.24300
O 	O 	0.81880 0.46260 0.05640 -0.41100
O 	O 	0.75790 0.32990 0.99970 -0.33500
O 	O 	0.63980 0.23770 0.18150 -0.16700
O 	O 	0.49460 0.06580 0.24950 -0.28700
O 	O 	0.44390 0.10140 0.40730 -0.54600
O 	O 	0.65930 0.99880 0.38260 -0.39600
O 	O 	0.78570 0.90360 0.42250 -0.39400
O 	O 	0.84420 0.80030 0.25900 -0.12400
O 	O 	0.95090 0.64240 0.05840 -0.44300
O 	O 	0.00320 0.65900 0.18500 -0.49000
O 	O 	0.77310 0.34920 0.78540 -0.37100
O 	O 	0.64160 0.47080 0.84030 -0.23000
O 	O 	0.66700 0.27310 0.67970 -0.13800
O 	O 	0.70150 0.10190 0.58050 -0.44300
O 	O 	0.54180 0.13240 0.55110 -0.44500
O 	O 	0.97870 0.41930 0.13670 -0.37500
O 	O 	0.13800 0.44640 0.16350 -0.43300
O 	O 	0.11070 0.26630 0.26940 -0.12200
O 	O 	0.24640 0.16390 0.34720 -0.38500
O 	O 	0.13490 0.03970 0.41110 -0.45000
C 	C 	0.76460 0.37740 0.06850 0.24100
C 	C 	0.69950 0.33020 0.17100 0.05700
C 	C 	0.68090 0.36050 0.26130 -0.05100
H 	H 	0.71210 0.42170 0.27440 0.07100
C 	C 	0.60590 0.28350 0.33280 -0.04100
H 	H 	0.57720 0.28270 0.40300 0.06500
C 	C 	0.58350 0.21170 0.28080 0.03800
C 	C 	0.50470 0.11780 0.31080 0.30300
C 	C 	0.73320 0.92950 0.36770 0.32600
C 	C 	0.76130 0.87430 0.27690 0.05100
C 	C 	0.71800 0.87900 0.20760 -0.05600
H 	H 	0.65910 0.92310 0.20430 0.09800
C 	C 	0.77810 0.80450 0.14020 -0.00100
H 	H 	0.76770 0.78970 0.08240 0.05700
C 	C 	0.85310 0.75860 0.17430 0.00300
C 	C 	0.94250 0.67940 0.13600 0.42800
C 	C 	0.68300 0.39750 0.78990 0.29000
C 	C 	0.62400 0.35970 0.73040 0.06200
C 	C 	0.52830 0.39160 0.71840 -0.05000
H 	H 	0.48310 0.44960 0.74540 0.07700
C 	C 	0.50900 0.32060 0.65700 -0.02400
H 	H 	0.44840 0.32250 0.63490 0.05900
C 	C 	0.59370 0.25030 0.63630 0.02200
C 	C 	0.61430 0.15390 0.58440 0.35000
C 	C 	0.04860 0.39460 0.17350 0.29600
C 	C 	0.02570 0.29480 0.23800 -0.02800
C 	C 	0.93670 0.22500 0.27710 0.00100
H 	H 	0.86790 0.22660 0.26630 0.05100
C 	C 	0.96540 0.14820 0.33790 0.05000
H 	H 	0.91920 0.08920 0.37650 0.02200
C 	C 	0.07170 0.17620 0.32970 -0.05900
C 	C 	0.15120 0.12910 0.37120 0.37800
O 	O 	0.09650 0.06010 0.44980 0.02900
Zn	Zn	0.71718 0.95218 0.55789 1.24700
Zn	Zn	0.15528 0.59715 0.13187 1.23300
O 	O 	0.18120 0.53740 0.94360 -0.41900
O 	O 	0.24210 0.67010 0.00030 -0.49500
O 	O 	0.36020 0.76230 0.81850 -0.11400
O 	O 	0.50540 0.93420 0.75050 -0.20900
O 	O 	0.55610 0.89860 0.59270 -0.51000
O 	O 	0.34070 0.00120 0.61740 -0.46800
O 	O 	0.21430 0.09640 0.57750 -0.43600
O 	O 	0.15580 0.19970 0.74100 -0.15700
O 	O 	0.04910 0.35760 0.94160 -0.39600
O 	O 	0.99680 0.34100 0.81500 -0.37700
O 	O 	0.22690 0.65080 0.21460 -0.38400
O 	O 	0.35840 0.52920 0.15970 -0.26500
O 	O 	0.33300 0.72690 0.32030 -0.13900
O 	O 	0.29850 0.89810 0.41950 -0.38900
O 	O 	0.45820 0.86760 0.44890 -0.41100
O 	O 	0.02130 0.58070 0.86330 -0.44200
O 	O 	0.86200 0.55360 0.83650 -0.41700
O 	O 	0.88930 0.73370 0.73060 -0.14500
O 	O 	0.75360 0.83610 0.65280 -0.34300
O 	O 	0.86510 0.96030 0.58890 -0.38600
C 	C 	0.23540 0.62260 0.93150 0.43000
C 	C 	0.30050 0.66980 0.82900 0.00700
C 	C 	0.31910 0.63950 0.73870 -0.01100
H 	H 	0.28790 0.57830 0.72560 0.05300
C 	C 	0.39410 0.71650 0.66720 -0.05600
H 	H 	0.42280 0.71730 0.59700 0.07300
C 	C 	0.41650 0.78830 0.71920 0.05700
C 	C 	0.49530 0.88220 0.68920 0.30700
C 	C 	0.26680 0.07050 0.63230 0.33400
C 	C 	0.23870 0.12570 0.72310 0.02200
C 	C 	0.28200 0.12100 0.79240 -0.03100
H 	H 	0.34090 0.07690 0.79570 0.06600
C 	C 	0.22190 0.19550 0.85980 -0.04500
H 	H 	0.23230 0.21030 0.91760 0.08400
C 	C 	0.14690 0.24140 0.82570 0.04600
C 	C 	0.05750 0.32060 0.86400 0.29700
C 	C 	0.31700 0.60250 0.21010 0.29500
C 	C 	0.37600 0.64030 0.26960 0.04900
C 	C 	0.47170 0.60840 0.28160 -0.04700
H 	H 	0.51690 0.55040 0.25460 0.06900
C 	C 	0.49100 0.67940 0.34300 -0.03100
H 	H 	0.55160 0.67750 0.36510 0.06200
C 	C 	0.40630 0.74970 0.36370 0.02800
C 	C 	0.38570 0.84610 0.41560 0.34600
C 	C 	0.95140 0.60540 0.82650 0.39300
C 	C 	0.97430 0.70520 0.76200 0.08000
C 	C 	0.06330 0.77500 0.72290 -0.06500
H 	H 	0.13210 0.77340 0.73370 0.08200
C 	C 	0.03460 0.85180 0.66210 -0.08000
H 	H 	0.08080 0.91080 0.62350 0.08900
C 	C 	0.92830 0.82380 0.67030 0.10700
C 	C 	0.84880 0.87090 0.62880 0.32600
O 	O 	0.90350 0.93990 0.55020 0.07700
Zn	Zn	0.50000 0.00000 0.50000 1.21500
Zn	Zn	0.00000 0.50000 -0.00000 1.19800
