data_crystal

_cell_length_a 14.58900
_cell_length_b 15.28500
_cell_length_c 22.75800
_cell_angle_alpha 84.67900
_cell_angle_beta  84.32300
_cell_angle_gamma 86.39600

_symmetry_space_group_name_	'P 1'
_symmetry_space_group_name_H-M	'P 1'

loop_
_symmetry_equiv_pos_as_xyz
  x,y,z

loop_
_atom_site_label
_atom_site_type_symbol
_atom_site_fract_x
_atom_site_fract_y
_atom_site_fract_z
_atom_site_charge
C 	C 	0.07840 0.68150 0.18690 0.25300
H 	H 	0.09490 0.73430 0.19910 -0.04300
O 	O 	0.09860 0.75000 0.68720 -0.52800
O 	O 	0.14460 0.62370 0.73990 -0.56500
C 	C 	0.09250 0.67080 0.70180 0.54800
C 	C 	0.02710 0.62090 0.67890 -0.35000
C 	C 	0.95700 0.66720 0.64800 0.27400
H 	H 	0.95800 0.72790 0.64000 -0.05500
C 	C 	0.02820 0.53110 0.68940 0.30400
H 	H 	0.07390 0.50070 0.71010 -0.06200
C 	C 	0.88790 0.62300 0.63010 -0.36600
H 	H 	0.84080 0.65310 0.61050 0.17800
C 	C 	0.96050 0.48690 0.66880 -0.39500
H 	H 	0.96350 0.42570 0.67330 0.18300
O 	O 	0.82990 0.70490 0.23140 -0.57400
O 	O 	0.94020 0.79510 0.23670 -0.45800
C 	C 	0.91360 0.72040 0.22330 0.45500
C 	C 	0.98650 0.65970 0.19490 -0.29600
C 	C 	0.96090 0.58330 0.17640 0.26100
H 	H 	0.89960 0.56870 0.18120 -0.06100
C 	C 	0.03030 0.52660 0.14960 -0.38900
H 	H 	0.01490 0.47400 0.13660 0.17800
O 	O 	0.98420 0.09340 0.24780 -0.45500
O 	O 	0.89050 0.99910 0.21910 -0.56100
C 	C 	0.97520 0.03330 0.21630 0.41200
C 	C 	0.04960 0.99710 0.17420 -0.27000
C 	C 	0.03240 0.93930 0.13240 0.25200
H 	H 	0.97360 0.91960 0.13140 -0.04300
C 	C 	0.13850 0.02380 0.17590 0.24300
H 	H 	0.15050 0.05990 0.20460 -0.03700
C 	C 	0.20770 0.99800 0.13630 -0.37500
H 	H 	0.26650 0.01830 0.13640 0.18000
C 	C 	0.10240 0.91280 0.09370 -0.38900
H 	H 	0.09170 0.87520 0.06550 0.17000
O 	O 	0.68350 0.98010 0.20130 -0.52500
O 	O 	0.68640 0.10120 0.24220 -0.55800
C 	C 	0.64920 0.05940 0.20820 0.63400
C 	C 	0.57130 0.08910 0.17800 -0.53100
C 	C 	0.53460 0.17680 0.18800 0.45100
H 	H 	0.56310 0.21080 0.21190 -0.11700
O 	O 	0.66830 0.80040 0.29170 -0.61100
O 	O 	0.57220 0.69720 0.31820 -0.47300
C 	C 	0.59230 0.77560 0.31710 0.45500
C 	C 	0.52310 0.84290 0.34290 -0.28900
C 	C 	0.43990 0.81610 0.37180 0.23700
H 	H 	0.42670 0.75700 0.37760 -0.04500
C 	C 	0.45950 0.20850 0.16290 -0.56000
H 	H 	0.43210 0.26290 0.17170 0.24600
O 	O 	0.74390 0.54850 0.28630 -0.56200
O 	O 	0.68030 0.43360 0.33840 -0.48800
C 	C 	0.70840 0.50900 0.33620 0.44700
Eu	Eu	0.17849 0.87216 0.71523 1.97000
Eu	Eu	0.32717 0.33367 0.77222 1.94400
Eu	Eu	0.20615 0.12089 0.75749 2.05000
Eu	Eu	0.28959 0.59951 0.76387 2.18900
C 	C 	0.22640 0.75940 0.84770 0.62400
C 	C 	0.43020 0.75300 0.62750 -0.25400
C 	C 	0.21420 0.07660 0.63730 0.44700
C 	C 	0.24210 0.06650 0.57400 -0.31900
C 	C 	0.27120 0.17220 0.93440 -0.33000
C 	C 	0.19660 0.10640 0.52800 0.26500
H 	H 	0.14530 0.14380 0.53680 -0.05600
C 	C 	0.19350 0.88680 0.91530 0.39700
H 	H 	0.16050 0.91850 0.88660 -0.10100
C 	C 	0.33650 0.77290 0.65910 0.46600
C 	C 	0.32010 0.18460 0.04540 0.43900
C 	C 	0.38940 0.18710 0.99970 -0.42700
H 	H 	0.45060 0.19270 0.00630 0.18300
C 	C 	0.36340 0.18080 0.94390 0.30600
H 	H 	0.40810 0.18230 0.91180 -0.07900
C 	C 	0.22290 0.09390 0.46940 -0.38500
H 	H 	0.18840 0.12030 0.43980 0.18200
C 	C 	0.20360 0.16940 0.98160 0.31800
H 	H 	0.14200 0.16340 0.97610 -0.07400
C 	C 	0.68970 0.65060 0.48960 0.41800
C 	C 	0.30020 0.04220 0.45550 0.39200
C 	C 	0.70470 0.55640 0.38900 -0.30400
C 	C 	0.20150 0.92240 0.96590 -0.53200
H 	H 	0.17390 0.97770 0.97220 0.22600
C 	C 	0.64180 0.53600 0.75050 0.21600
H 	H 	0.63450 0.56570 0.78470 -0.03600
C 	C 	0.50370 0.71550 0.65680 0.21700
H 	H 	0.49500 0.70150 0.69750 -0.04300
C 	C 	0.47430 0.52170 0.76620 0.44600
O 	O 	0.23640 0.50380 0.84470 -0.60600
C 	C 	0.31730 0.01290 0.55990 0.25700
H 	H 	0.34800 0.98240 0.59010 -0.05000
C 	C 	0.64610 0.53210 0.43960 0.26500
H 	H 	0.61260 0.48220 0.44030 -0.05000
C 	C 	0.75100 0.67220 0.44360 -0.40900
H 	H 	0.78930 0.71790 0.44570 0.19600
C 	C 	0.75850 0.62720 0.39270 0.27700
H 	H 	0.80000 0.64490 0.36080 -0.06800
C 	C 	0.39300 0.96900 0.38090 0.38100
C 	C 	0.47190 0.99450 0.35130 -0.37500
H 	H 	0.48220 0.05410 0.34370 0.17700
C 	C 	0.23140 0.17560 0.03600 -0.45000
H 	H 	0.18730 0.17350 0.06850 0.20200
C 	C 	0.44700 0.77480 0.56610 0.19500
H 	H 	0.40060 0.80430 0.54560 -0.02700
C 	C 	0.23280 0.80410 0.90390 -0.39900
C 	C 	0.60360 0.71660 0.56630 0.35100
C 	C 	0.57820 0.45830 0.68200 0.27400
H 	H 	0.52820 0.43180 0.67020 -0.05800
C 	C 	0.28560 0.76090 0.94580 0.33000
H 	H 	0.31520 0.70670 0.93860 -0.07400
C 	C 	0.24860 0.87880 0.00680 0.45300
C 	C 	0.34980 0.00230 0.50040 -0.37500
H 	H 	0.40400 0.96890 0.49140 0.16600
C 	C 	0.56640 0.50020 0.73110 -0.29900
C 	C 	0.63670 0.58000 0.48870 -0.39900
H 	H 	0.59460 0.56450 0.52080 0.17800
C 	C 	0.58950 0.69810 0.62740 -0.33600
H 	H 	0.63780 0.67410 0.64850 0.16300
C 	C 	0.42290 0.16060 0.12400 0.51600
C 	C 	0.29500 0.79650 0.99770 -0.44200
H 	H 	0.33070 0.76760 0.02600 0.19100
C 	C 	0.37750 0.88120 0.39160 -0.37100
H 	H 	0.32270 0.86470 0.41300 0.16600
O 	O 	0.23650 0.02160 0.67630 -0.61100
O 	O 	0.31670 0.73510 0.71010 -0.58300
O 	O 	0.16520 0.14650 0.65180 -0.43900
O 	O 	0.30020 0.19560 0.82780 -0.58300
O 	O 	0.17220 0.13400 0.86520 -0.43600
O 	O 	0.26810 0.69290 0.83830 -0.60600
O 	O 	0.28220 0.82970 0.63420 -0.48800
O 	O 	0.17000 0.80020 0.81360 -0.52700
O 	O 	0.29540 0.37550 0.86750 -0.62600
C 	C 	0.24740 0.16960 0.87470 0.45400
O 	O 	0.34160 0.19520 0.10170 -0.40200
O 	O 	0.68830 0.69700 0.53790 -0.36000
O 	O 	0.26440 0.91610 0.05890 -0.37100
O 	O 	0.32550 0.03350 0.39750 -0.35500
O 	O 	0.41280 0.46680 0.76250 -0.60300
C 	C 	0.26210 0.44420 0.88290 0.71400
C 	C 	0.23620 0.46070 0.94460 -0.61700
O 	O 	0.45180 0.59340 0.78580 -0.48200
C 	C 	0.53510 0.04800 0.13900 0.50900
H 	H 	0.56230 0.99360 0.13010 -0.13000
C 	C 	0.46050 0.07900 0.11050 -0.58400
H 	H 	0.43620 0.04700 0.08350 0.24300
C 	C 	0.66080 0.45240 0.64830 -0.39000
H 	H 	0.66630 0.42330 0.61390 0.18300
C 	C 	0.73440 0.48930 0.66530 0.36700
C 	C 	0.53990 0.93110 0.33140 0.24900
H 	H 	0.59500 0.94850 0.31090 -0.06300
C 	C 	0.18980 0.94140 0.09580 0.38600
C 	C 	0.72980 0.52790 0.71870 -0.34700
H 	H 	0.78210 0.54730 0.73280 0.16600
C 	C 	0.18700 0.53040 0.96310 0.57100
H 	H 	0.16240 0.57070 0.93490 -0.15600
O 	O 	0.81520 0.48450 0.62740 -0.33300
C 	C 	0.88930 0.52970 0.64210 0.36700
C 	C 	0.19940 0.48330 0.06270 0.59700
C 	C 	0.25610 0.41500 0.04390 -0.67300
H 	H 	0.28420 0.37630 0.07160 0.28700
C 	C 	0.53250 0.75320 0.53490 -0.32900
H 	H 	0.54080 0.76340 0.49380 0.15400
C 	C 	0.27180 0.40290 0.98700 0.58300
H 	H 	0.30800 0.35400 0.97550 -0.15800
O 	O 	0.18890 0.49200 0.12230 -0.41700
C 	C 	0.12040 0.54990 0.14300 0.41700
C 	C 	0.14560 0.62500 0.16090 -0.40800
H 	H 	0.20710 0.63920 0.15600 0.18200
C 	C 	0.17030 0.54660 0.02180 -0.65100
H 	H 	0.14030 0.59880 0.03300 0.26100
C 	C 	0.92160 0.31850 0.81310 0.25400
H 	H 	0.90510 0.26570 0.80090 -0.04200
O 	O 	0.90140 0.25000 0.31280 -0.52700
O 	O 	0.85540 0.37630 0.26010 -0.56400
C 	C 	0.90750 0.32920 0.29820 0.54900
C 	C 	0.97290 0.37910 0.32110 -0.34900
C 	C 	0.04300 0.33280 0.35200 0.27400
H 	H 	0.04200 0.27210 0.36000 -0.05500
C 	C 	0.97180 0.46890 0.31060 0.30400
H 	H 	0.92610 0.49930 0.28990 -0.06200
C 	C 	0.11210 0.37700 0.36990 -0.36600
H 	H 	0.15920 0.34690 0.38950 0.17800
C 	C 	0.03950 0.51310 0.33120 -0.39500
H 	H 	0.03650 0.57430 0.32670 0.18300
O 	O 	0.17010 0.29510 0.76860 -0.57400
O 	O 	0.05980 0.20490 0.76330 -0.45800
C 	C 	0.08640 0.27960 0.77670 0.45500
C 	C 	0.01350 0.34030 0.80510 -0.29600
C 	C 	0.03910 0.41670 0.82360 0.26100
H 	H 	0.10040 0.43130 0.81880 -0.06100
C 	C 	0.96970 0.47340 0.85040 -0.38900
H 	H 	0.98510 0.52600 0.86340 0.17800
O 	O 	0.01580 0.90660 0.75220 -0.45500
O 	O 	0.10950 0.00090 0.78090 -0.56100
C 	C 	0.02480 0.96670 0.78370 0.41200
C 	C 	0.95040 0.00290 0.82580 -0.27000
C 	C 	0.96760 0.06070 0.86760 0.25200
H 	H 	0.02640 0.08040 0.86860 -0.04300
C 	C 	0.86150 0.97620 0.82410 0.24300
H 	H 	0.84950 0.94010 0.79540 -0.03700
C 	C 	0.79230 0.00200 0.86370 -0.37500
H 	H 	0.73350 0.98170 0.86360 0.18000
C 	C 	0.89760 0.08720 0.90630 -0.38900
H 	H 	0.90830 0.12480 0.93450 0.17000
O 	O 	0.31650 0.01990 0.79870 -0.52500
O 	O 	0.31360 0.89880 0.75780 -0.55800
C 	C 	0.35080 0.94060 0.79180 0.63400
C 	C 	0.42870 0.91090 0.82200 -0.53100
C 	C 	0.46540 0.82320 0.81200 0.45100
H 	H 	0.43690 0.78920 0.78810 -0.11700
O 	O 	0.33170 0.19960 0.70830 -0.61100
O 	O 	0.42780 0.30280 0.68180 -0.47300
C 	C 	0.40770 0.22440 0.68290 0.45500
C 	C 	0.47690 0.15710 0.65710 -0.28900
C 	C 	0.56010 0.18390 0.62820 0.23700
H 	H 	0.57330 0.24300 0.62240 -0.04500
C 	C 	0.54050 0.79150 0.83710 -0.56000
H 	H 	0.56790 0.73710 0.82830 0.24600
O 	O 	0.25610 0.45150 0.71370 -0.56200
O 	O 	0.31970 0.56640 0.66160 -0.48800
C 	C 	0.29160 0.49100 0.66380 0.44700
Eu	Eu	0.82151 0.12784 0.28477 1.97000
Eu	Eu	0.67283 0.66633 0.22778 1.94400
Eu	Eu	0.79385 0.87911 0.24251 2.05000
Eu	Eu	0.71041 0.40049 0.23613 2.18900
C 	C 	0.77360 0.24060 0.15230 0.62400
C 	C 	0.56980 0.24700 0.37250 -0.25400
C 	C 	0.78580 0.92340 0.36270 0.44700
C 	C 	0.75790 0.93350 0.42600 -0.31900
C 	C 	0.72880 0.82780 0.06560 -0.33000
C 	C 	0.80340 0.89360 0.47200 0.26500
H 	H 	0.85470 0.85620 0.46320 -0.05600
C 	C 	0.80650 0.11320 0.08470 0.39700
H 	H 	0.83950 0.08150 0.11340 -0.10100
C 	C 	0.66350 0.22710 0.34090 0.46600
C 	C 	0.67990 0.81540 0.95460 0.43900
C 	C 	0.61060 0.81290 0.00030 -0.42700
H 	H 	0.54940 0.80730 0.99370 0.18300
C 	C 	0.63660 0.81920 0.05610 0.30600
H 	H 	0.59190 0.81770 0.08820 -0.07900
C 	C 	0.77710 0.90610 0.53060 -0.38500
H 	H 	0.81160 0.87970 0.56020 0.18200
C 	C 	0.79640 0.83060 0.01840 0.31800
H 	H 	0.85800 0.83660 0.02390 -0.07400
C 	C 	0.31030 0.34940 0.51040 0.41800
C 	C 	0.69980 0.95780 0.54450 0.39200
C 	C 	0.29530 0.44360 0.61100 -0.30400
C 	C 	0.79850 0.07760 0.03410 -0.53200
H 	H 	0.82610 0.02230 0.02780 0.22600
C 	C 	0.35820 0.46400 0.24950 0.21600
H 	H 	0.36550 0.43430 0.21530 -0.03600
C 	C 	0.49630 0.28450 0.34320 0.21700
H 	H 	0.50500 0.29850 0.30250 -0.04300
C 	C 	0.52570 0.47830 0.23380 0.44600
O 	O 	0.76360 0.49620 0.15530 -0.60600
C 	C 	0.68270 0.98710 0.44010 0.25700
H 	H 	0.65200 0.01760 0.40990 -0.05000
C 	C 	0.35390 0.46790 0.56040 0.26500
H 	H 	0.38740 0.51780 0.55970 -0.05000
C 	C 	0.24900 0.32780 0.55640 -0.40900
H 	H 	0.21070 0.28210 0.55430 0.19600
C 	C 	0.24150 0.37280 0.60730 0.27700
H 	H 	0.20000 0.35510 0.63920 -0.06800
C 	C 	0.60700 0.03100 0.61910 0.38100
C 	C 	0.52810 0.00550 0.64870 -0.37500
H 	H 	0.51780 0.94590 0.65630 0.17700
C 	C 	0.76860 0.82440 0.96400 -0.45000
H 	H 	0.81270 0.82650 0.93150 0.20200
C 	C 	0.55300 0.22520 0.43390 0.19500
H 	H 	0.59940 0.19570 0.45440 -0.02700
C 	C 	0.76720 0.19590 0.09610 -0.39900
C 	C 	0.39640 0.28340 0.43370 0.35100
C 	C 	0.42180 0.54170 0.31800 0.27400
H 	H 	0.47180 0.56820 0.32980 -0.05800
C 	C 	0.71440 0.23910 0.05420 0.33000
H 	H 	0.68480 0.29330 0.06140 -0.07400
C 	C 	0.75140 0.12120 0.99320 0.45300
C 	C 	0.65020 0.99770 0.49960 -0.37500
H 	H 	0.59600 0.03110 0.50860 0.16600
C 	C 	0.43360 0.49980 0.26890 -0.29900
C 	C 	0.36330 0.42000 0.51130 -0.39900
H 	H 	0.40540 0.43550 0.47920 0.17800
C 	C 	0.41050 0.30190 0.37260 -0.33600
H 	H 	0.36220 0.32590 0.35150 0.16300
C 	C 	0.57710 0.83940 0.87600 0.51600
C 	C 	0.70500 0.20350 0.00230 -0.44200
H 	H 	0.66930 0.23240 0.97400 0.19100
C 	C 	0.62250 0.11880 0.60840 -0.37100
H 	H 	0.67730 0.13530 0.58700 0.16600
O 	O 	0.76350 0.97840 0.32370 -0.61100
O 	O 	0.68330 0.26490 0.28990 -0.58300
O 	O 	0.83480 0.85350 0.34820 -0.43900
O 	O 	0.69980 0.80440 0.17220 -0.58300
O 	O 	0.82780 0.86600 0.13480 -0.43600
O 	O 	0.73190 0.30710 0.16170 -0.60600
O 	O 	0.71780 0.17030 0.36580 -0.48800
O 	O 	0.83000 0.19980 0.18640 -0.52700
O 	O 	0.70460 0.62450 0.13250 -0.62600
C 	C 	0.75260 0.83040 0.12530 0.45400
O 	O 	0.65840 0.80480 0.89830 -0.40200
O 	O 	0.31170 0.30300 0.46210 -0.36000
O 	O 	0.73560 0.08390 0.94110 -0.37100
O 	O 	0.67450 0.96650 0.60250 -0.35500
O 	O 	0.58720 0.53320 0.23750 -0.60300
C 	C 	0.73790 0.55580 0.11710 0.71400
C 	C 	0.76380 0.53930 0.05540 -0.61700
O 	O 	0.54820 0.40660 0.21420 -0.48200
C 	C 	0.46490 0.95200 0.86100 0.50900
H 	H 	0.43770 0.00640 0.86990 -0.13000
C 	C 	0.53950 0.92100 0.88950 -0.58400
H 	H 	0.56380 0.95300 0.91650 0.24300
C 	C 	0.33920 0.54760 0.35170 -0.39000
H 	H 	0.33370 0.57670 0.38610 0.18300
C 	C 	0.26560 0.51070 0.33470 0.36700
C 	C 	0.46010 0.06890 0.66860 0.24900
H 	H 	0.40500 0.05150 0.68910 -0.06300
C 	C 	0.81020 0.05860 0.90420 0.38600
C 	C 	0.27020 0.47210 0.28130 -0.34700
H 	H 	0.21790 0.45270 0.26720 0.16600
C 	C 	0.81300 0.46960 0.03690 0.57100
H 	H 	0.83760 0.42930 0.06510 -0.15600
O 	O 	0.18480 0.51550 0.37260 -0.33300
C 	C 	0.11070 0.47030 0.35790 0.36700
C 	C 	0.80060 0.51670 0.93730 0.59700
C 	C 	0.74390 0.58500 0.95610 -0.67300
H 	H 	0.71580 0.62370 0.92840 0.28700
C 	C 	0.46750 0.24680 0.46510 -0.32900
H 	H 	0.45920 0.23660 0.50620 0.15400
C 	C 	0.72820 0.59710 0.01300 0.58300
H 	H 	0.69200 0.64600 0.02450 -0.15800
O 	O 	0.81110 0.50800 0.87770 -0.41700
C 	C 	0.87960 0.45010 0.85700 0.41700
C 	C 	0.85440 0.37500 0.83910 -0.40800
H 	H 	0.79290 0.36080 0.84400 0.18200
C 	C 	0.82970 0.45340 0.97820 -0.65100
H 	H 	0.85970 0.40120 0.96700 0.26100
