data_crystal

_cell_length_a 14.60400
_cell_length_b 15.30900
_cell_length_c 22.87000
_cell_angle_alpha 84.60300
_cell_angle_beta  83.64000
_cell_angle_gamma 86.65500

_symmetry_space_group_name_	'P 1'
_symmetry_space_group_name_H-M	'P 1'

loop_
_symmetry_equiv_pos_as_xyz
  x,y,z

loop_
_atom_site_label
_atom_site_type_symbol
_atom_site_fract_x
_atom_site_fract_y
_atom_site_fract_z
_atom_site_charge
Sm	Sm	0.70782 0.62002 0.25937 2.18300
O 	O 	0.61040 0.50080 0.28080 -0.63000
O 	O 	0.79960 0.69630 0.32860 -0.61600
O 	O 	0.67360 0.63150 0.36690 -0.46900
O 	O 	0.56160 0.70310 0.26640 -0.50500
O 	O 	0.83310 0.70100 0.20950 -0.64400
O 	O 	0.66980 0.79340 0.27160 -0.60300
O 	O 	0.81670 0.51980 0.30030 -0.55700
O 	O 	0.73950 0.51950 0.17860 -0.60900
O 	O 	0.66770 0.64530 0.15440 -0.46500
Sm	Sm	0.68093 0.37056 0.21673 2.09200
C 	C 	0.53140 0.46660 0.28560 0.46800
Sm	Sm	0.82876 0.83360 0.27233 2.03400
C 	C 	0.74660 0.66600 0.37390 0.46300
C 	C 	0.58630 0.77450 0.28000 0.51700
C 	C 	0.71310 0.57940 0.13910 0.41600
O 	O 	0.51810 0.40320 0.25670 -0.47100
O 	O 	0.78650 0.32690 0.13460 -0.50600
O 	O 	0.81950 0.23430 0.20980 -0.60100
O 	O 	0.81670 0.39570 0.25700 -0.54300
O 	O 	0.66840 0.30000 0.31280 -0.55600
O 	O 	0.60140 0.24830 0.19100 -0.54900
C 	C 	0.45520 0.50130 0.32750 -0.29800
O 	O 	0.91330 0.96340 0.26060 -0.63600
O 	O 	0.75820 0.95200 0.21250 -0.58900
O 	O 	0.92940 0.80410 0.17950 -0.47300
O 	O 	0.80310 0.87100 0.36910 -0.56000
C 	C 	0.77370 0.67170 0.43430 -0.28900
C 	C 	0.51630 0.83830 0.30590 -0.36900
C 	C 	0.74230 0.56640 0.07600 -0.28900
C 	C 	0.46980 0.55820 0.36820 0.28400
C 	C 	0.36590 0.47390 0.32600 0.25100
Sm	Sm	0.79191 0.09765 0.26424 2.26400
C 	C 	0.97580 0.01750 0.26180 0.43400
C 	C 	0.79180 0.98980 0.16390 0.46500
C 	C 	0.86500 0.68130 0.44190 0.26500
C 	C 	0.70750 0.66840 0.48240 0.25000
C 	C 	0.53880 0.91620 0.32250 0.33100
C 	C 	0.42670 0.81560 0.31520 0.32100
C 	C 	0.82160 0.51210 0.06230 0.23400
C 	C 	0.69840 0.60730 0.03130 0.24300
C 	C 	0.39790 0.58700 0.40670 -0.41300
H 	H 	0.52870 0.57730 0.36970 -0.05600
C 	C 	0.29520 0.50330 0.36480 -0.37700
H 	H 	0.35450 0.43570 0.29860 -0.03900
O 	O 	0.95610 0.08790 0.28640 -0.47300
O 	O 	0.82180 0.06690 0.16080 -0.49300
O 	O 	0.76720 0.19300 0.33830 -0.59000
O 	O 	0.64620 0.12520 0.24080 -0.59800
O 	O 	0.73750 0.99940 0.34220 -0.59300
C 	C 	0.06910 0.00310 0.23210 -0.27800
C 	C 	0.79420 0.94440 0.10990 -0.32700
H 	H 	0.90920 0.68450 0.40930 -0.06800
C 	C 	0.89100 0.68630 0.49780 -0.37900
H 	H 	0.64610 0.66150 0.47730 -0.04900
C 	C 	0.73240 0.67520 0.53780 -0.37000
H 	H 	0.59960 0.93280 0.31650 -0.08700
C 	C 	0.46910 0.97190 0.34910 -0.44700
H 	H 	0.41130 0.76130 0.30520 -0.06500
C 	C 	0.35850 0.87160 0.33920 -0.44700
H 	H 	0.85380 0.48450 0.09230 -0.04400
C 	C 	0.85130 0.50010 0.00370 -0.37100
H 	H 	0.64820 0.64580 0.04010 -0.05000
C 	C 	0.72560 0.59380 0.97350 -0.35400
H 	H 	0.40860 0.62590 0.43380 0.17900
C 	C 	0.31210 0.55960 0.40580 0.39700
H 	H 	0.23580 0.48540 0.36360 0.18000
C 	C 	0.07890 0.95800 0.18110 0.20900
C 	C 	0.14640 0.03620 0.25010 0.23400
C 	C 	0.85350 0.96960 0.06080 0.29100
C 	C 	0.74160 0.87410 0.10840 0.29100
H 	H 	0.95250 0.69090 0.50340 0.16700
C 	C 	0.82330 0.68430 0.54510 0.37200
H 	H 	0.68790 0.67370 0.57020 0.17600
H 	H 	0.48450 0.02450 0.36180 0.19600
C 	C 	0.38090 0.94970 0.35610 0.44400
H 	H 	0.29740 0.85600 0.34380 0.19400
C 	C 	0.80360 0.53980 0.95980 0.37200
H 	H 	0.90400 0.46490 0.99440 0.16500
H 	H 	0.69230 0.62040 0.94360 0.17000
O 	O 	0.23580 0.58690 0.44200 -0.36800
H 	H 	0.02850 0.93220 0.16950 -0.04000
C 	C 	0.16370 0.95220 0.14810 -0.33500
H 	H 	0.14090 0.06430 0.28470 -0.03900
C 	C 	0.23100 0.02840 0.21790 -0.36100
H 	H 	0.88950 0.01760 0.06120 -0.06300
C 	C 	0.86000 0.92380 0.01090 -0.40600
H 	H 	0.70130 0.85670 0.14130 -0.07500
C 	C 	0.74740 0.82820 0.05860 -0.39500
O 	O 	0.84280 0.69770 0.60170 -0.36200
O 	O 	0.31310 0.00790 0.37790 -0.37800
O 	O 	0.82750 0.53250 0.90100 -0.35000
C 	C 	0.24920 0.62380 0.49360 0.42300
C 	C 	0.24030 0.98840 0.16540 0.35500
H 	H 	0.16970 0.92350 0.11370 0.16300
H 	H 	0.28240 0.05000 0.23130 0.16800
C 	C 	0.80790 0.85350 0.01020 0.40100
H 	H 	0.90000 0.94130 0.97790 0.17900
H 	H 	0.71080 0.78070 0.05790 0.19000
C 	C 	0.92200 0.66180 0.62280 0.41200
C 	C 	0.29900 0.01620 0.43710 0.40400
C 	C 	0.89410 0.46820 0.88440 0.38700
C 	C 	0.29800 0.57810 0.53510 -0.45600
C 	C 	0.20800 0.70370 0.50220 -0.41900
O 	O 	0.31960 0.98170 0.12850 -0.35600
O 	O 	0.80910 0.80580 0.96170 -0.36300
C 	C 	0.96060 0.58020 0.60990 -0.41500
C 	C 	0.95750 0.70850 0.66200 -0.42000
C 	C 	0.24450 0.08770 0.45350 -0.39700
C 	C 	0.33090 0.95480 0.48020 -0.41300
C 	C 	0.97300 0.49290 0.85290 -0.40000
C 	C 	0.87750 0.38090 0.89690 -0.37000
H 	H 	0.32510 0.52310 0.52820 0.20200
C 	C 	0.30670 0.61350 0.58660 0.34500
C 	C 	0.21860 0.74020 0.55520 0.29800
H 	H 	0.17380 0.73360 0.47400 0.18300
C 	C 	0.39200 0.02800 0.14290 0.43700
C 	C 	0.89740 0.78570 0.93330 0.42900
C 	C 	0.03660 0.54630 0.63720 0.29900
H 	H 	0.93570 0.54840 0.58330 0.18200
C 	C 	0.03300 0.67470 0.68860 0.31400
H 	H 	0.93070 0.76310 0.67060 0.19900
C 	C 	0.22690 0.10090 0.51300 0.29000
H 	H 	0.21970 0.12680 0.42510 0.19500
C 	C 	0.31120 0.96810 0.53910 0.30900
H 	H 	0.36540 0.90490 0.46910 0.17700
C 	C 	0.03880 0.43000 0.83270 0.28000
H 	H 	0.98370 0.55220 0.84450 0.18600
C 	C 	0.94210 0.31660 0.87610 0.23000
H 	H 	0.82310 0.36430 0.91930 0.16600
H 	H 	0.33940 0.58190 0.61500 -0.08600
C 	C 	0.26790 0.69530 0.59710 -0.37400
H 	H 	0.19180 0.79550 0.56190 -0.06400
C 	C 	0.46100 0.98340 0.16860 -0.43400
C 	C 	0.39270 0.11590 0.12950 -0.44800
C 	C 	0.90960 0.80310 0.87420 -0.43500
C 	C 	0.96440 0.74620 0.96350 -0.43400
C 	C 	0.07230 0.59250 0.67780 -0.35800
H 	H 	0.06390 0.49210 0.62810 -0.06300
H 	H 	0.05830 0.70760 0.71450 -0.06900
C 	C 	0.25890 0.03980 0.55430 -0.35200
H 	H 	0.19350 0.15110 0.52460 -0.05400
H 	H 	0.33370 0.92830 0.56800 -0.07300
H 	H 	0.09290 0.44790 0.81050 -0.07800
C 	C 	0.02520 0.34260 0.84480 -0.30600
H 	H 	0.92980 0.25740 0.88310 -0.04300
C 	C 	0.27770 0.73860 0.65250 0.59700
H 	H 	0.46220 0.92240 0.17350 0.19800
C 	C 	0.53090 0.02800 0.18800 0.31700
C 	C 	0.45990 0.16330 0.14810 0.32400
H 	H 	0.34790 0.14440 0.10780 0.20600
C 	C 	0.99490 0.78520 0.84310 0.32300
H 	H 	0.86080 0.82710 0.85410 0.19800
C 	C 	0.04960 0.72790 0.93330 0.30100
H 	H 	0.95370 0.73150 0.00400 0.19100
C 	C 	0.15090 0.55550 0.70870 0.56300
C 	C 	0.23740 0.05750 0.61800 0.53900
C 	C 	0.09150 0.27510 0.81780 0.46000
H 	H 	0.57790 0.99800 0.20720 -0.06900
C 	C 	0.52780 0.11760 0.17770 -0.36300
H 	H 	0.45940 0.22410 0.14090 -0.07600
C 	C 	0.06440 0.74840 0.87310 -0.34700
H 	H 	0.00400 0.79820 0.80240 -0.08800
H 	H 	0.09720 0.70160 0.95360 -0.06500
C 	C 	0.59590 0.16800 0.20440 0.57600
C 	C 	0.15880 0.72910 0.84210 0.50100
Sm	Sm	0.29218 0.37998 0.74063 2.18400
O 	O 	0.38960 0.49920 0.71920 -0.62900
O 	O 	0.20040 0.30370 0.67140 -0.61500
O 	O 	0.32640 0.36850 0.63310 -0.46800
O 	O 	0.43840 0.29690 0.73360 -0.50400
O 	O 	0.16690 0.29900 0.79050 -0.64300
O 	O 	0.33020 0.20660 0.72840 -0.60200
O 	O 	0.18330 0.48020 0.69970 -0.55600
O 	O 	0.26050 0.48050 0.82140 -0.60800
O 	O 	0.33230 0.35470 0.84560 -0.46400
Sm	Sm	0.31907 0.62944 0.78327 2.09300
C 	C 	0.46860 0.53340 0.71440 0.46900
Sm	Sm	0.17124 0.16640 0.72767 2.03400
C 	C 	0.25340 0.33400 0.62610 0.46300
C 	C 	0.41370 0.22550 0.72000 0.51700
C 	C 	0.28690 0.42060 0.86090 0.41600
O 	O 	0.48190 0.59680 0.74330 -0.47100
O 	O 	0.21350 0.67310 0.86540 -0.50600
O 	O 	0.18050 0.76570 0.79020 -0.60100
O 	O 	0.18330 0.60430 0.74300 -0.54300
O 	O 	0.33160 0.70000 0.68720 -0.55600
O 	O 	0.39860 0.75170 0.80900 -0.54900
C 	C 	0.54480 0.49870 0.67250 -0.29800
O 	O 	0.08670 0.03660 0.73940 -0.63600
O 	O 	0.24180 0.04800 0.78750 -0.58900
O 	O 	0.07060 0.19590 0.82050 -0.47300
O 	O 	0.19690 0.12900 0.63090 -0.56000
C 	C 	0.22630 0.32830 0.56570 -0.28900
C 	C 	0.48370 0.16170 0.69410 -0.36900
C 	C 	0.25770 0.43360 0.92400 -0.28900
C 	C 	0.53020 0.44180 0.63180 0.28400
C 	C 	0.63410 0.52610 0.67400 0.25100
Sm	Sm	0.20809 0.90235 0.73576 2.26400
C 	C 	0.02420 0.98250 0.73820 0.43400
C 	C 	0.20820 0.01020 0.83610 0.46500
C 	C 	0.13500 0.31870 0.55810 0.26500
C 	C 	0.29250 0.33160 0.51760 0.25000
C 	C 	0.46120 0.08380 0.67750 0.33100
C 	C 	0.57330 0.18440 0.68480 0.32100
C 	C 	0.17840 0.48790 0.93770 0.23400
C 	C 	0.30160 0.39270 0.96870 0.24300
C 	C 	0.60210 0.41300 0.59330 -0.41300
H 	H 	0.47130 0.42270 0.63030 -0.05600
C 	C 	0.70480 0.49670 0.63520 -0.37700
H 	H 	0.64550 0.56430 0.70140 -0.03900
O 	O 	0.04390 0.91210 0.71360 -0.47300
O 	O 	0.17820 0.93310 0.83920 -0.49300
O 	O 	0.23280 0.80700 0.66170 -0.59000
O 	O 	0.35380 0.87480 0.75920 -0.59800
O 	O 	0.26250 0.00060 0.65780 -0.59300
C 	C 	0.93090 0.99690 0.76790 -0.27800
C 	C 	0.20580 0.05560 0.89010 -0.32700
H 	H 	0.09080 0.31550 0.59070 -0.06800
C 	C 	0.10900 0.31370 0.50220 -0.37900
H 	H 	0.35390 0.33850 0.52270 -0.04900
C 	C 	0.26760 0.32480 0.46220 -0.37000
H 	H 	0.40040 0.06720 0.68350 -0.08700
C 	C 	0.53090 0.02810 0.65090 -0.44700
H 	H 	0.58870 0.23870 0.69480 -0.06500
C 	C 	0.64150 0.12840 0.66080 -0.44700
H 	H 	0.14620 0.51550 0.90770 -0.04400
C 	C 	0.14870 0.49990 0.99630 -0.37100
H 	H 	0.35180 0.35420 0.95990 -0.05000
C 	C 	0.27440 0.40620 0.02650 -0.35400
H 	H 	0.59140 0.37410 0.56620 0.17900
C 	C 	0.68790 0.44040 0.59420 0.39700
H 	H 	0.76420 0.51460 0.63640 0.18000
C 	C 	0.92110 0.04200 0.81890 0.20900
C 	C 	0.85360 0.96380 0.74990 0.23400
C 	C 	0.14650 0.03040 0.93920 0.29100
C 	C 	0.25840 0.12590 0.89160 0.29100
H 	H 	0.04750 0.30910 0.49660 0.16700
C 	C 	0.17670 0.31570 0.45490 0.37200
H 	H 	0.31210 0.32630 0.42980 0.17600
H 	H 	0.51550 0.97550 0.63820 0.19600
C 	C 	0.61910 0.05030 0.64390 0.44400
H 	H 	0.70260 0.14400 0.65620 0.19400
C 	C 	0.19640 0.46020 0.04020 0.37200
H 	H 	0.09600 0.53510 0.00560 0.16500
H 	H 	0.30770 0.37960 0.05640 0.17000
O 	O 	0.76420 0.41310 0.55800 -0.36800
H 	H 	0.97150 0.06780 0.83050 -0.04000
C 	C 	0.83630 0.04780 0.85190 -0.33500
H 	H 	0.85910 0.93570 0.71530 -0.03900
C 	C 	0.76900 0.97160 0.78210 -0.36100
H 	H 	0.11050 0.98240 0.93880 -0.06300
C 	C 	0.14000 0.07620 0.98910 -0.40600
H 	H 	0.29870 0.14330 0.85870 -0.07500
C 	C 	0.25260 0.17180 0.94140 -0.39500
O 	O 	0.15720 0.30230 0.39830 -0.36200
O 	O 	0.68690 0.99210 0.62210 -0.37800
O 	O 	0.17250 0.46750 0.09900 -0.35000
C 	C 	0.75080 0.37620 0.50640 0.42300
C 	C 	0.75970 0.01160 0.83460 0.35500
H 	H 	0.83030 0.07650 0.88630 0.16300
H 	H 	0.71760 0.95000 0.76870 0.16800
C 	C 	0.19210 0.14650 0.98980 0.40100
H 	H 	0.10000 0.05870 0.02210 0.17900
H 	H 	0.28920 0.21930 0.94210 0.19000
C 	C 	0.07800 0.33820 0.37720 0.41200
C 	C 	0.70100 0.98380 0.56290 0.40400
C 	C 	0.10590 0.53180 0.11560 0.38700
C 	C 	0.70200 0.42190 0.46490 -0.45600
C 	C 	0.79200 0.29630 0.49780 -0.41900
O 	O 	0.68040 0.01830 0.87150 -0.35600
O 	O 	0.19090 0.19420 0.03830 -0.36300
C 	C 	0.03940 0.41980 0.39010 -0.41500
C 	C 	0.04250 0.29150 0.33800 -0.42000
C 	C 	0.75550 0.91230 0.54650 -0.39700
C 	C 	0.66910 0.04520 0.51980 -0.41300
C 	C 	0.02700 0.50710 0.14710 -0.40000
C 	C 	0.12250 0.61910 0.10310 -0.37000
H 	H 	0.67490 0.47690 0.47180 0.20200
C 	C 	0.69330 0.38650 0.41340 0.34500
C 	C 	0.78140 0.25980 0.44480 0.29800
H 	H 	0.82620 0.26640 0.52600 0.18300
C 	C 	0.60800 0.97200 0.85710 0.43700
C 	C 	0.10260 0.21430 0.06670 0.42900
C 	C 	0.96340 0.45370 0.36280 0.29900
H 	H 	0.06430 0.45160 0.41670 0.18200
C 	C 	0.96700 0.32530 0.31140 0.31400
H 	H 	0.06930 0.23690 0.32940 0.19900
C 	C 	0.77310 0.89910 0.48700 0.29000
H 	H 	0.78030 0.87320 0.57490 0.19500
C 	C 	0.68880 0.03190 0.46090 0.30900
H 	H 	0.63460 0.09510 0.53090 0.17700
C 	C 	0.96120 0.57000 0.16730 0.28000
H 	H 	0.01630 0.44780 0.15550 0.18600
C 	C 	0.05790 0.68340 0.12390 0.23000
H 	H 	0.17690 0.63570 0.08070 0.16600
H 	H 	0.66060 0.41810 0.38500 -0.08600
C 	C 	0.73210 0.30470 0.40290 -0.37400
H 	H 	0.80820 0.20450 0.43810 -0.06400
C 	C 	0.53900 0.01660 0.83140 -0.43400
C 	C 	0.60730 0.88410 0.87050 -0.44800
C 	C 	0.09040 0.19690 0.12580 -0.43500
C 	C 	0.03560 0.25380 0.03650 -0.43400
C 	C 	0.92770 0.40750 0.32220 -0.35800
H 	H 	0.93610 0.50790 0.37190 -0.06300
H 	H 	0.94170 0.29240 0.28550 -0.06900
C 	C 	0.74110 0.96020 0.44570 -0.35200
H 	H 	0.80650 0.84890 0.47540 -0.05400
H 	H 	0.66630 0.07170 0.43200 -0.07300
H 	H 	0.90710 0.55210 0.18950 -0.07800
C 	C 	0.97480 0.65740 0.15520 -0.30600
H 	H 	0.07020 0.74260 0.11690 -0.04300
C 	C 	0.72230 0.26140 0.34750 0.59700
H 	H 	0.53780 0.07760 0.82650 0.19800
C 	C 	0.46910 0.97200 0.81200 0.31700
C 	C 	0.54010 0.83670 0.85190 0.32400
H 	H 	0.65210 0.85560 0.89220 0.20600
C 	C 	0.00510 0.21480 0.15690 0.32300
H 	H 	0.13920 0.17290 0.14590 0.19800
C 	C 	0.95040 0.27210 0.06670 0.30100
H 	H 	0.04630 0.26850 0.99600 0.19100
C 	C 	0.84910 0.44450 0.29130 0.56300
C 	C 	0.76260 0.94250 0.38200 0.53900
C 	C 	0.90850 0.72490 0.18220 0.46000
H 	H 	0.42210 0.00200 0.79280 -0.06900
C 	C 	0.47220 0.88240 0.82230 -0.36300
H 	H 	0.54060 0.77590 0.85910 -0.07600
C 	C 	0.93560 0.25160 0.12690 -0.34700
H 	H 	0.99600 0.20180 0.19760 -0.08800
H 	H 	0.90280 0.29840 0.04640 -0.06500
C 	C 	0.40410 0.83200 0.79560 0.57600
C 	C 	0.84120 0.27090 0.15790 0.50100
