data_crystal

_cell_length_a 13.54970
_cell_length_b 10.85670
_cell_length_c 14.62630
_cell_angle_alpha 90.00000
_cell_angle_beta  109.78400
_cell_angle_gamma 90.00000

_symmetry_space_group_name_	'P 1'
_symmetry_space_group_name_H-M	'P 1'

loop_
_symmetry_equiv_pos_as_xyz
  x,y,z

loop_
_atom_site_label
_atom_site_type_symbol
_atom_site_fract_x
_atom_site_fract_y
_atom_site_fract_z
_atom_site_charge
Co	Co	0.40360 0.91509 0.45713 1.17000
Co	Co	0.50478 0.02144 0.29475 1.17200
O 	O 	0.29680 0.03794 0.36946 -0.43000
O 	O 	0.39120 0.14730 0.29933 -0.42600
O 	O 	0.37994 0.42022 0.23512 -0.40200
O 	O 	0.31740 0.28750 0.11241 -0.29000
O 	O 	0.63307 0.28409 0.15489 -0.40600
O 	O 	0.62777 0.40562 0.27721 -0.39100
O 	O 	0.61649 0.16122 0.34814 -0.43100
O 	O 	0.71499 0.15399 0.50453 -0.42300
O 	O 	0.53840 0.95638 0.43331 -0.79200
C 	C 	0.31033 0.12697 0.32111 0.35700
C 	C 	0.22212 0.21774 0.28523 -0.04400
C 	C 	0.13632 0.20416 0.31635 -0.04200
H 	H 	0.13550 0.13860 0.35700 0.06200
C 	C 	0.05165 0.28536 0.28874 0.01300
C 	C 	0.05525 0.38263 0.22808 -0.06800
H 	H 	-0.00000 0.43850 0.20870 0.05800
C 	C 	0.13960 0.39770 0.19614 -0.00400
H 	H 	0.14000 0.46340 0.15540 0.03900
C 	C 	0.22458 0.31568 0.22406 -0.04400
C 	C 	0.31566 0.34098 0.18794 0.33900
C 	C 	0.96249 0.26643 0.32567 0.04600
C 	C 	0.86047 0.30092 0.26957 -0.07200
H 	H 	0.84840 0.33940 0.21000 0.07500
C 	C 	0.77705 0.27824 0.30199 -0.01000
C 	C 	0.79318 0.21686 0.39036 -0.07900
C 	C 	0.89514 0.18574 0.44722 0.01800
H 	H 	0.90730 0.14800 0.50710 0.03900
C 	C 	0.97901 0.21036 0.41574 -0.08500
H 	H 	0.04670 0.18940 0.45490 0.06500
C 	C 	0.66919 0.32407 0.24038 0.33800
C 	C 	0.70095 0.17488 0.41692 0.37200
H 	H 	0.58520 0.89770 0.44180 0.27500
Co	Co	0.59640 0.41509 0.04287 1.16900
Co	Co	0.49522 0.52144 0.20525 1.17200
O 	O 	0.70320 0.53794 0.13054 -0.43000
O 	O 	0.60880 0.64730 0.20067 -0.42600
O 	O 	0.62006 0.92022 0.26488 -0.40100
O 	O 	0.68260 0.78750 0.38759 -0.28900
O 	O 	0.36693 0.78409 0.34511 -0.40500
O 	O 	0.37223 0.90562 0.22279 -0.39000
O 	O 	0.38351 0.66122 0.15186 -0.43200
O 	O 	0.28501 0.65399 0.99547 -0.42600
O 	O 	0.46160 0.45638 0.06669 -0.79200
C 	C 	0.68967 0.62697 0.17889 0.35700
C 	C 	0.77788 0.71774 0.21477 -0.04500
C 	C 	0.86368 0.70416 0.18365 -0.04100
H 	H 	0.86450 0.63860 0.14300 0.06300
C 	C 	0.94835 0.78536 0.21126 0.01700
C 	C 	0.94475 0.88263 0.27192 -0.04900
H 	H 	0.00000 0.93850 0.29130 0.05000
C 	C 	0.86040 0.89770 0.30386 -0.01200
H 	H 	0.86000 0.96340 0.34460 0.04400
C 	C 	0.77542 0.81568 0.27594 -0.04000
C 	C 	0.68434 0.84098 0.31206 0.33800
C 	C 	0.03751 0.76643 0.17433 0.04700
C 	C 	0.13953 0.80092 0.23043 -0.07600
H 	H 	0.15160 0.83940 0.29000 0.07500
C 	C 	0.22295 0.77824 0.19801 -0.00500
C 	C 	0.20682 0.71686 0.10964 -0.08800
C 	C 	0.10486 0.68574 0.05278 0.03800
H 	H 	0.09270 0.64800 0.99290 0.02800
C 	C 	0.02099 0.71036 0.08426 -0.11900
H 	H 	0.95330 0.68940 0.04510 0.08500
C 	C 	0.33081 0.82407 0.25962 0.33600
C 	C 	0.29905 0.67488 0.08308 0.37600
H 	H 	0.41480 0.39770 0.05820 0.27400
Co	Co	0.59640 0.08491 0.54287 1.16900
Co	Co	0.49522 0.97856 0.70525 1.17200
O 	O 	0.70320 0.96206 0.63054 -0.43000
O 	O 	0.60880 0.85270 0.70067 -0.42600
O 	O 	0.62006 0.57978 0.76488 -0.40200
O 	O 	0.68260 0.71250 0.88759 -0.28900
O 	O 	0.36693 0.71591 0.84511 -0.40600
O 	O 	0.37223 0.59438 0.72279 -0.39100
O 	O 	0.38351 0.83878 0.65186 -0.43200
O 	O 	0.28501 0.84601 0.49547 -0.42500
O 	O 	0.46160 0.04362 0.56669 -0.79200
C 	C 	0.68967 0.87303 0.67889 0.35700
C 	C 	0.77788 0.78226 0.71477 -0.04500
C 	C 	0.86368 0.79584 0.68365 -0.04200
H 	H 	0.86450 0.86140 0.64300 0.06300
C 	C 	0.94835 0.71464 0.71126 0.01800
C 	C 	0.94475 0.61737 0.77192 -0.05100
H 	H 	0.00000 0.56150 0.79130 0.05000
C 	C 	0.86040 0.60230 0.80386 -0.01100
H 	H 	0.86000 0.53660 0.84460 0.04300
C 	C 	0.77542 0.68432 0.77594 -0.04100
C 	C 	0.68434 0.65902 0.81206 0.33800
C 	C 	0.03751 0.73357 0.67433 0.04600
C 	C 	0.13953 0.69908 0.73043 -0.07600
H 	H 	0.15160 0.66060 0.79000 0.07500
C 	C 	0.22295 0.72176 0.69801 -0.00600
C 	C 	0.20682 0.78314 0.60964 -0.08700
C 	C 	0.10486 0.81426 0.55278 0.03500
H 	H 	0.09270 0.85200 0.49290 0.03000
C 	C 	0.02099 0.78964 0.58426 -0.12000
H 	H 	0.95330 0.81060 0.54510 0.08500
C 	C 	0.33081 0.67593 0.75962 0.33600
C 	C 	0.29905 0.82512 0.58308 0.37400
H 	H 	0.41480 0.10230 0.55820 0.27500
Co	Co	0.40360 0.58491 0.95713 1.16900
Co	Co	0.50478 0.47856 0.79475 1.17200
O 	O 	0.29680 0.46206 0.86946 -0.43000
O 	O 	0.39120 0.35270 0.79933 -0.42600
O 	O 	0.37994 0.07978 0.73512 -0.40100
O 	O 	0.31740 0.21250 0.61241 -0.28900
O 	O 	0.63307 0.21591 0.65489 -0.40500
O 	O 	0.62777 0.09438 0.77721 -0.39000
O 	O 	0.61649 0.33878 0.84814 -0.43100
O 	O 	0.71499 0.34601 0.00453 -0.42500
O 	O 	0.53840 0.54362 0.93331 -0.79200
C 	C 	0.31033 0.37303 0.82111 0.35700
C 	C 	0.22212 0.28226 0.78523 -0.04500
C 	C 	0.13632 0.29584 0.81635 -0.04200
H 	H 	0.13550 0.36140 0.85700 0.06100
C 	C 	0.05165 0.21464 0.78874 0.01300
C 	C 	0.05525 0.11737 0.72808 -0.06700
H 	H 	0.00000 0.06150 0.70870 0.05900
C 	C 	0.13960 0.10230 0.69614 -0.00500
H 	H 	0.14000 0.03660 0.65540 0.04000
C 	C 	0.22458 0.18432 0.72406 -0.04400
C 	C 	0.31566 0.15902 0.68794 0.33900
C 	C 	0.96249 0.23357 0.82567 0.04800
C 	C 	0.86047 0.19908 0.76957 -0.07300
H 	H 	0.84840 0.16060 0.71000 0.07600
C 	C 	0.77705 0.22176 0.80199 -0.00900
C 	C 	0.79318 0.28314 0.89036 -0.08000
C 	C 	0.89514 0.31426 0.94722 0.02200
H 	H 	0.90730 0.35200 0.00710 0.03700
C 	C 	0.97901 0.28964 0.91574 -0.08600
H 	H 	0.04670 0.31060 0.95490 0.06500
C 	C 	0.66919 0.17593 0.74038 0.33700
C 	C 	0.70095 0.32512 0.91692 0.37400
H 	H 	0.58520 0.60230 0.94180 0.27500
