data_crystal

_cell_length_a 13.47010
_cell_length_b 10.82980
_cell_length_c 14.68830
_cell_angle_alpha 90.00000
_cell_angle_beta  109.83000
_cell_angle_gamma 90.00000

_symmetry_space_group_name_	'P 1'
_symmetry_space_group_name_H-M	'P 1'

loop_
_symmetry_equiv_pos_as_xyz
  x,y,z

loop_
_atom_site_label
_atom_site_type_symbol
_atom_site_fract_x
_atom_site_fract_y
_atom_site_fract_z
_atom_site_charge
Co	Co	0.40150 0.91712 0.45566 1.19900
Co	Co	0.50557 0.02088 0.29887 1.18900
O 	O 	0.29650 0.03870 0.36800 -0.42800
O 	O 	0.39160 0.14680 0.29700 -0.41800
O 	O 	0.38050 0.42430 0.23450 -0.40900
O 	O 	0.31550 0.29150 0.11150 -0.31200
O 	O 	0.63290 0.28390 0.15410 -0.40200
O 	O 	0.62440 0.40510 0.27540 -0.38700
O 	O 	0.61480 0.16240 0.35020 -0.43200
O 	O 	0.71450 0.15590 0.50500 -0.42900
O 	O 	0.54030 0.95390 0.43640 -1.43400
C 	C 	0.31060 0.12830 0.31980 0.35400
C 	C 	0.22230 0.22020 0.28480 -0.04500
C 	C 	0.13640 0.20640 0.31630 -0.04400
H 	H 	0.13570 0.13990 0.35620 0.06200
C 	C 	0.05180 0.28750 0.29070 0.01800
C 	C 	0.05480 0.38690 0.22980 -0.06600
H 	H 	0.99900 0.44270 0.21080 0.06000
C 	C 	0.13890 0.40290 0.19790 -0.00600
H 	H 	0.13960 0.46950 0.15810 0.04100
C 	C 	0.22450 0.31880 0.22490 -0.04100
C 	C 	0.31540 0.34420 0.18770 0.33400
C 	C 	0.96240 0.26870 0.32710 0.04500
C 	C 	0.86030 0.30110 0.27100 -0.07300
H 	H 	0.84840 0.33870 0.21130 0.07400
C 	C 	0.77520 0.27860 0.30230 -0.00900
C 	C 	0.79190 0.21890 0.39060 -0.08400
C 	C 	0.89480 0.18930 0.44870 0.02700
H 	H 	0.90700 0.15280 0.50890 0.03500
C 	C 	0.97880 0.21390 0.41730 -0.10300
H 	H 	0.04700 0.19380 0.45670 0.07500
C 	C 	0.66830 0.32340 0.24000 0.33100
C 	C 	0.69970 0.17590 0.41780 0.38000
H 	H 	0.57000 0.90600 0.43600 0.82100
H 	H 	0.55900 0.03500 0.46500 0.07700
Co	Co	0.59850 0.41712 0.04434 1.19700
Co	Co	0.49443 0.52088 0.20113 1.18900
O 	O 	0.70350 0.53870 0.13200 -0.42800
O 	O 	0.60840 0.64680 0.20300 -0.41800
O 	O 	0.61950 0.92430 0.26550 -0.40700
O 	O 	0.68450 0.79150 0.38850 -0.31200
O 	O 	0.36710 0.78390 0.34590 -0.40200
O 	O 	0.37560 0.90510 0.22460 -0.38600
O 	O 	0.38520 0.66240 0.14980 -0.43200
O 	O 	0.28550 0.65590 0.99500 -0.43100
O 	O 	0.45970 0.45390 0.06360 -1.43600
C 	C 	0.68940 0.62830 0.18020 0.35400
C 	C 	0.77770 0.72020 0.21520 -0.04500
C 	C 	0.86360 0.70640 0.18370 -0.04300
H 	H 	0.86430 0.63990 0.14380 0.06100
C 	C 	0.94820 0.78750 0.20930 0.01600
C 	C 	0.94520 0.88690 0.27020 -0.06300
H 	H 	0.00100 0.94270 0.28920 0.05900
C 	C 	0.86110 0.90290 0.30210 -0.00800
H 	H 	0.86040 0.96950 0.34190 0.04200
C 	C 	0.77550 0.81880 0.27510 -0.04000
C 	C 	0.68460 0.84420 0.31230 0.33400
C 	C 	0.03760 0.76870 0.17290 0.04700
C 	C 	0.13970 0.80110 0.22900 -0.07400
H 	H 	0.15160 0.83870 0.28870 0.07400
C 	C 	0.22480 0.77860 0.19770 -0.00800
C 	C 	0.20810 0.71890 0.10940 -0.08500
C 	C 	0.10520 0.68930 0.05130 0.03000
H 	H 	0.09300 0.65280 0.99110 0.03300
C 	C 	0.02120 0.71390 0.08270 -0.10300
H 	H 	0.95300 0.69380 0.04330 0.07500
C 	C 	0.33170 0.82340 0.26000 0.33000
C 	C 	0.30030 0.67590 0.08220 0.38200
H 	H 	0.43000 0.40600 0.06400 0.82100
H 	H 	0.44100 0.53500 0.03500 0.07800
Co	Co	0.59850 0.08288 0.54434 1.19800
Co	Co	0.49443 0.97912 0.70113 1.18800
O 	O 	0.70350 0.96130 0.63200 -0.42800
O 	O 	0.60840 0.85320 0.70300 -0.41800
O 	O 	0.61950 0.57570 0.76550 -0.40900
O 	O 	0.68450 0.70850 0.88850 -0.31200
O 	O 	0.36710 0.71610 0.84590 -0.40200
O 	O 	0.37560 0.59490 0.72460 -0.38700
O 	O 	0.38520 0.83760 0.64980 -0.43200
O 	O 	0.28550 0.84410 0.49500 -0.42900
O 	O 	0.45970 0.04610 0.56360 -1.43400
C 	C 	0.68940 0.87170 0.68020 0.35400
C 	C 	0.77770 0.77980 0.71520 -0.04500
C 	C 	0.86360 0.79360 0.68370 -0.04400
H 	H 	0.86430 0.86010 0.64380 0.06200
C 	C 	0.94820 0.71250 0.70930 0.01800
C 	C 	0.94520 0.61310 0.77020 -0.06600
H 	H 	0.00100 0.55730 0.78920 0.06000
C 	C 	0.86110 0.59710 0.80210 -0.00600
H 	H 	0.86040 0.53050 0.84190 0.04100
C 	C 	0.77550 0.68120 0.77510 -0.04100
C 	C 	0.68460 0.65580 0.81230 0.33400
C 	C 	0.03760 0.73130 0.67290 0.04500
C 	C 	0.13970 0.69890 0.72900 -0.07300
H 	H 	0.15160 0.66130 0.78870 0.07400
C 	C 	0.22480 0.72140 0.69770 -0.00900
C 	C 	0.20810 0.78110 0.60940 -0.08400
C 	C 	0.10520 0.81070 0.55130 0.02700
H 	H 	0.09300 0.84720 0.49110 0.03500
C 	C 	0.02120 0.78610 0.58270 -0.10300
H 	H 	0.95300 0.80620 0.54330 0.07500
C 	C 	0.33170 0.67660 0.76000 0.33100
C 	C 	0.30030 0.82410 0.58220 0.38000
H 	H 	0.43000 0.09400 0.56400 0.82100
H 	H 	0.44100 0.96500 0.53500 0.07700
Co	Co	0.40150 0.58288 0.95566 1.19700
Co	Co	0.50557 0.47912 0.79887 1.18900
O 	O 	0.29650 0.46130 0.86800 -0.42800
O 	O 	0.39160 0.35320 0.79700 -0.41800
O 	O 	0.38050 0.07570 0.73450 -0.40700
O 	O 	0.31550 0.20850 0.61150 -0.31200
O 	O 	0.63290 0.21610 0.65410 -0.40200
O 	O 	0.62440 0.09490 0.77540 -0.38600
O 	O 	0.61480 0.33760 0.85020 -0.43200
O 	O 	0.71450 0.34410 0.00500 -0.43100
O 	O 	0.54030 0.54610 0.93640 -1.43600
C 	C 	0.31060 0.37170 0.81980 0.35400
C 	C 	0.22230 0.27980 0.78480 -0.04500
C 	C 	0.13640 0.29360 0.81630 -0.04300
H 	H 	0.13570 0.36010 0.85620 0.06100
C 	C 	0.05180 0.21250 0.79070 0.01600
C 	C 	0.05480 0.11310 0.72980 -0.06300
H 	H 	0.99900 0.05730 0.71080 0.05900
C 	C 	0.13890 0.09710 0.69790 -0.00800
H 	H 	0.13960 0.03050 0.65810 0.04200
C 	C 	0.22450 0.18120 0.72490 -0.04000
C 	C 	0.31540 0.15580 0.68770 0.33400
C 	C 	0.96240 0.23130 0.82710 0.04700
C 	C 	0.86030 0.19890 0.77100 -0.07400
H 	H 	0.84840 0.16130 0.71130 0.07400
C 	C 	0.77520 0.22140 0.80230 -0.00800
C 	C 	0.79190 0.28110 0.89060 -0.08500
C 	C 	0.89480 0.31070 0.94870 0.03000
H 	H 	0.90700 0.34720 0.00890 0.03300
C 	C 	0.97880 0.28610 0.91730 -0.10300
H 	H 	0.04700 0.30620 0.95670 0.07500
C 	C 	0.66830 0.17660 0.74000 0.33000
C 	C 	0.69970 0.32410 0.91780 0.38200
H 	H 	0.57000 0.59400 0.93600 0.82100
H 	H 	0.55900 0.46500 0.96500 0.07800
