data_crystal

_cell_length_a 33.71860
_cell_length_b 7.94810
_cell_length_c 20.59100
_cell_angle_alpha 90.00000
_cell_angle_beta  90.00000
_cell_angle_gamma 90.00000

_symmetry_space_group_name_	'P 1'
_symmetry_space_group_name_H-M	'P 1'

loop_
_symmetry_equiv_pos_as_xyz
  x,y,z

loop_
_atom_site_label
_atom_site_type_symbol
_atom_site_fract_x
_atom_site_fract_y
_atom_site_fract_z
_atom_site_charge
C 	C 	0.87639 0.22020 0.97224 0.08200
H 	H 	0.89630 0.17920 0.94380 0.02100
C 	C 	0.83683 0.19170 0.95700 -0.14900
H 	H 	0.82950 0.13210 0.91890 0.09100
C 	C 	0.80722 0.24940 0.99800 0.10500
C 	C 	0.81901 0.33620 0.05350 -0.14500
H 	H 	0.79910 0.37720 0.08200 0.08500
C 	C 	0.85889 0.36030 0.06590 0.08300
H 	H 	0.86620 0.41990 0.10400 0.01700
C 	C 	0.76504 0.22440 0.98200 -0.08000
C 	C 	0.96411 0.25090 0.24748 -0.08800
C 	C 	0.96418 0.21240 0.31373 0.01100
H 	H 	0.93990 0.19880 0.33610 0.04800
Cu	Cu	0.94524 0.33315 0.05044 0.92200
N 	N 	0.88762 0.30280 0.02601 -0.21700
O 	O 	0.93048 0.37070 0.13967 -0.37300
O 	O 	0.90662 0.09440 0.17795 -0.45700
O 	O 	0.88838 0.35730 0.24241 -0.26300
O 	O 	0.03838 0.18710 0.46008 -0.39000
O 	O 	0.95914 0.05990 0.06995 -0.42400
P 	P 	0.91955 0.27588 0.20077 0.45200
H 	H 	0.76100 0.19900 0.93740 0.05900
H 	H 	0.89820 0.02100 0.20400 0.29400
H 	H 	0.94760 0.04400 0.11260 0.19700
H 	H 	0.98750 0.04700 0.07500 0.13200
C 	C 	0.37639 0.72020 0.97224 0.08300
H 	H 	0.39630 0.67920 0.94380 0.02200
C 	C 	0.33683 0.69170 0.95700 -0.14800
H 	H 	0.32950 0.63210 0.91890 0.09200
C 	C 	0.30722 0.74940 0.99800 0.10600
C 	C 	0.31901 0.83620 0.05350 -0.14400
H 	H 	0.29910 0.87720 0.08200 0.08600
C 	C 	0.35889 0.86030 0.06590 0.08400
H 	H 	0.36620 0.91990 0.10400 0.01800
C 	C 	0.26504 0.72440 0.98200 -0.07900
C 	C 	0.46411 0.75090 0.24748 -0.08500
C 	C 	0.46418 0.71240 0.31373 0.01400
H 	H 	0.43990 0.69880 0.33610 0.04800
Cu	Cu	0.44524 0.83315 0.05044 0.92300
N 	N 	0.38762 0.80280 0.02601 -0.21700
O 	O 	0.43048 0.87070 0.13967 -0.37300
O 	O 	0.40662 0.59440 0.17795 -0.45700
O 	O 	0.38838 0.85730 0.24241 -0.26300
O 	O 	0.53838 0.68710 0.46008 -0.38900
O 	O 	0.45914 0.55990 0.06995 -0.42500
P 	P 	0.41955 0.77588 0.20077 0.45200
H 	H 	0.26100 0.69900 0.93740 0.05900
H 	H 	0.39820 0.52100 0.20400 0.29500
H 	H 	0.44760 0.54400 0.11260 0.19800
H 	H 	0.48750 0.54700 0.07500 0.13400
C 	C 	0.12361 0.27980 0.47224 0.08300
H 	H 	0.10370 0.32080 0.44380 0.02200
C 	C 	0.16317 0.30830 0.45700 -0.14800
H 	H 	0.17050 0.36790 0.41890 0.09200
C 	C 	0.19278 0.25060 0.49800 0.10600
C 	C 	0.18099 0.16380 0.55350 -0.14400
H 	H 	0.20090 0.12280 0.58200 0.08600
C 	C 	0.14111 0.13970 0.56590 0.08400
H 	H 	0.13380 0.08010 0.60400 0.01800
C 	C 	0.23496 0.27560 0.48200 -0.07900
C 	C 	0.03589 0.24910 0.74748 -0.08500
C 	C 	0.03582 0.28760 0.81373 0.01400
H 	H 	0.06010 0.30120 0.83610 0.04800
Cu	Cu	0.05476 0.16685 0.55044 0.92300
N 	N 	0.11238 0.19720 0.52601 -0.21700
O 	O 	0.06952 0.12930 0.63967 -0.37300
O 	O 	0.09338 0.40560 0.67795 -0.45700
O 	O 	0.11162 0.14270 0.74241 -0.26300
O 	O 	0.96162 0.31290 0.96008 -0.39100
O 	O 	0.04086 0.44010 0.56995 -0.42500
P 	P 	0.08045 0.22412 0.70077 0.45200
H 	H 	0.23900 0.30100 0.43740 0.05900
H 	H 	0.10180 0.47900 0.70400 0.29500
H 	H 	0.05240 0.45600 0.61260 0.19800
H 	H 	0.01250 0.45300 0.57500 0.13600
C 	C 	0.62361 0.77980 0.47224 0.08300
H 	H 	0.60370 0.82080 0.44380 0.02200
C 	C 	0.66317 0.80830 0.45700 -0.14800
H 	H 	0.67050 0.86790 0.41890 0.09200
C 	C 	0.69278 0.75060 0.49800 0.10600
C 	C 	0.68099 0.66380 0.55350 -0.14400
H 	H 	0.70090 0.62280 0.58200 0.08600
C 	C 	0.64111 0.63970 0.56590 0.08400
H 	H 	0.63380 0.58010 0.60400 0.01800
C 	C 	0.73496 0.77560 0.48200 -0.07900
C 	C 	0.53589 0.74910 0.74748 -0.08500
C 	C 	0.53582 0.78760 0.81373 0.01400
H 	H 	0.56010 0.80120 0.83610 0.04800
Cu	Cu	0.55476 0.66685 0.55044 0.92300
N 	N 	0.61238 0.69720 0.52601 -0.21700
O 	O 	0.56952 0.62930 0.63967 -0.37300
O 	O 	0.59338 0.90560 0.67795 -0.45700
O 	O 	0.61162 0.64270 0.74241 -0.26300
O 	O 	0.46162 0.81290 0.96008 -0.38900
O 	O 	0.54086 0.94010 0.56995 -0.42500
P 	P 	0.58045 0.72412 0.70077 0.45200
H 	H 	0.73900 0.80100 0.43740 0.05900
H 	H 	0.60180 0.97900 0.70400 0.29400
H 	H 	0.55240 0.95600 0.61260 0.19700
H 	H 	0.51250 0.95300 0.57500 0.13400
C 	C 	0.12361 0.72020 0.52776 0.08300
H 	H 	0.10370 0.67920 0.55620 0.02200
C 	C 	0.16317 0.69170 0.54300 -0.14800
H 	H 	0.17050 0.63210 0.58110 0.09200
C 	C 	0.19278 0.74940 0.50200 0.10600
C 	C 	0.18099 0.83620 0.44650 -0.14400
H 	H 	0.20090 0.87720 0.41800 0.08600
C 	C 	0.14111 0.86030 0.43410 0.08400
H 	H 	0.13380 0.91990 0.39600 0.01800
C 	C 	0.23496 0.72440 0.51800 -0.07900
C 	C 	0.03589 0.75090 0.25252 -0.08500
C 	C 	0.03582 0.71240 0.18627 0.01400
H 	H 	0.06010 0.69880 0.16390 0.04800
Cu	Cu	0.05476 0.83315 0.44956 0.92300
N 	N 	0.11238 0.80280 0.47399 -0.21700
O 	O 	0.06952 0.87070 0.36033 -0.37300
O 	O 	0.09338 0.59440 0.32205 -0.45700
O 	O 	0.11162 0.85730 0.25759 -0.26300
O 	O 	0.96162 0.68710 0.03992 -0.39100
O 	O 	0.04086 0.55990 0.43005 -0.42500
P 	P 	0.08045 0.77588 0.29923 0.45200
H 	H 	0.23900 0.69900 0.56260 0.05900
H 	H 	0.10180 0.52100 0.29600 0.29500
H 	H 	0.05240 0.54400 0.38740 0.19800
H 	H 	0.01250 0.54700 0.42500 0.13600
C 	C 	0.62361 0.22020 0.52776 0.08300
H 	H 	0.60370 0.17920 0.55620 0.02200
C 	C 	0.66317 0.19170 0.54300 -0.14800
H 	H 	0.67050 0.13210 0.58110 0.09200
C 	C 	0.69278 0.24940 0.50200 0.10600
C 	C 	0.68099 0.33620 0.44650 -0.14400
H 	H 	0.70090 0.37720 0.41800 0.08600
C 	C 	0.64111 0.36030 0.43410 0.08400
H 	H 	0.63380 0.41990 0.39600 0.01800
C 	C 	0.73496 0.22440 0.51800 -0.07900
C 	C 	0.53589 0.25090 0.25252 -0.08500
C 	C 	0.53582 0.21240 0.18627 0.01400
H 	H 	0.56010 0.19880 0.16390 0.04800
Cu	Cu	0.55476 0.33315 0.44956 0.92300
N 	N 	0.61238 0.30280 0.47399 -0.21700
O 	O 	0.56952 0.37070 0.36033 -0.37300
O 	O 	0.59338 0.09440 0.32205 -0.45700
O 	O 	0.61162 0.35730 0.25759 -0.26300
O 	O 	0.46162 0.18710 0.03992 -0.38900
O 	O 	0.54086 0.05990 0.43005 -0.42500
P 	P 	0.58045 0.27588 0.29923 0.45200
H 	H 	0.73900 0.19900 0.56260 0.05900
H 	H 	0.60180 0.02100 0.29600 0.29400
H 	H 	0.55240 0.04400 0.38740 0.19700
H 	H 	0.51250 0.04700 0.42500 0.13400
C 	C 	0.87639 0.77980 0.02776 0.08300
H 	H 	0.89630 0.82080 0.05620 0.02200
C 	C 	0.83683 0.80830 0.04300 -0.14800
H 	H 	0.82950 0.86790 0.08110 0.09200
C 	C 	0.80722 0.75060 0.00200 0.10600
C 	C 	0.81901 0.66380 0.94650 -0.14400
H 	H 	0.79910 0.62280 0.91800 0.08600
C 	C 	0.85889 0.63970 0.93410 0.08400
H 	H 	0.86620 0.58010 0.89600 0.01800
C 	C 	0.76504 0.77560 0.01800 -0.07900
C 	C 	0.96411 0.74910 0.75252 -0.08700
C 	C 	0.96418 0.78760 0.68627 0.01200
H 	H 	0.93990 0.80120 0.66390 0.04800
Cu	Cu	0.94524 0.66685 0.94956 0.92200
N 	N 	0.88762 0.69720 0.97399 -0.21700
O 	O 	0.93048 0.62930 0.86033 -0.37300
O 	O 	0.90662 0.90560 0.82205 -0.45700
O 	O 	0.88838 0.64270 0.75759 -0.26300
O 	O 	0.03838 0.81290 0.53992 -0.39000
O 	O 	0.95914 0.94010 0.93005 -0.42400
P 	P 	0.91955 0.72412 0.79923 0.45200
H 	H 	0.76100 0.80100 0.06260 0.05900
H 	H 	0.89820 0.97900 0.79600 0.29400
H 	H 	0.94760 0.95600 0.88740 0.19700
H 	H 	0.98750 0.95300 0.92500 0.13200
C 	C 	0.37639 0.27980 0.02776 0.08300
H 	H 	0.39630 0.32080 0.05620 0.02200
C 	C 	0.33683 0.30830 0.04300 -0.14800
H 	H 	0.32950 0.36790 0.08110 0.09200
C 	C 	0.30722 0.25060 0.00200 0.10600
C 	C 	0.31901 0.16380 0.94650 -0.14400
H 	H 	0.29910 0.12280 0.91800 0.08600
C 	C 	0.35889 0.13970 0.93410 0.08400
H 	H 	0.36620 0.08010 0.89600 0.01800
C 	C 	0.26504 0.27560 0.01800 -0.07900
C 	C 	0.46411 0.24910 0.75252 -0.08500
C 	C 	0.46418 0.28760 0.68627 0.01400
H 	H 	0.43990 0.30120 0.66390 0.04800
Cu	Cu	0.44524 0.16685 0.94956 0.92300
N 	N 	0.38762 0.19720 0.97399 -0.21700
O 	O 	0.43048 0.12930 0.86033 -0.37300
O 	O 	0.40662 0.40560 0.82205 -0.45700
O 	O 	0.38838 0.14270 0.75759 -0.26300
O 	O 	0.53838 0.31290 0.53992 -0.38900
O 	O 	0.45914 0.44010 0.93005 -0.42500
P 	P 	0.41955 0.22412 0.79923 0.45200
H 	H 	0.26100 0.30100 0.06260 0.05900
H 	H 	0.39820 0.47900 0.79600 0.29500
H 	H 	0.44760 0.45600 0.88740 0.19800
H 	H 	0.48750 0.45300 0.92500 0.13400
C 	C 	0.12361 0.77980 0.02776 0.08300
H 	H 	0.10370 0.82080 0.05620 0.02200
C 	C 	0.16317 0.80830 0.04300 -0.14800
H 	H 	0.17050 0.86790 0.08110 0.09200
C 	C 	0.19278 0.75060 0.00200 0.10600
C 	C 	0.18099 0.66380 0.94650 -0.14400
H 	H 	0.20090 0.62280 0.91800 0.08600
C 	C 	0.14111 0.63970 0.93410 0.08400
H 	H 	0.13380 0.58010 0.89600 0.01800
C 	C 	0.23496 0.77560 0.01800 -0.07900
C 	C 	0.03589 0.74910 0.75252 -0.08600
C 	C 	0.03582 0.78760 0.68627 0.01400
H 	H 	0.06010 0.80120 0.66390 0.04800
Cu	Cu	0.05476 0.66685 0.94956 0.92300
N 	N 	0.11238 0.69720 0.97399 -0.21700
O 	O 	0.06952 0.62930 0.86033 -0.37300
O 	O 	0.09338 0.90560 0.82205 -0.45700
O 	O 	0.11162 0.64270 0.75759 -0.26300
O 	O 	0.96162 0.81290 0.53992 -0.39100
O 	O 	0.04086 0.94010 0.93005 -0.42500
P 	P 	0.08045 0.72412 0.79923 0.45200
H 	H 	0.23900 0.80100 0.06260 0.05900
H 	H 	0.10180 0.97900 0.79600 0.29400
H 	H 	0.05240 0.95600 0.88740 0.19800
H 	H 	0.01250 0.95300 0.92500 0.13600
C 	C 	0.62361 0.27980 0.02776 0.08300
H 	H 	0.60370 0.32080 0.05620 0.02200
C 	C 	0.66317 0.30830 0.04300 -0.14800
H 	H 	0.67050 0.36790 0.08110 0.09200
C 	C 	0.69278 0.25060 0.00200 0.10600
C 	C 	0.68099 0.16380 0.94650 -0.14400
H 	H 	0.70090 0.12280 0.91800 0.08600
C 	C 	0.64111 0.13970 0.93410 0.08400
H 	H 	0.63380 0.08010 0.89600 0.01800
C 	C 	0.73496 0.27560 0.01800 -0.07900
C 	C 	0.53589 0.24910 0.75252 -0.08500
C 	C 	0.53582 0.28760 0.68627 0.01400
H 	H 	0.56010 0.30120 0.66390 0.04800
Cu	Cu	0.55476 0.16685 0.94956 0.92300
N 	N 	0.61238 0.19720 0.97399 -0.21700
O 	O 	0.56952 0.12930 0.86033 -0.37300
O 	O 	0.59338 0.40560 0.82205 -0.45700
O 	O 	0.61162 0.14270 0.75759 -0.26300
O 	O 	0.46162 0.31290 0.53992 -0.38900
O 	O 	0.54086 0.44010 0.93005 -0.42500
P 	P 	0.58045 0.22412 0.79923 0.45200
H 	H 	0.73900 0.30100 0.06260 0.05900
H 	H 	0.60180 0.47900 0.79600 0.29500
H 	H 	0.55240 0.45600 0.88740 0.19800
H 	H 	0.51250 0.45300 0.92500 0.13400
C 	C 	0.87639 0.72020 0.52776 0.08300
H 	H 	0.89630 0.67920 0.55620 0.02200
C 	C 	0.83683 0.69170 0.54300 -0.14800
H 	H 	0.82950 0.63210 0.58110 0.09200
C 	C 	0.80722 0.74940 0.50200 0.10600
C 	C 	0.81901 0.83620 0.44650 -0.14400
H 	H 	0.79910 0.87720 0.41800 0.08600
C 	C 	0.85889 0.86030 0.43410 0.08400
H 	H 	0.86620 0.91990 0.39600 0.01800
C 	C 	0.76504 0.72440 0.51800 -0.07900
C 	C 	0.96411 0.75090 0.25252 -0.08700
C 	C 	0.96418 0.71240 0.18627 0.01200
H 	H 	0.93990 0.69880 0.16390 0.04900
Cu	Cu	0.94524 0.83315 0.44956 0.92200
N 	N 	0.88762 0.80280 0.47399 -0.21700
O 	O 	0.93048 0.87070 0.36033 -0.37300
O 	O 	0.90662 0.59440 0.32205 -0.45700
O 	O 	0.88838 0.85730 0.25759 -0.26300
O 	O 	0.03838 0.68710 0.03992 -0.38900
O 	O 	0.95914 0.55990 0.43005 -0.42400
P 	P 	0.91955 0.77588 0.29923 0.45200
H 	H 	0.76100 0.69900 0.56260 0.05900
H 	H 	0.89820 0.52100 0.29600 0.29500
H 	H 	0.94760 0.54400 0.38740 0.19700
H 	H 	0.98750 0.54700 0.42500 0.13200
C 	C 	0.37639 0.22020 0.52776 0.08300
H 	H 	0.39630 0.17920 0.55620 0.02200
C 	C 	0.33683 0.19170 0.54300 -0.14800
H 	H 	0.32950 0.13210 0.58110 0.09200
C 	C 	0.30722 0.24940 0.50200 0.10600
C 	C 	0.31901 0.33620 0.44650 -0.14400
H 	H 	0.29910 0.37720 0.41800 0.08600
C 	C 	0.35889 0.36030 0.43410 0.08400
H 	H 	0.36620 0.41990 0.39600 0.01800
C 	C 	0.26504 0.22440 0.51800 -0.07900
C 	C 	0.46411 0.25090 0.25252 -0.08500
C 	C 	0.46418 0.21240 0.18627 0.01400
H 	H 	0.43990 0.19880 0.16390 0.04800
Cu	Cu	0.44524 0.33315 0.44956 0.92300
N 	N 	0.38762 0.30280 0.47399 -0.21700
O 	O 	0.43048 0.37070 0.36033 -0.37300
O 	O 	0.40662 0.09440 0.32205 -0.45700
O 	O 	0.38838 0.35730 0.25759 -0.26300
O 	O 	0.53838 0.18710 0.03992 -0.38900
O 	O 	0.45914 0.05990 0.43005 -0.42500
P 	P 	0.41955 0.27588 0.29923 0.45200
H 	H 	0.26100 0.19900 0.56260 0.05900
H 	H 	0.39820 0.02100 0.29600 0.29400
H 	H 	0.44760 0.04400 0.38740 0.19700
H 	H 	0.48750 0.04700 0.42500 0.13400
C 	C 	0.87639 0.27980 0.47224 0.08300
H 	H 	0.89630 0.32080 0.44380 0.02200
C 	C 	0.83683 0.30830 0.45700 -0.14800
H 	H 	0.82950 0.36790 0.41890 0.09200
C 	C 	0.80722 0.25060 0.49800 0.10600
C 	C 	0.81901 0.16380 0.55350 -0.14400
H 	H 	0.79910 0.12280 0.58200 0.08600
C 	C 	0.85889 0.13970 0.56590 0.08400
H 	H 	0.86620 0.08010 0.60400 0.01800
C 	C 	0.76504 0.27560 0.48200 -0.07900
C 	C 	0.96411 0.24910 0.74748 -0.08700
C 	C 	0.96418 0.28760 0.81373 0.01200
H 	H 	0.93990 0.30120 0.83610 0.04900
Cu	Cu	0.94524 0.16685 0.55044 0.92200
N 	N 	0.88762 0.19720 0.52601 -0.21700
O 	O 	0.93048 0.12930 0.63967 -0.37300
O 	O 	0.90662 0.40560 0.67795 -0.45700
O 	O 	0.88838 0.14270 0.74241 -0.26300
O 	O 	0.03838 0.31290 0.96008 -0.38900
O 	O 	0.95914 0.44010 0.56995 -0.42400
P 	P 	0.91955 0.22412 0.70077 0.45200
H 	H 	0.76100 0.30100 0.43740 0.05900
H 	H 	0.89820 0.47900 0.70400 0.29500
H 	H 	0.94760 0.45600 0.61260 0.19700
H 	H 	0.98750 0.45300 0.57500 0.13200
C 	C 	0.37639 0.77980 0.47224 0.08300
H 	H 	0.39630 0.82080 0.44380 0.02200
C 	C 	0.33683 0.80830 0.45700 -0.14800
H 	H 	0.32950 0.86790 0.41890 0.09200
C 	C 	0.30722 0.75060 0.49800 0.10600
C 	C 	0.31901 0.66380 0.55350 -0.14400
H 	H 	0.29910 0.62280 0.58200 0.08600
C 	C 	0.35889 0.63970 0.56590 0.08400
H 	H 	0.36620 0.58010 0.60400 0.01800
C 	C 	0.26504 0.77560 0.48200 -0.07900
C 	C 	0.46411 0.74910 0.74748 -0.08500
C 	C 	0.46418 0.78760 0.81373 0.01400
H 	H 	0.43990 0.80120 0.83610 0.04800
Cu	Cu	0.44524 0.66685 0.55044 0.92300
N 	N 	0.38762 0.69720 0.52601 -0.21700
O 	O 	0.43048 0.62930 0.63967 -0.37300
O 	O 	0.40662 0.90560 0.67795 -0.45700
O 	O 	0.38838 0.64270 0.74241 -0.26300
O 	O 	0.53838 0.81290 0.96008 -0.38900
O 	O 	0.45914 0.94010 0.56995 -0.42500
P 	P 	0.41955 0.72412 0.70077 0.45200
H 	H 	0.26100 0.80100 0.43740 0.05900
H 	H 	0.39820 0.97900 0.70400 0.29400
H 	H 	0.44760 0.95600 0.61260 0.19700
H 	H 	0.48750 0.95300 0.57500 0.13400
C 	C 	0.12361 0.22020 0.97224 0.08300
H 	H 	0.10370 0.17920 0.94380 0.02200
C 	C 	0.16317 0.19170 0.95700 -0.14800
H 	H 	0.17050 0.13210 0.91890 0.09200
C 	C 	0.19278 0.24940 0.99800 0.10600
C 	C 	0.18099 0.33620 0.05350 -0.14400
H 	H 	0.20090 0.37720 0.08200 0.08600
C 	C 	0.14111 0.36030 0.06590 0.08400
H 	H 	0.13380 0.41990 0.10400 0.01800
C 	C 	0.23496 0.22440 0.98200 -0.07900
C 	C 	0.03589 0.25090 0.24748 -0.08600
C 	C 	0.03582 0.21240 0.31373 0.01400
H 	H 	0.06010 0.19880 0.33610 0.04800
Cu	Cu	0.05476 0.33315 0.05044 0.92300
N 	N 	0.11238 0.30280 0.02601 -0.21700
O 	O 	0.06952 0.37070 0.13967 -0.37300
O 	O 	0.09338 0.09440 0.17795 -0.45700
O 	O 	0.11162 0.35730 0.24241 -0.26300
O 	O 	0.96162 0.18710 0.46008 -0.39100
O 	O 	0.04086 0.05990 0.06995 -0.42500
P 	P 	0.08045 0.27588 0.20077 0.45200
H 	H 	0.23900 0.19900 0.93740 0.05900
H 	H 	0.10180 0.02100 0.20400 0.29400
H 	H 	0.05240 0.04400 0.11260 0.19800
H 	H 	0.01250 0.04700 0.07500 0.13600
C 	C 	0.62361 0.72020 0.97224 0.08300
H 	H 	0.60370 0.67920 0.94380 0.02200
C 	C 	0.66317 0.69170 0.95700 -0.14800
H 	H 	0.67050 0.63210 0.91890 0.09200
C 	C 	0.69278 0.74940 0.99800 0.10600
C 	C 	0.68099 0.83620 0.05350 -0.14400
H 	H 	0.70090 0.87720 0.08200 0.08600
C 	C 	0.64111 0.86030 0.06590 0.08400
H 	H 	0.63380 0.91990 0.10400 0.01800
C 	C 	0.73496 0.72440 0.98200 -0.07900
C 	C 	0.53589 0.75090 0.24748 -0.08500
C 	C 	0.53582 0.71240 0.31373 0.01400
H 	H 	0.56010 0.69880 0.33610 0.04800
Cu	Cu	0.55476 0.83315 0.05044 0.92300
N 	N 	0.61238 0.80280 0.02601 -0.21700
O 	O 	0.56952 0.87070 0.13967 -0.37300
O 	O 	0.59338 0.59440 0.17795 -0.45700
O 	O 	0.61162 0.85730 0.24241 -0.26300
O 	O 	0.46162 0.68710 0.46008 -0.38900
O 	O 	0.54086 0.55990 0.06995 -0.42500
P 	P 	0.58045 0.77588 0.20077 0.45200
H 	H 	0.73900 0.69900 0.93740 0.05900
H 	H 	0.60180 0.52100 0.20400 0.29500
H 	H 	0.55240 0.54400 0.11260 0.19800
H 	H 	0.51250 0.54700 0.07500 0.13400
C 	C 	0.00000 0.26940 0.21510 0.02400
H 	H 	0.00000 0.29420 0.17000 0.02800
C 	C 	-0.00000 0.19300 0.34670 -0.06300
O 	O 	0.00000 0.92860 0.43059 -0.45600
P 	P 	-0.00000 0.12468 0.42989 0.40800
C 	C 	0.50000 0.76940 0.21510 0.02200
H 	H 	0.50000 0.79420 0.17000 0.02800
C 	C 	0.50000 0.69300 0.34670 -0.06500
O 	O 	0.50000 0.42860 0.43059 -0.45600
P 	P 	0.50000 0.62468 0.42989 0.40700
C 	C 	0.00000 0.23060 0.71510 0.02500
H 	H 	0.00000 0.20580 0.67000 0.02800
C 	C 	0.00000 0.30700 0.84670 -0.06300
O 	O 	-0.00000 0.57140 0.93059 -0.45600
P 	P 	0.00000 0.37532 0.92989 0.40800
C 	C 	0.50000 0.73060 0.71510 0.02200
H 	H 	0.50000 0.70580 0.67000 0.02800
C 	C 	0.50000 0.80700 0.84670 -0.06500
O 	O 	0.50000 0.07140 0.93059 -0.45600
P 	P 	0.50000 0.87532 0.92989 0.40700
C 	C 	0.00000 0.76940 0.28490 0.02500
H 	H 	0.00000 0.79420 0.33000 0.02800
C 	C 	-0.00000 0.69300 0.15330 -0.06300
O 	O 	0.00000 0.42860 0.06941 -0.45600
P 	P 	0.00000 0.62468 0.07011 0.40800
C 	C 	0.50000 0.26940 0.28490 0.02200
H 	H 	0.50000 0.29420 0.33000 0.02800
C 	C 	0.50000 0.19300 0.15330 -0.06500
O 	O 	0.50000 0.92860 0.06941 -0.45600
P 	P 	0.50000 0.12468 0.07011 0.40700
C 	C 	-0.00000 0.73060 0.78490 0.02400
H 	H 	-0.00000 0.70580 0.83000 0.02800
C 	C 	0.00000 0.80700 0.65330 -0.06300
O 	O 	0.00000 0.07140 0.56941 -0.45600
P 	P 	-0.00000 0.87532 0.57011 0.40800
C 	C 	0.50000 0.23060 0.78490 0.02200
H 	H 	0.50000 0.20580 0.83000 0.02800
C 	C 	0.50000 0.30700 0.65330 -0.06500
O 	O 	0.50000 0.57140 0.56941 -0.45600
P 	P 	0.50000 0.37532 0.57011 0.40700
