data_crystal

_cell_length_a 28.47740
_cell_length_b 9.46940
_cell_length_c 18.89210
_cell_angle_alpha 90.00000
_cell_angle_beta  90.00000
_cell_angle_gamma 90.00000

_symmetry_space_group_name_	'P 1'
_symmetry_space_group_name_H-M	'P 1'

loop_
_symmetry_equiv_pos_as_xyz
  x,y,z

loop_
_atom_site_label
_atom_site_type_symbol
_atom_site_fract_x
_atom_site_fract_y
_atom_site_fract_z
_atom_site_charge
Cu	Cu	0.06547 0.10780 0.92551 0.89400
P 	P 	0.09650 0.04840 0.76000 0.37000
O 	O 	0.95550 0.32760 0.52070 -0.41800
O 	O 	0.08450 0.01450 0.83910 -0.35400
O 	O 	0.11340 0.90970 0.72070 -0.19100
O 	O 	0.13500 0.16560 0.74960 -0.18500
N 	N 	0.13440 0.15270 0.95140 -0.21800
C 	C 	0.04290 0.11030 0.72420 -0.06600
C 	C 	0.04260 0.20020 0.66500 0.00600
C 	C 	0.22570 0.23150 0.98860 0.05000
C 	C 	0.18650 0.29150 0.02280 -0.10700
C 	C 	0.14150 0.24890 0.00090 0.06500
C 	C 	0.17030 0.09200 0.91950 0.08200
C 	C 	0.21780 0.13360 0.93620 -0.11600
H 	H 	0.07110 0.21300 0.63900 0.05400
H 	H 	0.18990 0.38100 0.04500 0.07400
H 	H 	0.11570 0.30500 0.01500 0.00800
H 	H 	0.16570 0.00100 0.90100 0.01900
H 	H 	0.24200 0.07600 0.92200 0.08500
Cu	Cu	0.56547 0.60780 0.92551 0.89400
P 	P 	0.59650 0.54840 0.76000 0.37000
O 	O 	0.45550 0.82760 0.52070 -0.41500
O 	O 	0.58450 0.51450 0.83910 -0.35400
O 	O 	0.61340 0.40970 0.72070 -0.19100
O 	O 	0.63500 0.66560 0.74960 -0.18500
N 	N 	0.63440 0.65270 0.95140 -0.21800
C 	C 	0.54290 0.61030 0.72420 -0.06600
C 	C 	0.54260 0.70020 0.66500 0.00600
C 	C 	0.72570 0.73150 0.98860 0.05500
C 	C 	0.68650 0.79150 0.02280 -0.11000
C 	C 	0.64150 0.74890 0.00090 0.06400
C 	C 	0.67030 0.59200 0.91950 0.08300
C 	C 	0.71780 0.63360 0.93620 -0.12000
H 	H 	0.57110 0.71300 0.63900 0.05300
H 	H 	0.68990 0.88100 0.04500 0.07400
H 	H 	0.61570 0.80500 0.01500 0.00700
H 	H 	0.66570 0.50100 0.90100 0.01800
H 	H 	0.74200 0.57600 0.92200 0.08500
Cu	Cu	0.93453 0.39220 0.42551 0.89200
P 	P 	0.90350 0.45160 0.26000 0.36900
O 	O 	0.04450 0.17240 0.02070 -0.41500
O 	O 	0.91550 0.48550 0.33910 -0.35600
O 	O 	0.88660 0.59030 0.22070 -0.19300
O 	O 	0.86500 0.33440 0.24960 -0.18600
N 	N 	0.86560 0.34730 0.45140 -0.21900
C 	C 	0.95710 0.38970 0.22420 -0.07100
C 	C 	0.95740 0.29980 0.16500 0.00100
C 	C 	0.77430 0.26850 0.48860 0.05100
C 	C 	0.81350 0.20850 0.52280 -0.10900
C 	C 	0.85850 0.25110 0.50090 0.06400
C 	C 	0.82970 0.40800 0.41950 0.08200
C 	C 	0.78220 0.36640 0.43620 -0.11800
H 	H 	0.92890 0.28700 0.13900 0.05400
H 	H 	0.81010 0.11900 0.54500 0.07400
H 	H 	0.88430 0.19500 0.51500 0.00700
H 	H 	0.83430 0.49900 0.40100 0.01800
H 	H 	0.75800 0.42400 0.42200 0.08500
Cu	Cu	0.43453 0.89220 0.42551 0.89300
P 	P 	0.40350 0.95160 0.26000 0.36900
O 	O 	0.54450 0.67240 0.02070 -0.41600
O 	O 	0.41550 0.98550 0.33910 -0.35500
O 	O 	0.38660 0.09030 0.22070 -0.19200
O 	O 	0.36500 0.83440 0.24960 -0.18600
N 	N 	0.36560 0.84730 0.45140 -0.21900
C 	C 	0.45710 0.88970 0.22420 -0.06700
C 	C 	0.45740 0.79980 0.16500 0.00500
C 	C 	0.27430 0.76850 0.48860 0.05100
C 	C 	0.31350 0.70850 0.52280 -0.10900
C 	C 	0.35850 0.75110 0.50090 0.06400
C 	C 	0.32970 0.90800 0.41950 0.08200
C 	C 	0.28220 0.86640 0.43620 -0.11800
H 	H 	0.42890 0.78700 0.13900 0.05300
H 	H 	0.31010 0.61900 0.54500 0.07400
H 	H 	0.38430 0.69500 0.51500 0.00700
H 	H 	0.33430 0.99900 0.40100 0.01800
H 	H 	0.25800 0.92400 0.42200 0.08500
Cu	Cu	0.93453 0.60780 0.57449 0.89200
P 	P 	0.90350 0.54840 0.74000 0.36900
O 	O 	0.04450 0.82760 0.97930 -0.41500
O 	O 	0.91550 0.51450 0.66090 -0.35600
O 	O 	0.88660 0.40970 0.77930 -0.19300
O 	O 	0.86500 0.66560 0.75040 -0.18600
N 	N 	0.86560 0.65270 0.54860 -0.21900
C 	C 	0.95710 0.61030 0.77580 -0.07100
C 	C 	0.95740 0.70020 0.83500 0.00100
C 	C 	0.77430 0.73150 0.51140 0.05100
C 	C 	0.81350 0.79150 0.47720 -0.10900
C 	C 	0.85850 0.74890 0.49910 0.06400
C 	C 	0.82970 0.59200 0.58050 0.08200
C 	C 	0.78220 0.63360 0.56380 -0.11800
H 	H 	0.92890 0.71300 0.86100 0.05400
H 	H 	0.81010 0.88100 0.45500 0.07400
H 	H 	0.88430 0.80500 0.48500 0.00700
H 	H 	0.83430 0.50100 0.59900 0.01800
H 	H 	0.75800 0.57600 0.57800 0.08500
Cu	Cu	0.43453 0.10780 0.57449 0.89300
P 	P 	0.40350 0.04840 0.74000 0.36900
O 	O 	0.54450 0.32760 0.97930 -0.41600
O 	O 	0.41550 0.01450 0.66090 -0.35500
O 	O 	0.38660 0.90970 0.77930 -0.19200
O 	O 	0.36500 0.16560 0.75040 -0.18600
N 	N 	0.36560 0.15270 0.54860 -0.21900
C 	C 	0.45710 0.11030 0.77580 -0.06700
C 	C 	0.45740 0.20020 0.83500 0.00500
C 	C 	0.27430 0.23150 0.51140 0.05100
C 	C 	0.31350 0.29150 0.47720 -0.10900
C 	C 	0.35850 0.24890 0.49910 0.06400
C 	C 	0.32970 0.09200 0.58050 0.08200
C 	C 	0.28220 0.13360 0.56380 -0.11800
H 	H 	0.42890 0.21300 0.86100 0.05300
H 	H 	0.31010 0.38100 0.45500 0.07400
H 	H 	0.38430 0.30500 0.48500 0.00700
H 	H 	0.33430 0.00100 0.59900 0.01800
H 	H 	0.25800 0.07600 0.57800 0.08500
Cu	Cu	0.06547 0.89220 0.07449 0.89300
P 	P 	0.09650 0.95160 0.24000 0.36900
O 	O 	0.95550 0.67240 0.47930 -0.41900
O 	O 	0.08450 0.98550 0.16090 -0.35500
O 	O 	0.11340 0.09030 0.27930 -0.19200
O 	O 	0.13500 0.83440 0.25040 -0.18600
N 	N 	0.13440 0.84730 0.04860 -0.21900
C 	C 	0.04290 0.88970 0.27580 -0.06700
C 	C 	0.04260 0.79980 0.33500 0.00500
C 	C 	0.22570 0.76850 0.01140 0.04900
C 	C 	0.18650 0.70850 0.97720 -0.10800
C 	C 	0.14150 0.75110 0.99910 0.06400
C 	C 	0.17030 0.90800 0.08050 0.08100
C 	C 	0.21780 0.86640 0.06380 -0.11700
H 	H 	0.07110 0.78700 0.36100 0.05300
H 	H 	0.18990 0.61900 0.95500 0.07300
H 	H 	0.11570 0.69500 0.98500 0.00700
H 	H 	0.16570 0.99900 0.09900 0.01800
H 	H 	0.24200 0.92400 0.07800 0.08400
Cu	Cu	0.56547 0.39220 0.07449 0.89300
P 	P 	0.59650 0.45160 0.24000 0.36900
O 	O 	0.45550 0.17240 0.47930 -0.41600
O 	O 	0.58450 0.48550 0.16090 -0.35500
O 	O 	0.61340 0.59030 0.27930 -0.19200
O 	O 	0.63500 0.33440 0.25040 -0.18600
N 	N 	0.63440 0.34730 0.04860 -0.21900
C 	C 	0.54290 0.38970 0.27580 -0.06700
C 	C 	0.54260 0.29980 0.33500 0.00500
C 	C 	0.72570 0.26850 0.01140 0.05400
C 	C 	0.68650 0.20850 0.97720 -0.11100
C 	C 	0.64150 0.25110 0.99910 0.06400
C 	C 	0.67030 0.40800 0.08050 0.08300
C 	C 	0.71780 0.36640 0.06380 -0.12000
H 	H 	0.57110 0.28700 0.36100 0.05300
H 	H 	0.68990 0.11900 0.95500 0.07400
H 	H 	0.61570 0.19500 0.98500 0.00700
H 	H 	0.66570 0.49900 0.09900 0.01800
H 	H 	0.74200 0.42400 0.07800 0.08500
Cu	Cu	0.93453 0.89220 0.07449 0.89200
P 	P 	0.90350 0.95160 0.24000 0.36900
O 	O 	0.04450 0.67240 0.47930 -0.41600
O 	O 	0.91550 0.98550 0.16090 -0.35600
O 	O 	0.88660 0.09030 0.27930 -0.19200
O 	O 	0.86500 0.83440 0.25040 -0.18600
N 	N 	0.86560 0.84730 0.04860 -0.21900
C 	C 	0.95710 0.88970 0.27580 -0.07100
C 	C 	0.95740 0.79980 0.33500 0.00100
C 	C 	0.77430 0.76850 0.01140 0.04900
C 	C 	0.81350 0.70850 0.97720 -0.10800
C 	C 	0.85850 0.75110 0.99910 0.06500
C 	C 	0.82970 0.90800 0.08050 0.08100
C 	C 	0.78220 0.86640 0.06380 -0.11700
H 	H 	0.92890 0.78700 0.36100 0.05400
H 	H 	0.81010 0.61900 0.95500 0.07300
H 	H 	0.88430 0.69500 0.98500 0.00700
H 	H 	0.83430 0.99900 0.09900 0.01800
H 	H 	0.75800 0.92400 0.07800 0.08400
Cu	Cu	0.43453 0.39220 0.07449 0.89300
P 	P 	0.40350 0.45160 0.24000 0.36900
O 	O 	0.54450 0.17240 0.47930 -0.41600
O 	O 	0.41550 0.48550 0.16090 -0.35500
O 	O 	0.38660 0.59030 0.27930 -0.19200
O 	O 	0.36500 0.33440 0.25040 -0.18600
N 	N 	0.36560 0.34730 0.04860 -0.21900
C 	C 	0.45710 0.38970 0.27580 -0.06700
C 	C 	0.45740 0.29980 0.33500 0.00500
C 	C 	0.27430 0.26850 0.01140 0.05400
C 	C 	0.31350 0.20850 0.97720 -0.11100
C 	C 	0.35850 0.25110 0.99910 0.06400
C 	C 	0.32970 0.40800 0.08050 0.08300
C 	C 	0.28220 0.36640 0.06380 -0.12000
H 	H 	0.42890 0.28700 0.36100 0.05300
H 	H 	0.31010 0.11900 0.95500 0.07400
H 	H 	0.38430 0.19500 0.98500 0.00700
H 	H 	0.33430 0.49900 0.09900 0.01800
H 	H 	0.25800 0.42400 0.07800 0.08500
Cu	Cu	0.06547 0.60780 0.57449 0.89300
P 	P 	0.09650 0.54840 0.74000 0.36900
O 	O 	0.95550 0.82760 0.97930 -0.41800
O 	O 	0.08450 0.51450 0.66090 -0.35500
O 	O 	0.11340 0.40970 0.77930 -0.19200
O 	O 	0.13500 0.66560 0.75040 -0.18600
N 	N 	0.13440 0.65270 0.54860 -0.21900
C 	C 	0.04290 0.61030 0.77580 -0.06700
C 	C 	0.04260 0.70020 0.83500 0.00500
C 	C 	0.22570 0.73150 0.51140 0.05100
C 	C 	0.18650 0.79150 0.47720 -0.10900
C 	C 	0.14150 0.74890 0.49910 0.06400
C 	C 	0.17030 0.59200 0.58050 0.08200
C 	C 	0.21780 0.63360 0.56380 -0.11800
H 	H 	0.07110 0.71300 0.86100 0.05400
H 	H 	0.18990 0.88100 0.45500 0.07400
H 	H 	0.11570 0.80500 0.48500 0.00700
H 	H 	0.16570 0.50100 0.59900 0.01800
H 	H 	0.24200 0.57600 0.57800 0.08500
Cu	Cu	0.56547 0.10780 0.57449 0.89300
P 	P 	0.59650 0.04840 0.74000 0.36900
O 	O 	0.45550 0.32760 0.97930 -0.41600
O 	O 	0.58450 0.01450 0.66090 -0.35500
O 	O 	0.61340 0.90970 0.77930 -0.19200
O 	O 	0.63500 0.16560 0.75040 -0.18600
N 	N 	0.63440 0.15270 0.54860 -0.21900
C 	C 	0.54290 0.11030 0.77580 -0.06700
C 	C 	0.54260 0.20020 0.83500 0.00500
C 	C 	0.72570 0.23150 0.51140 0.05100
C 	C 	0.68650 0.29150 0.47720 -0.10900
C 	C 	0.64150 0.24890 0.49910 0.06400
C 	C 	0.67030 0.09200 0.58050 0.08200
C 	C 	0.71780 0.13360 0.56380 -0.11800
H 	H 	0.57110 0.21300 0.86100 0.05300
H 	H 	0.68990 0.38100 0.45500 0.07400
H 	H 	0.61570 0.30500 0.48500 0.00700
H 	H 	0.66570 0.00100 0.59900 0.01800
H 	H 	0.74200 0.07600 0.57800 0.08500
Cu	Cu	0.06547 0.39220 0.42551 0.89300
P 	P 	0.09650 0.45160 0.26000 0.36900
O 	O 	0.95550 0.17240 0.02070 -0.41800
O 	O 	0.08450 0.48550 0.33910 -0.35500
O 	O 	0.11340 0.59030 0.22070 -0.19200
O 	O 	0.13500 0.33440 0.24960 -0.18600
N 	N 	0.13440 0.34730 0.45140 -0.21900
C 	C 	0.04290 0.38970 0.22420 -0.06700
C 	C 	0.04260 0.29980 0.16500 0.00500
C 	C 	0.22570 0.26850 0.48860 0.05100
C 	C 	0.18650 0.20850 0.52280 -0.10900
C 	C 	0.14150 0.25110 0.50090 0.06400
C 	C 	0.17030 0.40800 0.41950 0.08200
C 	C 	0.21780 0.36640 0.43620 -0.11800
H 	H 	0.07110 0.28700 0.13900 0.05400
H 	H 	0.18990 0.11900 0.54500 0.07400
H 	H 	0.11570 0.19500 0.51500 0.00700
H 	H 	0.16570 0.49900 0.40100 0.01800
H 	H 	0.24200 0.42400 0.42200 0.08500
Cu	Cu	0.56547 0.89220 0.42551 0.89300
P 	P 	0.59650 0.95160 0.26000 0.36900
O 	O 	0.45550 0.67240 0.02070 -0.41600
O 	O 	0.58450 0.98550 0.33910 -0.35500
O 	O 	0.61340 0.09030 0.22070 -0.19200
O 	O 	0.63500 0.83440 0.24960 -0.18600
N 	N 	0.63440 0.84730 0.45140 -0.21900
C 	C 	0.54290 0.88970 0.22420 -0.06700
C 	C 	0.54260 0.79980 0.16500 0.00500
C 	C 	0.72570 0.76850 0.48860 0.05100
C 	C 	0.68650 0.70850 0.52280 -0.10900
C 	C 	0.64150 0.75110 0.50090 0.06400
C 	C 	0.67030 0.90800 0.41950 0.08200
C 	C 	0.71780 0.86640 0.43620 -0.11800
H 	H 	0.57110 0.78700 0.13900 0.05300
H 	H 	0.68990 0.61900 0.54500 0.07400
H 	H 	0.61570 0.69500 0.51500 0.00700
H 	H 	0.66570 0.99900 0.40100 0.01800
H 	H 	0.74200 0.92400 0.42200 0.08500
Cu	Cu	0.93453 0.10780 0.92551 0.89200
P 	P 	0.90350 0.04840 0.76000 0.36900
O 	O 	0.04450 0.32760 0.52070 -0.41600
O 	O 	0.91550 0.01450 0.83910 -0.35600
O 	O 	0.88660 0.90970 0.72070 -0.19200
O 	O 	0.86500 0.16560 0.74960 -0.18600
N 	N 	0.86560 0.15270 0.95140 -0.21900
C 	C 	0.95710 0.11030 0.72420 -0.07100
C 	C 	0.95740 0.20020 0.66500 0.00100
C 	C 	0.77430 0.23150 0.98860 0.04900
C 	C 	0.81350 0.29150 0.02280 -0.10800
C 	C 	0.85850 0.24890 0.00090 0.06500
C 	C 	0.82970 0.09200 0.91950 0.08100
C 	C 	0.78220 0.13360 0.93620 -0.11700
H 	H 	0.92890 0.21300 0.63900 0.05400
H 	H 	0.81010 0.38100 0.04500 0.07300
H 	H 	0.88430 0.30500 0.01500 0.00700
H 	H 	0.83430 0.00100 0.90100 0.01800
H 	H 	0.75800 0.07600 0.92200 0.08400
Cu	Cu	0.43453 0.60780 0.92551 0.89300
P 	P 	0.40350 0.54840 0.76000 0.36900
O 	O 	0.54450 0.82760 0.52070 -0.41600
O 	O 	0.41550 0.51450 0.83910 -0.35500
O 	O 	0.38660 0.40970 0.72070 -0.19200
O 	O 	0.36500 0.66560 0.74960 -0.18600
N 	N 	0.36560 0.65270 0.95140 -0.21900
C 	C 	0.45710 0.61030 0.72420 -0.06700
C 	C 	0.45740 0.70020 0.66500 0.00500
C 	C 	0.27430 0.73150 0.98860 0.05400
C 	C 	0.31350 0.79150 0.02280 -0.11100
C 	C 	0.35850 0.74890 0.00090 0.06400
C 	C 	0.32970 0.59200 0.91950 0.08300
C 	C 	0.28220 0.63360 0.93620 -0.12000
H 	H 	0.42890 0.71300 0.63900 0.05300
H 	H 	0.31010 0.88100 0.04500 0.07400
H 	H 	0.38430 0.80500 0.01500 0.00700
H 	H 	0.33430 0.50100 0.90100 0.01800
H 	H 	0.25800 0.57600 0.92200 0.08500
P 	P 	0.00000 0.36150 0.55910 0.42800
O 	O 	-0.00000 0.51880 0.58290 -0.46800
C 	C 	-0.00000 0.24410 0.63410 -0.06200
C 	C 	-0.00000 0.06440 0.75240 -0.01000
H 	H 	-0.00000 0.01900 0.79700 0.04300
P 	P 	0.50000 0.86150 0.55910 0.42600
O 	O 	0.50000 0.01880 0.58290 -0.46900
C 	C 	0.50000 0.74410 0.63410 -0.06600
C 	C 	0.50000 0.56440 0.75240 -0.01600
H 	H 	0.50000 0.51900 0.79700 0.04400
P 	P 	-0.00000 0.13850 0.05910 0.42900
O 	O 	-0.00000 0.98120 0.08290 -0.46800
C 	C 	0.00000 0.25590 0.13410 -0.06200
C 	C 	-0.00000 0.43560 0.25240 -0.01000
H 	H 	-0.00000 0.48100 0.29700 0.04300
P 	P 	0.50000 0.63850 0.05910 0.42500
O 	O 	0.50000 0.48120 0.08290 -0.46900
C 	C 	0.50000 0.75590 0.13410 -0.06600
C 	C 	0.50000 0.93560 0.25240 -0.01600
H 	H 	0.50000 0.98100 0.29700 0.04400
P 	P 	-0.00000 0.86150 0.94090 0.42900
O 	O 	-0.00000 0.01880 0.91710 -0.46800
C 	C 	-0.00000 0.74410 0.86590 -0.06200
C 	C 	-0.00000 0.56440 0.74760 -0.01000
H 	H 	-0.00000 0.51900 0.70300 0.04300
P 	P 	0.50000 0.36150 0.94090 0.42500
O 	O 	0.50000 0.51880 0.91710 -0.46900
C 	C 	0.50000 0.24410 0.86590 -0.06600
C 	C 	0.50000 0.06440 0.74760 -0.01600
H 	H 	0.50000 0.01900 0.70300 0.04400
P 	P 	-0.00000 0.63850 0.44090 0.42800
O 	O 	0.00000 0.48120 0.41710 -0.46800
C 	C 	0.00000 0.75590 0.36590 -0.06200
C 	C 	0.00000 0.93560 0.24760 -0.01000
H 	H 	-0.00000 0.98100 0.20300 0.04300
P 	P 	0.50000 0.13850 0.44090 0.42600
O 	O 	0.50000 0.98120 0.41710 -0.46900
C 	C 	0.50000 0.25590 0.36590 -0.06600
C 	C 	0.50000 0.43560 0.24760 -0.01600
H 	H 	0.50000 0.48100 0.20300 0.04400
