data_crystal

_cell_length_a 18.71100
_cell_length_b 17.93700
_cell_length_c 19.21700
_cell_angle_alpha 90.00000
_cell_angle_beta  117.06000
_cell_angle_gamma 90.00000

_symmetry_space_group_name_	'P 1'
_symmetry_space_group_name_H-M	'P 1'

loop_
_symmetry_equiv_pos_as_xyz
  x,y,z

loop_
_atom_site_label
_atom_site_type_symbol
_atom_site_fract_x
_atom_site_fract_y
_atom_site_fract_z
_atom_site_charge
Co	Co	0.26170 0.16298 0.99882 1.11500
N 	N 	0.31240 0.16840 0.12470 -0.23100
N 	N 	0.21560 0.16800 0.87360 -0.23300
C 	C 	0.23890 0.98970 0.00430 0.09200
H 	H 	0.29400 0.98170 0.02760 -0.01300
N 	N 	0.32660 0.39570 0.02310 -0.13900
C 	C 	0.27720 0.33650 0.99140 0.09400
H 	H 	0.22190 0.34060 0.96200 -0.01300
N 	N 	0.16170 0.13460 0.74900 -0.14100
N 	N 	0.37240 0.14370 0.25190 -0.14400
N 	N 	0.31590 0.27330 0.00680 -0.22500
N 	N 	0.18290 0.93410 0.98110 -0.14100
C 	C 	0.11450 0.09530 0.67810 0.10300
C 	C 	0.40880 0.10310 0.32380 0.12400
N 	N 	0.20490 0.05640 0.98940 -0.23400
C 	C 	0.33750 0.11520 0.17810 0.09500
H 	H 	0.33190 0.06450 0.16660 -0.01500
C 	C 	0.25880 0.62280 0.00690 -0.00700
C 	C 	0.31660 0.59190 0.07670 -0.01900
H 	H 	0.34150 0.62260 0.12020 0.03500
C 	C 	0.23850 0.70380 0.00120 -0.01300
C 	C 	0.30300 0.47320 0.01780 0.11600
N 	N 	0.15400 0.28630 0.49060 -0.23500
C 	C 	0.22250 0.57490 0.94300 -0.01800
H 	H 	0.18260 0.59330 0.89610 0.03300
C 	C 	0.27320 0.83060 0.04480 -0.12500
H 	H 	0.31030 0.86420 0.07920 0.07200
C 	C 	0.39630 0.29300 0.05200 -0.00500
H 	H 	0.43900 0.25960 0.07170 0.02500
C 	C 	0.40300 0.36690 0.06290 0.00400
H 	H 	0.45000 0.39350 0.09160 0.03200
C 	C 	0.14410 0.80450 0.93960 -0.12600
H 	H 	0.09420 0.82040 0.90170 0.07300
C 	C 	0.16260 0.72980 0.94660 -0.01300
H 	H 	0.12420 0.69570 0.91470 0.03100
C 	C 	0.33830 0.51650 0.08350 -0.12100
H 	H 	0.37540 0.49650 0.13100 0.07400
C 	C 	0.29150 0.75620 0.05000 -0.01200
H 	H 	0.34150 0.74040 0.08780 0.03100
N 	N 	0.36980 0.11270 0.00640 -0.23200
C 	C 	0.19890 0.85600 0.98800 0.11600
C 	C 	0.12290 0.04210 0.95560 -0.01400
H 	H 	0.08310 0.07850 0.93960 0.02500
C 	C 	0.24450 0.50040 0.94790 -0.12400
H 	H 	0.22020 0.46940 0.90460 0.07300
N 	N 	0.03990 0.22430 0.44750 -0.14100
C 	C 	0.09970 0.24880 0.43180 0.09700
H 	H 	0.10180 0.24010 0.38500 -0.01500
C 	C 	0.12730 0.28790 0.54710 -0.00400
H 	H 	0.15350 0.31130 0.59540 0.02100
C 	C 	0.05680 0.24980 0.52090 0.00600
H 	H 	0.02620 0.24260 0.54730 0.03000
C 	C 	0.37630 0.03740 0.33140 -0.12600
H 	H 	0.32940 0.02000 0.29010 0.07500
C 	C 	0.96770 0.18620 0.39280 0.11700
C 	C 	0.96590 0.14980 0.32920 -0.12000
H 	H 	0.01270 0.14450 0.32400 0.07100
C 	C 	0.24050 0.21530 0.83270 -0.00500
H 	H 	0.27490 0.25550 0.85440 0.02400
C 	C 	0.58630 0.09340 0.10460 0.11100
C 	C 	0.48020 0.02200 0.46300 -0.00600
C 	C 	0.41260 0.99550 0.40050 -0.01300
H 	H 	0.39080 0.94990 0.40400 0.03500
N 	N 	0.50080 0.09510 0.05030 -0.13800
C 	C 	0.44050 0.11020 0.06850 0.09200
H 	H 	0.44810 0.11800 0.11920 -0.01200
C 	C 	0.60820 0.06060 0.17690 -0.11400
H 	H 	0.57100 0.03540 0.18770 0.07000
C 	C 	0.36940 0.21990 0.24430 0.00500
H 	H 	0.38950 0.25470 0.28460 0.02600
C 	C 	0.64000 0.12450 0.08410 -0.11700
H 	H 	0.62420 0.14180 0.03360 0.07600
C 	C 	0.74380 0.10570 0.21570 0.00000
C 	C 	0.33200 0.23450 0.16770 -0.01100
H 	H 	0.32060 0.28210 0.14610 0.02500
C 	C 	0.68910 0.06700 0.23340 -0.02600
H 	H 	0.70610 0.04560 0.28240 0.04100
C 	C 	0.20840 0.19550 0.75720 0.00300
H 	H 	0.21640 0.21870 0.71810 0.03000
C 	C 	0.16750 0.12020 0.82010 0.09300
H 	H 	0.14100 0.08120 0.83050 -0.01100
C 	C 	0.82450 0.12580 0.28040 -0.00700
C 	C 	0.02460 0.02030 0.53700 0.00700
C 	C 	0.14830 0.08020 0.62810 -0.10500
H 	H 	0.20040 0.09500 0.64060 0.07000
C 	C 	0.82890 0.15920 0.34760 -0.01200
H 	H 	0.78330 0.16130 0.35520 0.03800
C 	C 	0.89360 0.12070 0.27220 -0.01600
H 	H 	0.89220 0.09760 0.22830 0.03600
C 	C 	0.90010 0.18920 0.40330 -0.12100
H 	H 	0.90200 0.21150 0.44780 0.07900
C 	C 	0.10940 0.96900 0.94960 0.01100
H 	H 	0.05950 0.94570 0.92800 0.02400
C 	C 	0.46590 0.08600 0.97000 0.00100
H 	H 	0.49160 0.07500 0.93970 0.03100
C 	C 	0.38670 0.09660 0.94510 -0.00400
H 	H 	0.34820 0.09340 0.89320 0.02600
C 	C 	0.71970 0.12980 0.14100 -0.02200
H 	H 	0.75750 0.15030 0.12770 0.04400
C 	C 	0.10150 0.04200 0.55860 -0.02300
H 	H 	0.12400 0.03090 0.52550 0.04000
C 	C 	0.47520 0.12940 0.38490 -0.13000
H 	H 	0.49730 0.17460 0.38080 0.07700
C 	C 	0.51060 0.08910 0.45380 -0.00800
H 	H 	0.55640 0.10800 0.49540 0.03400
C 	C 	0.04000 0.05800 0.66660 -0.02600
H 	H 	0.02250 0.06050 0.70490 0.02300
C 	C 	0.99450 0.01900 0.59550 0.04400
H 	H 	0.94770 0.99390 0.58640 0.00500
C 	C 	0.03800 0.08800 0.65100 -0.07200
C 	C 	0.99470 0.05300 0.58120 -0.08800
H 	H 	0.01280 0.10640 0.67930 0.04900
H 	H 	0.93930 0.05250 0.56230 0.04900
Co	Co	0.73830 0.66298 0.50118 1.11500
N 	N 	0.68760 0.66840 0.37530 -0.23300
N 	N 	0.78440 0.66800 0.62640 -0.23300
C 	C 	0.76110 0.48970 0.49570 0.09100
H 	H 	0.70600 0.48170 0.47240 -0.01400
N 	N 	0.67340 0.89570 0.47690 -0.14100
C 	C 	0.72280 0.83650 0.50860 0.09600
H 	H 	0.77810 0.84060 0.53800 -0.01500
N 	N 	0.83830 0.63460 0.75100 -0.14200
N 	N 	0.62760 0.64370 0.24810 -0.14500
N 	N 	0.68410 0.77330 0.49320 -0.22800
N 	N 	0.81710 0.43410 0.51890 -0.14200
C 	C 	0.88550 0.59530 0.82190 0.10200
C 	C 	0.59120 0.60310 0.17620 0.12400
N 	N 	0.79510 0.55640 0.51060 -0.23400
C 	C 	0.66250 0.61520 0.32190 0.09500
H 	H 	0.66810 0.56450 0.33340 -0.01600
C 	C 	0.74120 0.12280 0.49310 -0.00600
C 	C 	0.68340 0.09190 0.42330 -0.02200
H 	H 	0.65850 0.12260 0.37980 0.03600
C 	C 	0.76150 0.20380 0.49880 -0.01200
C 	C 	0.69700 0.97320 0.48220 0.11200
N 	N 	0.84600 0.78630 0.00940 -0.23600
C 	C 	0.77750 0.07490 0.55700 -0.02100
H 	H 	0.81740 0.09330 0.60390 0.03400
C 	C 	0.72680 0.33060 0.45520 -0.12100
H 	H 	0.68970 0.36420 0.42080 0.07100
C 	C 	0.60370 0.79300 0.44800 -0.00500
H 	H 	0.56100 0.75960 0.42830 0.02500
C 	C 	0.59700 0.86690 0.43710 0.00300
H 	H 	0.55000 0.89350 0.40840 0.03200
C 	C 	0.85590 0.30450 0.56040 -0.12400
H 	H 	0.90580 0.32040 0.59830 0.07300
C 	C 	0.83740 0.22980 0.55340 -0.01500
H 	H 	0.87580 0.19570 0.58530 0.03200
C 	C 	0.66170 0.01650 0.41650 -0.11600
H 	H 	0.62460 0.99650 0.36900 0.07100
C 	C 	0.70850 0.25620 0.45000 -0.01400
H 	H 	0.65850 0.24040 0.41220 0.03100
N 	N 	0.63020 0.61270 0.49360 -0.23400
C 	C 	0.80110 0.35600 0.51200 0.11200
C 	C 	0.87710 0.54210 0.54440 -0.00700
H 	H 	0.91690 0.57850 0.56040 0.02400
C 	C 	0.75550 0.00040 0.55210 -0.12000
H 	H 	0.77980 0.96940 0.59540 0.07200
N 	N 	0.96010 0.72430 0.05250 -0.14300
C 	C 	0.90030 0.74880 0.06820 0.09600
H 	H 	0.89820 0.74010 0.11500 -0.01500
C 	C 	0.87270 0.78790 0.95290 -0.00200
H 	H 	0.84650 0.81130 0.90460 0.02100
C 	C 	0.94320 0.74980 0.97910 0.00800
H 	H 	0.97380 0.74260 0.95270 0.03000
C 	C 	0.62370 0.53740 0.16860 -0.12800
H 	H 	0.67060 0.52000 0.20990 0.07500
C 	C 	0.03230 0.68620 0.10720 0.11700
C 	C 	0.03410 0.64980 0.17080 -0.11900
H 	H 	0.98730 0.64450 0.17600 0.07000
C 	C 	0.75950 0.71530 0.66730 -0.00500
H 	H 	0.72510 0.75550 0.64560 0.02400
C 	C 	0.41370 0.59340 0.39540 0.11000
C 	C 	0.51980 0.52200 0.03700 -0.00700
C 	C 	0.58740 0.49550 0.09950 -0.01200
H 	H 	0.60920 0.44990 0.09600 0.03500
N 	N 	0.49920 0.59510 0.44970 -0.14000
C 	C 	0.55950 0.61020 0.43150 0.09200
H 	H 	0.55190 0.61800 0.38080 -0.01200
C 	C 	0.39180 0.56060 0.32310 -0.11400
H 	H 	0.42900 0.53540 0.31230 0.07000
C 	C 	0.63060 0.71990 0.25570 0.00500
H 	H 	0.61050 0.75470 0.21540 0.02500
C 	C 	0.36000 0.62450 0.41590 -0.11700
H 	H 	0.37580 0.64180 0.46640 0.07500
C 	C 	0.25620 0.60570 0.28430 0.00000
C 	C 	0.66800 0.73450 0.33230 -0.01100
H 	H 	0.67940 0.78210 0.35390 0.02500
C 	C 	0.31090 0.56700 0.26660 -0.02700
H 	H 	0.29390 0.54560 0.21760 0.04100
C 	C 	0.79160 0.69550 0.74280 0.00300
H 	H 	0.78360 0.71870 0.78190 0.03000
C 	C 	0.83250 0.62020 0.67990 0.09300
H 	H 	0.85900 0.58120 0.66950 -0.01100
C 	C 	0.17550 0.62580 0.21960 -0.00600
C 	C 	0.97540 0.52030 0.96300 0.01000
C 	C 	0.85170 0.58020 0.87190 -0.10300
H 	H 	0.79960 0.59500 0.85940 0.06900
C 	C 	0.17110 0.65920 0.15240 -0.01200
H 	H 	0.21670 0.66130 0.14480 0.03800
C 	C 	0.10640 0.62070 0.22780 -0.01700
H 	H 	0.10780 0.59760 0.27170 0.03600
C 	C 	0.09990 0.68920 0.09670 -0.12100
H 	H 	0.09800 0.71150 0.05220 0.07900
C 	C 	0.89060 0.46900 0.55040 0.00400
H 	H 	0.94050 0.44570 0.57200 0.02600
C 	C 	0.53410 0.58600 0.53000 0.00200
H 	H 	0.50840 0.57500 0.56030 0.03100
C 	C 	0.61330 0.59660 0.55490 -0.00100
H 	H 	0.65180 0.59340 0.60680 0.02600
C 	C 	0.28030 0.62980 0.35900 -0.02200
H 	H 	0.24250 0.65030 0.37230 0.04400
C 	C 	0.89850 0.54200 0.94140 -0.02500
H 	H 	0.87600 0.53090 0.97450 0.04100
C 	C 	0.52480 0.62940 0.11510 -0.13100
H 	H 	0.50270 0.67460 0.11920 0.07700
C 	C 	0.48940 0.58910 0.04620 -0.00700
H 	H 	0.44360 0.60800 0.00460 0.03400
C 	C 	0.96000 0.55800 0.83340 -0.02500
H 	H 	0.97750 0.56050 0.79510 0.02300
C 	C 	0.00550 0.51900 0.90450 0.04000
H 	H 	0.05230 0.49390 0.91360 0.00700
C 	C 	0.96200 0.58800 0.84900 -0.06900
C 	C 	0.00530 0.55300 0.91880 -0.08900
H 	H 	0.98720 0.60640 0.82070 0.04800
H 	H 	0.06070 0.55250 0.93770 0.04900
Co	Co	0.73830 0.83702 0.00118 1.11400
N 	N 	0.68760 0.83160 0.87530 -0.23200
N 	N 	0.78440 0.83200 0.12640 -0.23400
C 	C 	0.76110 0.01030 0.99570 0.09100
H 	H 	0.70600 0.01830 0.97240 -0.01400
N 	N 	0.67340 0.60430 0.97690 -0.14000
C 	C 	0.72280 0.66350 0.00860 0.09300
H 	H 	0.77810 0.65940 0.03800 -0.01400
N 	N 	0.83830 0.86540 0.25100 -0.14200
N 	N 	0.62760 0.85630 0.74810 -0.14500
N 	N 	0.68410 0.72670 0.99320 -0.22600
N 	N 	0.81710 0.06590 0.01890 -0.14200
C 	C 	0.88550 0.90470 0.32190 0.10300
C 	C 	0.59120 0.89690 0.67620 0.12400
N 	N 	0.79510 0.94360 0.01060 -0.23400
C 	C 	0.66250 0.88480 0.82190 0.09500
H 	H 	0.66810 0.93550 0.83340 -0.01500
C 	C 	0.74120 0.37720 0.99310 -0.00700
C 	C 	0.68340 0.40810 0.92330 -0.01900
H 	H 	0.65850 0.37740 0.87980 0.03500
C 	C 	0.76150 0.29620 0.99880 -0.01300
C 	C 	0.69700 0.52680 0.98220 0.11600
N 	N 	0.84600 0.71370 0.50940 -0.23500
C 	C 	0.77750 0.42510 0.05700 -0.01800
H 	H 	0.81740 0.40670 0.10390 0.03300
C 	C 	0.72680 0.16940 0.95520 -0.12500
H 	H 	0.68970 0.13580 0.92080 0.07200
C 	C 	0.60370 0.70700 0.94800 -0.00500
H 	H 	0.56100 0.74040 0.92830 0.02500
C 	C 	0.59700 0.63310 0.93710 0.00400
H 	H 	0.55000 0.60650 0.90840 0.03200
C 	C 	0.85590 0.19550 0.06040 -0.12600
H 	H 	0.90580 0.17960 0.09830 0.07300
C 	C 	0.83740 0.27020 0.05340 -0.01300
H 	H 	0.87580 0.30430 0.08530 0.03100
C 	C 	0.66170 0.48350 0.91650 -0.12100
H 	H 	0.62460 0.50350 0.86900 0.07400
C 	C 	0.70850 0.24380 0.95000 -0.01200
H 	H 	0.65850 0.25960 0.91220 0.03100
N 	N 	0.63020 0.88730 0.99360 -0.23200
C 	C 	0.80110 0.14400 0.01200 0.11600
C 	C 	0.87710 0.95790 0.04440 -0.01400
H 	H 	0.91690 0.92150 0.06040 0.02500
C 	C 	0.75550 0.49960 0.05210 -0.12400
H 	H 	0.77980 0.53060 0.09540 0.07300
N 	N 	0.96010 0.77570 0.55250 -0.14100
C 	C 	0.90030 0.75120 0.56820 0.09700
H 	H 	0.89820 0.75990 0.61500 -0.01500
C 	C 	0.87270 0.71210 0.45290 -0.00400
H 	H 	0.84650 0.68870 0.40460 0.02100
C 	C 	0.94320 0.75020 0.47910 0.00600
H 	H 	0.97380 0.75740 0.45270 0.03000
C 	C 	0.62370 0.96260 0.66860 -0.12600
H 	H 	0.67060 0.98000 0.70990 0.07500
C 	C 	0.03230 0.81380 0.60720 0.11700
C 	C 	0.03410 0.85020 0.67080 -0.12000
H 	H 	0.98730 0.85550 0.67600 0.07100
C 	C 	0.75950 0.78470 0.16730 -0.00500
H 	H 	0.72510 0.74450 0.14560 0.02400
C 	C 	0.41370 0.90660 0.89540 0.11100
C 	C 	0.51980 0.97800 0.53700 -0.00600
C 	C 	0.58740 0.00450 0.59950 -0.01300
H 	H 	0.60920 0.05010 0.59600 0.03500
N 	N 	0.49920 0.90490 0.94970 -0.13800
C 	C 	0.55950 0.88980 0.93150 0.09200
H 	H 	0.55190 0.88200 0.88080 -0.01200
C 	C 	0.39180 0.93940 0.82310 -0.11400
H 	H 	0.42900 0.96460 0.81230 0.07000
C 	C 	0.63060 0.78010 0.75570 0.00500
H 	H 	0.61050 0.74530 0.71540 0.02600
C 	C 	0.36000 0.87550 0.91590 -0.11700
H 	H 	0.37580 0.85820 0.96640 0.07600
C 	C 	0.25620 0.89430 0.78430 0.00000
C 	C 	0.66800 0.76550 0.83230 -0.01100
H 	H 	0.67940 0.71790 0.85390 0.02500
C 	C 	0.31090 0.93300 0.76660 -0.02600
H 	H 	0.29390 0.95440 0.71760 0.04100
C 	C 	0.79160 0.80450 0.24280 0.00300
H 	H 	0.78360 0.78130 0.28190 0.03000
C 	C 	0.83250 0.87980 0.17990 0.09300
H 	H 	0.85900 0.91880 0.16950 -0.01100
C 	C 	0.17550 0.87420 0.71960 -0.00700
C 	C 	0.97540 0.97970 0.46300 0.00700
C 	C 	0.85170 0.91980 0.37190 -0.10500
H 	H 	0.79960 0.90500 0.35940 0.07000
C 	C 	0.17110 0.84080 0.65240 -0.01200
H 	H 	0.21670 0.83870 0.64480 0.03800
C 	C 	0.10640 0.87930 0.72780 -0.01600
H 	H 	0.10780 0.90240 0.77170 0.03600
C 	C 	0.09990 0.81080 0.59670 -0.12100
H 	H 	0.09800 0.78850 0.55220 0.07900
C 	C 	0.89060 0.03100 0.05040 0.01100
H 	H 	0.94050 0.05430 0.07200 0.02400
C 	C 	0.53410 0.91400 0.03000 0.00100
H 	H 	0.50840 0.92500 0.06030 0.03100
C 	C 	0.61330 0.90340 0.05490 -0.00400
H 	H 	0.65180 0.90660 0.10680 0.02600
C 	C 	0.28030 0.87020 0.85900 -0.02200
H 	H 	0.24250 0.84970 0.87230 0.04400
C 	C 	0.89850 0.95800 0.44140 -0.02300
H 	H 	0.87600 0.96910 0.47450 0.04000
C 	C 	0.52480 0.87060 0.61510 -0.13000
H 	H 	0.50270 0.82540 0.61920 0.07700
C 	C 	0.48940 0.91090 0.54620 -0.00800
H 	H 	0.44360 0.89200 0.50460 0.03400
C 	C 	0.96000 0.94200 0.33340 -0.02600
H 	H 	0.97750 0.93950 0.29510 0.02300
C 	C 	0.00550 0.98100 0.40450 0.04400
H 	H 	0.05230 0.00610 0.41360 0.00500
C 	C 	0.96200 0.91200 0.34900 -0.07200
C 	C 	0.00530 0.94700 0.41880 -0.08800
H 	H 	0.98720 0.89360 0.32070 0.04900
H 	H 	0.06070 0.94750 0.43770 0.04900
Co	Co	0.26170 0.33702 0.49882 1.11500
N 	N 	0.31240 0.33160 0.62470 -0.23300
N 	N 	0.21560 0.33200 0.37360 -0.23300
C 	C 	0.23890 0.51030 0.50430 0.09100
H 	H 	0.29400 0.51830 0.52760 -0.01400
N 	N 	0.32660 0.10430 0.52310 -0.14100
C 	C 	0.27720 0.16350 0.49140 0.09600
H 	H 	0.22190 0.15940 0.46200 -0.01500
N 	N 	0.16170 0.36540 0.24900 -0.14200
N 	N 	0.37240 0.35630 0.75190 -0.14500
N 	N 	0.31590 0.22670 0.50680 -0.22800
N 	N 	0.18290 0.56590 0.48110 -0.14200
C 	C 	0.11450 0.40470 0.17810 0.10200
C 	C 	0.40880 0.39690 0.82380 0.12400
N 	N 	0.20490 0.44360 0.48940 -0.23400
C 	C 	0.33750 0.38480 0.67810 0.09500
H 	H 	0.33190 0.43550 0.66660 -0.01600
C 	C 	0.25880 0.87720 0.50690 -0.00600
C 	C 	0.31660 0.90810 0.57670 -0.02200
H 	H 	0.34150 0.87740 0.62020 0.03600
C 	C 	0.23850 0.79620 0.50120 -0.01200
C 	C 	0.30300 0.02680 0.51780 0.11200
N 	N 	0.15400 0.21370 0.99060 -0.23600
C 	C 	0.22250 0.92510 0.44300 -0.02100
H 	H 	0.18260 0.90670 0.39610 0.03400
C 	C 	0.27320 0.66940 0.54480 -0.12100
H 	H 	0.31030 0.63580 0.57920 0.07100
C 	C 	0.39630 0.20700 0.55200 -0.00500
H 	H 	0.43900 0.24040 0.57170 0.02500
C 	C 	0.40300 0.13310 0.56290 0.00300
H 	H 	0.45000 0.10650 0.59160 0.03200
C 	C 	0.14410 0.69550 0.43960 -0.12400
H 	H 	0.09420 0.67960 0.40170 0.07300
C 	C 	0.16260 0.77020 0.44660 -0.01500
H 	H 	0.12420 0.80430 0.41470 0.03200
C 	C 	0.33830 0.98350 0.58350 -0.11600
H 	H 	0.37540 0.00350 0.63100 0.07100
C 	C 	0.29150 0.74380 0.55000 -0.01400
H 	H 	0.34150 0.75960 0.58780 0.03100
N 	N 	0.36980 0.38730 0.50640 -0.23400
C 	C 	0.19890 0.64400 0.48800 0.11200
C 	C 	0.12290 0.45790 0.45560 -0.00700
H 	H 	0.08310 0.42150 0.43960 0.02400
C 	C 	0.24450 0.99960 0.44790 -0.12000
H 	H 	0.22020 0.03060 0.40460 0.07200
N 	N 	0.03990 0.27570 0.94750 -0.14300
C 	C 	0.09970 0.25120 0.93180 0.09600
H 	H 	0.10180 0.25990 0.88500 -0.01500
C 	C 	0.12730 0.21210 0.04710 -0.00200
H 	H 	0.15350 0.18870 0.09540 0.02100
C 	C 	0.05680 0.25020 0.02090 0.00800
H 	H 	0.02620 0.25740 0.04730 0.03000
C 	C 	0.37630 0.46260 0.83140 -0.12800
H 	H 	0.32940 0.48000 0.79010 0.07500
C 	C 	0.96770 0.31380 0.89280 0.11700
C 	C 	0.96590 0.35020 0.82920 -0.11900
H 	H 	0.01270 0.35550 0.82400 0.07000
C 	C 	0.24050 0.28470 0.33270 -0.00500
H 	H 	0.27490 0.24450 0.35440 0.02400
C 	C 	0.58630 0.40660 0.60460 0.11000
C 	C 	0.48020 0.47800 0.96300 -0.00700
C 	C 	0.41260 0.50450 0.90050 -0.01200
H 	H 	0.39080 0.55010 0.90400 0.03500
N 	N 	0.50080 0.40490 0.55030 -0.14000
C 	C 	0.44050 0.38980 0.56850 0.09200
H 	H 	0.44810 0.38200 0.61920 -0.01200
C 	C 	0.60820 0.43940 0.67690 -0.11400
H 	H 	0.57100 0.46460 0.68770 0.07000
C 	C 	0.36940 0.28010 0.74430 0.00500
H 	H 	0.38950 0.24530 0.78460 0.02500
C 	C 	0.64000 0.37550 0.58410 -0.11700
H 	H 	0.62420 0.35820 0.53360 0.07500
C 	C 	0.74380 0.39430 0.71570 0.00000
C 	C 	0.33200 0.26550 0.66770 -0.01100
H 	H 	0.32060 0.21790 0.64610 0.02500
C 	C 	0.68910 0.43300 0.73340 -0.02700
H 	H 	0.70610 0.45440 0.78240 0.04100
C 	C 	0.20840 0.30450 0.25720 0.00300
H 	H 	0.21640 0.28130 0.21810 0.03000
C 	C 	0.16750 0.37980 0.32010 0.09300
H 	H 	0.14100 0.41880 0.33050 -0.01100
C 	C 	0.82450 0.37420 0.78040 -0.00600
C 	C 	0.02460 0.47970 0.03700 0.01000
C 	C 	0.14830 0.41980 0.12810 -0.10300
H 	H 	0.20040 0.40500 0.14060 0.06900
C 	C 	0.82890 0.34080 0.84760 -0.01200
H 	H 	0.78330 0.33870 0.85520 0.03800
C 	C 	0.89360 0.37930 0.77220 -0.01700
H 	H 	0.89220 0.40240 0.72830 0.03600
C 	C 	0.90010 0.31080 0.90330 -0.12100
H 	H 	0.90200 0.28850 0.94780 0.07900
C 	C 	0.10940 0.53100 0.44960 0.00400
H 	H 	0.05950 0.55430 0.42800 0.02600
C 	C 	0.46590 0.41400 0.47000 0.00200
H 	H 	0.49160 0.42500 0.43970 0.03100
C 	C 	0.38670 0.40340 0.44510 -0.00100
H 	H 	0.34820 0.40660 0.39320 0.02600
C 	C 	0.71970 0.37020 0.64100 -0.02200
H 	H 	0.75750 0.34970 0.62770 0.04400
C 	C 	0.10150 0.45800 0.05860 -0.02500
H 	H 	0.12400 0.46910 0.02550 0.04100
C 	C 	0.47520 0.37060 0.88490 -0.13100
H 	H 	0.49730 0.32540 0.88080 0.07700
C 	C 	0.51060 0.41090 0.95380 -0.00700
H 	H 	0.55640 0.39200 0.99540 0.03400
C 	C 	0.04000 0.44200 0.16660 -0.02500
H 	H 	0.02250 0.43950 0.20490 0.02300
C 	C 	0.99450 0.48100 0.09550 0.04000
H 	H 	0.94770 0.50610 0.08640 0.00700
C 	C 	0.03800 0.41200 0.15100 -0.06900
C 	C 	0.99470 0.44700 0.08120 -0.08900
H 	H 	0.01280 0.39360 0.17930 0.04800
H 	H 	0.93930 0.44750 0.06230 0.04900
