data_crystal

_cell_length_a 9.68140
_cell_length_b 9.65680
_cell_length_c 9.76180
_cell_angle_alpha 90.00000
_cell_angle_beta  102.90000
_cell_angle_gamma 90.00000

_symmetry_space_group_name_	'P 1'
_symmetry_space_group_name_H-M	'P 1'

loop_
_symmetry_equiv_pos_as_xyz
  x,y,z

loop_
_atom_site_label
_atom_site_type_symbol
_atom_site_fract_x
_atom_site_fract_y
_atom_site_fract_z
_atom_site_charge
P 	P 	0.20723 0.18548 0.86704 0.65400
P 	P 	0.29730 0.53330 0.14960 0.61800
Ga	Ga	0.39815 0.23219 0.18442 2.06400
Ga	Ga	0.38674 0.45786 0.87063 2.07200
O 	O 	0.50020 0.35880 0.05780 -0.97700
O 	O 	0.28730 0.38950 0.21640 -0.54900
O 	O 	0.26170 0.51690 0.98720 -0.58900
O 	O 	0.18760 0.62900 0.18610 -0.53000
O 	O 	0.26090 0.16960 0.02480 -0.60100
O 	O 	0.29520 0.28850 0.80360 -0.61000
O 	O 	0.05170 0.22890 0.84060 -0.58300
O 	O 	0.44880 0.59050 0.20060 -0.58000
O 	O 	0.22020 0.04240 0.79820 -0.56100
H 	H 	0.56850 0.29290 0.02880 0.17900
P 	P 	0.29277 0.68548 0.63296 0.65100
P 	P 	0.20270 0.03330 0.35040 0.62900
Ga	Ga	0.10185 0.73219 0.31558 2.06200
Ga	Ga	0.11326 0.95786 0.62937 2.06500
O 	O 	0.99980 0.85880 0.44220 -0.96500
O 	O 	0.21270 0.88950 0.28360 -0.56200
O 	O 	0.23830 0.01690 0.51280 -0.58300
O 	O 	0.31240 0.12900 0.31390 -0.52800
O 	O 	0.23910 0.66960 0.47520 -0.60000
O 	O 	0.20480 0.78850 0.69640 -0.62000
O 	O 	0.44830 0.72890 0.65940 -0.59300
O 	O 	0.05120 0.09050 0.29940 -0.57400
O 	O 	0.27980 0.54240 0.70180 -0.57100
H 	H 	0.93150 0.79290 0.47120 0.18100
P 	P 	0.79277 0.81452 0.13296 0.65500
P 	P 	0.70270 0.46670 0.85040 0.61900
Ga	Ga	0.60185 0.76781 0.81558 2.06400
Ga	Ga	0.61326 0.54214 0.12937 2.07200
O 	O 	0.49980 0.64120 0.94220 -0.97700
O 	O 	0.71270 0.61050 0.78360 -0.54900
O 	O 	0.73830 0.48310 0.01280 -0.58900
O 	O 	0.81240 0.37100 0.81390 -0.53000
O 	O 	0.73910 0.83040 0.97520 -0.60100
O 	O 	0.70480 0.71150 0.19640 -0.61000
O 	O 	0.94830 0.77110 0.15940 -0.58300
O 	O 	0.55120 0.40950 0.79940 -0.58000
O 	O 	0.77980 0.95760 0.20180 -0.56100
H 	H 	0.43150 0.70710 0.97120 0.17900
P 	P 	0.70723 0.31452 0.36704 0.65100
P 	P 	0.79730 0.96670 0.64960 0.62900
Ga	Ga	0.89815 0.26781 0.68442 2.06200
Ga	Ga	0.88674 0.04214 0.37063 2.06500
O 	O 	0.00020 0.14120 0.55780 -0.96500
O 	O 	0.78730 0.11050 0.71640 -0.56200
O 	O 	0.76170 0.98310 0.48720 -0.58300
O 	O 	0.68760 0.87100 0.68610 -0.52800
O 	O 	0.76090 0.33040 0.52480 -0.60000
O 	O 	0.79520 0.21150 0.30360 -0.62000
O 	O 	0.55170 0.27110 0.34060 -0.59300
O 	O 	0.94880 0.90950 0.70060 -0.57400
O 	O 	0.72020 0.45760 0.29820 -0.57100
H 	H 	0.06850 0.20710 0.52880 0.18100
