data_crystal

_cell_length_a 13.74100
_cell_length_b 12.35600
_cell_length_c 20.72900
_cell_angle_alpha 90.00000
_cell_angle_beta  101.45000
_cell_angle_gamma 90.00000

_symmetry_space_group_name_	'P 1'
_symmetry_space_group_name_H-M	'P 1'

loop_
_symmetry_equiv_pos_as_xyz
  x,y,z

loop_
_atom_site_label
_atom_site_type_symbol
_atom_site_fract_x
_atom_site_fract_y
_atom_site_fract_z
_atom_site_charge
Na	Na	0.27120 0.24050 0.31200 0.59400
Na	Na	0.09440 0.10300 0.72570 0.59500
Na	Na	0.05700 0.88880 0.46810 0.59000
Na	Na	0.18410 0.28560 0.48330 0.58400
S 	S 	0.23330 0.04750 0.39470 0.52600
S 	S 	0.16240 0.82870 0.71210 0.52300
S 	S 	0.25620 0.23990 0.63980 0.53400
O 	O 	0.49860 0.71360 0.53470 -0.17100
O 	O 	0.13500 0.01350 0.40200 -0.29500
O 	O 	0.26190 0.15270 0.42140 -0.35000
O 	O 	0.24050 0.04090 0.32470 -0.28200
O 	O 	0.55750 0.71290 0.66360 -0.21900
O 	O 	0.13830 0.93620 0.69040 -0.29600
O 	O 	0.16050 0.80810 0.78140 -0.23000
O 	O 	0.09700 0.75210 0.67100 -0.22500
O 	O 	0.60720 0.51790 0.66550 -0.16200
O 	O 	0.23760 0.20620 0.70320 -0.34700
O 	O 	0.17840 0.30820 0.60490 -0.30700
O 	O 	0.27120 0.14990 0.59880 -0.27400
C 	C 	0.43930 0.79430 0.50500 0.15800
C 	C 	0.38840 0.77360 0.44010 -0.08600
C 	C 	0.32640 0.85270 0.40770 0.08800
C 	C 	0.31580 0.95220 0.43590 -0.15100
C 	C 	0.36640 0.97000 0.50150 0.08500
C 	C 	0.42640 0.89210 0.53530 -0.08200
C 	C 	0.47410 0.91100 0.60780 0.05600
C 	C 	0.46900 0.74360 0.67730 0.17200
C 	C 	0.42410 0.83750 0.65280 -0.08700
C 	C 	0.33110 0.86900 0.66390 0.09200
C 	C 	0.28360 0.79850 0.70160 -0.13100
C 	C 	0.32700 0.70520 0.72620 0.09000
C 	C 	0.42060 0.67440 0.71810 -0.07900
C 	C 	0.46760 0.57230 0.74710 0.06000
C 	C 	0.52860 0.45010 0.66320 0.15800
C 	C 	0.45480 0.47470 0.70160 -0.06900
C 	C 	0.37310 0.40660 0.69390 0.07100
C 	C 	0.36550 0.31650 0.65460 -0.14700
C 	C 	0.44220 0.29000 0.62030 0.07500
C 	C 	0.52460 0.35720 0.62700 -0.07800
C 	C 	0.39070 0.66230 0.40900 0.07700
O 	O 	0.10210 0.01530 0.55930 -0.21400
O 	O 	0.08540 0.22460 0.28110 -0.19000
O 	O 	0.20510 0.41870 0.33410 -0.22100
O 	O 	0.96570 0.81060 0.55030 -0.22200
O 	O 	0.99000 0.21000 0.63250 -0.20700
Na	Na	0.72880 0.74050 0.18800 0.59300
Na	Na	0.90560 0.60300 0.77430 0.59400
Na	Na	0.94300 0.38880 0.03190 0.58900
Na	Na	0.81590 0.78560 0.01670 0.58300
S 	S 	0.76670 0.54750 0.10530 0.52500
S 	S 	0.83760 0.32870 0.78790 0.52200
S 	S 	0.74380 0.73990 0.86020 0.53300
O 	O 	0.50140 0.21360 0.96530 -0.17300
O 	O 	0.86500 0.51350 0.09800 -0.29700
O 	O 	0.73810 0.65270 0.07860 -0.35100
O 	O 	0.75950 0.54090 0.17530 -0.28200
O 	O 	0.44250 0.21290 0.83640 -0.21900
O 	O 	0.86170 0.43620 0.80960 -0.29500
O 	O 	0.83950 0.30810 0.71860 -0.23000
O 	O 	0.90300 0.25210 0.82900 -0.22500
O 	O 	0.39280 0.01790 0.83450 -0.16200
O 	O 	0.76240 0.70620 0.79680 -0.34700
O 	O 	0.82160 0.80820 0.89510 -0.30600
O 	O 	0.72880 0.64990 0.90120 -0.27400
C 	C 	0.56070 0.29430 0.99500 0.15900
C 	C 	0.61160 0.27360 0.05990 -0.08600
C 	C 	0.67360 0.35270 0.09230 0.08900
C 	C 	0.68420 0.45220 0.06410 -0.15100
C 	C 	0.63360 0.47000 0.99850 0.08700
C 	C 	0.57360 0.39210 0.96470 -0.08300
C 	C 	0.52590 0.41100 0.89220 0.05700
C 	C 	0.53100 0.24360 0.82270 0.17200
C 	C 	0.57590 0.33750 0.84720 -0.08700
C 	C 	0.66890 0.36900 0.83610 0.09200
C 	C 	0.71640 0.29850 0.79840 -0.13100
C 	C 	0.67300 0.20520 0.77380 0.08900
C 	C 	0.57940 0.17440 0.78190 -0.07900
C 	C 	0.53240 0.07230 0.75290 0.06000
C 	C 	0.47140 0.95010 0.83680 0.15800
C 	C 	0.54520 0.97470 0.79840 -0.06900
C 	C 	0.62690 0.90660 0.80610 0.07100
C 	C 	0.63450 0.81650 0.84540 -0.14600
C 	C 	0.55780 0.79000 0.87970 0.07600
C 	C 	0.47540 0.85720 0.87300 -0.07800
C 	C 	0.60930 0.16230 0.09100 0.07700
O 	O 	0.89790 0.51530 0.94070 -0.21300
O 	O 	0.91460 0.72460 0.21890 -0.19100
O 	O 	0.79490 0.91870 0.16590 -0.22100
O 	O 	0.03430 0.31060 0.94970 -0.22300
O 	O 	0.01000 0.71000 0.86750 -0.20800
Na	Na	0.72880 0.75950 0.68800 0.59300
Na	Na	0.90560 0.89700 0.27430 0.59400
Na	Na	0.94300 0.11120 0.53190 0.58900
Na	Na	0.81590 0.71440 0.51670 0.58300
S 	S 	0.76670 0.95250 0.60530 0.52500
S 	S 	0.83760 0.17130 0.28790 0.52200
S 	S 	0.74380 0.76010 0.36020 0.53300
O 	O 	0.50140 0.28640 0.46530 -0.17200
O 	O 	0.86500 0.98650 0.59800 -0.29600
O 	O 	0.73810 0.84730 0.57860 -0.35100
O 	O 	0.75950 0.95910 0.67530 -0.28200
O 	O 	0.44250 0.28710 0.33640 -0.21900
O 	O 	0.86170 0.06380 0.30960 -0.29600
O 	O 	0.83950 0.19190 0.21860 -0.23000
O 	O 	0.90300 0.24790 0.32900 -0.22500
O 	O 	0.39280 0.48210 0.33450 -0.16200
O 	O 	0.76240 0.79380 0.29680 -0.34700
O 	O 	0.82160 0.69180 0.39510 -0.30700
O 	O 	0.72880 0.85010 0.40120 -0.27400
C 	C 	0.56070 0.20570 0.49500 0.15800
C 	C 	0.61160 0.22640 0.55990 -0.08600
C 	C 	0.67360 0.14730 0.59230 0.08800
C 	C 	0.68420 0.04780 0.56410 -0.15100
C 	C 	0.63360 0.03000 0.49850 0.08500
C 	C 	0.57360 0.10790 0.46470 -0.08200
C 	C 	0.52590 0.08900 0.39220 0.05600
C 	C 	0.53100 0.25640 0.32270 0.17200
C 	C 	0.57590 0.16250 0.34720 -0.08700
C 	C 	0.66890 0.13100 0.33610 0.09200
C 	C 	0.71640 0.20150 0.29840 -0.13100
C 	C 	0.67300 0.29480 0.27380 0.09000
C 	C 	0.57940 0.32560 0.28190 -0.07900
C 	C 	0.53240 0.42770 0.25290 0.06000
C 	C 	0.47140 0.54990 0.33680 0.15800
C 	C 	0.54520 0.52530 0.29840 -0.06900
C 	C 	0.62690 0.59340 0.30610 0.07100
C 	C 	0.63450 0.68350 0.34540 -0.14700
C 	C 	0.55780 0.71000 0.37970 0.07500
C 	C 	0.47540 0.64280 0.37300 -0.07800
C 	C 	0.60930 0.33770 0.59100 0.07700
O 	O 	0.89790 0.98470 0.44070 -0.21400
O 	O 	0.91460 0.77540 0.71890 -0.19000
O 	O 	0.79490 0.58130 0.66590 -0.22100
O 	O 	0.03430 0.18940 0.44970 -0.22200
O 	O 	0.01000 0.79000 0.36750 -0.20700
Na	Na	0.27120 0.25950 0.81200 0.59300
Na	Na	0.09440 0.39700 0.22570 0.59400
Na	Na	0.05700 0.61120 0.96810 0.58900
Na	Na	0.18410 0.21440 0.98330 0.58300
S 	S 	0.23330 0.45250 0.89470 0.52500
S 	S 	0.16240 0.67130 0.21210 0.52200
S 	S 	0.25620 0.26010 0.13980 0.53300
O 	O 	0.49860 0.78640 0.03470 -0.17300
O 	O 	0.13500 0.48650 0.90200 -0.29700
O 	O 	0.26190 0.34730 0.92140 -0.35100
O 	O 	0.24050 0.45910 0.82470 -0.28200
O 	O 	0.55750 0.78710 0.16360 -0.21900
O 	O 	0.13830 0.56380 0.19040 -0.29500
O 	O 	0.16050 0.69190 0.28140 -0.23000
O 	O 	0.09700 0.74790 0.17100 -0.22500
O 	O 	0.60720 0.98210 0.16550 -0.16200
O 	O 	0.23760 0.29380 0.20320 -0.34700
O 	O 	0.17840 0.19180 0.10490 -0.30600
O 	O 	0.27120 0.35010 0.09880 -0.27400
C 	C 	0.43930 0.70570 0.00500 0.15900
C 	C 	0.38840 0.72640 0.94010 -0.08600
C 	C 	0.32640 0.64730 0.90770 0.08900
C 	C 	0.31580 0.54780 0.93590 -0.15100
C 	C 	0.36640 0.53000 0.00150 0.08700
C 	C 	0.42640 0.60790 0.03530 -0.08300
C 	C 	0.47410 0.58900 0.10780 0.05700
C 	C 	0.46900 0.75640 0.17730 0.17200
C 	C 	0.42410 0.66250 0.15280 -0.08700
C 	C 	0.33110 0.63100 0.16390 0.09200
C 	C 	0.28360 0.70150 0.20160 -0.13100
C 	C 	0.32700 0.79480 0.22620 0.08900
C 	C 	0.42060 0.82560 0.21810 -0.07900
C 	C 	0.46760 0.92770 0.24710 0.06000
C 	C 	0.52860 0.04990 0.16320 0.15800
C 	C 	0.45480 0.02530 0.20160 -0.06900
C 	C 	0.37310 0.09340 0.19390 0.07100
C 	C 	0.36550 0.18350 0.15460 -0.14600
C 	C 	0.44220 0.21000 0.12030 0.07600
C 	C 	0.52460 0.14280 0.12700 -0.07800
C 	C 	0.39070 0.83770 0.90900 0.07700
O 	O 	0.10210 0.48470 0.05930 -0.21300
O 	O 	0.08540 0.27540 0.78110 -0.19100
O 	O 	0.20510 0.08130 0.83410 -0.22100
O 	O 	0.96570 0.68940 0.05030 -0.22300
O 	O 	0.99000 0.29000 0.13250 -0.20800
