data_crystal

_cell_length_a 29.84600
_cell_length_b 21.31000
_cell_length_c 12.09000
_cell_angle_alpha 90.00000
_cell_angle_beta  90.00000
_cell_angle_gamma 90.00000

_symmetry_space_group_name_	'P 1'
_symmetry_space_group_name_H-M	'P 1'

loop_
_symmetry_equiv_pos_as_xyz
  x,y,z

loop_
_atom_site_label
_atom_site_type_symbol
_atom_site_fract_x
_atom_site_fract_y
_atom_site_fract_z
_atom_site_charge
Fe	Fe	0.47485 0.24062 0.15566 1.13400
Fe	Fe	0.64892 0.11245 0.66380 1.10700
Fe	Fe	0.65784 0.54653 0.16011 1.10700
N 	N 	0.51750 0.17970 0.25600 -0.27500
C 	C 	0.53720 0.14660 0.30980 0.18000
N 	N 	0.55650 0.10490 0.37020 -0.20600
C 	C 	0.58440 0.11390 0.44530 0.20300
N 	N 	0.60870 0.11400 0.51280 -0.29600
N 	N 	0.53040 0.30250 0.12070 -0.27100
C 	C 	0.55220 0.34160 0.08260 0.16700
N 	N 	0.57580 0.38020 0.02880 -0.18400
C 	C 	0.59860 0.42490 0.08930 0.16300
N 	N 	0.61790 0.46540 0.12110 -0.27500
N 	N 	0.43210 0.30070 0.06340 -0.26400
C 	C 	0.42640 0.34540 0.00780 0.13600
N 	N 	0.42780 0.40160 0.96260 -0.17900
C 	C 	0.39990 0.41030 0.88290 0.16600
N 	N 	0.38110 0.42940 0.80960 -0.27800
N 	N 	0.49060 0.19170 0.01030 -0.27700
C 	C 	0.50340 0.17340 0.92770 0.15700
N 	N 	0.51260 0.15160 0.82330 -0.17400
C 	C 	0.55540 0.14730 0.79030 0.15800
N 	N 	0.58970 0.14310 0.75080 -0.28300
N 	N 	0.42140 0.17560 0.19270 -0.26300
C 	C 	0.40610 0.13010 0.23060 0.15100
N 	N 	0.38780 0.08160 0.28270 -0.18200
C 	C 	0.37690 0.03020 0.23400 0.16500
N 	N 	0.36660 0.98360 0.19160 -0.27300
N 	N 	0.45770 0.29540 0.30460 -0.27000
C 	C 	0.45080 0.31460 0.38950 0.17200
N 	N 	0.44970 0.34140 0.48470 -0.18300
C 	C 	0.41290 0.36920 0.51830 0.14000
N 	N 	0.38350 0.39720 0.56700 -0.28400
N 	N 	0.68990 0.11160 0.81180 -0.28500
C 	C 	0.70630 0.09280 0.88980 0.16800
N 	N 	0.72500 0.06500 0.97140 -0.19100
C 	C 	0.76120 0.08280 0.02060 0.15800
N 	N 	0.79360 0.09160 0.07100 -0.28800
N 	N 	0.70220 0.49470 0.26150 -0.28100
C 	C 	0.73490 0.48710 0.30830 0.13500
N 	N 	0.77260 0.46600 0.35910 -0.17700
C 	C 	0.78770 0.49630 0.45220 0.15900
N 	N 	0.80010 0.52450 0.52080 -0.29000
Fe	Fe	0.52515 0.75938 0.65566 1.13500
Fe	Fe	0.35108 0.88755 0.16380 1.10600
Fe	Fe	0.34216 0.45347 0.66011 1.10700
N 	N 	0.48250 0.82030 0.75600 -0.27500
C 	C 	0.46280 0.85340 0.80980 0.18100
N 	N 	0.44350 0.89510 0.87020 -0.20600
C 	C 	0.41560 0.88610 0.94530 0.20500
N 	N 	0.39130 0.88600 0.01280 -0.29800
N 	N 	0.46960 0.69750 0.62070 -0.27000
C 	C 	0.44780 0.65840 0.58260 0.16800
N 	N 	0.42420 0.61980 0.52880 -0.18400
C 	C 	0.40140 0.57510 0.58930 0.16400
N 	N 	0.38210 0.53460 0.62110 -0.27500
N 	N 	0.56790 0.69930 0.56340 -0.26400
C 	C 	0.57360 0.65460 0.50780 0.13900
N 	N 	0.57220 0.59840 0.46260 -0.18100
C 	C 	0.60010 0.58970 0.38290 0.16600
N 	N 	0.61890 0.57060 0.30960 -0.27800
N 	N 	0.50940 0.80830 0.51030 -0.27500
C 	C 	0.49660 0.82660 0.42770 0.15400
N 	N 	0.48740 0.84840 0.32330 -0.17400
C 	C 	0.44460 0.85270 0.29030 0.15700
N 	N 	0.41030 0.85690 0.25080 -0.28300
N 	N 	0.57860 0.82440 0.69270 -0.26300
C 	C 	0.59390 0.86990 0.73060 0.15200
N 	N 	0.61220 0.91840 0.78270 -0.18200
C 	C 	0.62310 0.96980 0.73400 0.16500
N 	N 	0.63340 0.01640 0.69160 -0.27300
N 	N 	0.54230 0.70460 0.80460 -0.27000
C 	C 	0.54920 0.68540 0.88950 0.17300
N 	N 	0.55030 0.65860 0.98470 -0.18200
C 	C 	0.58710 0.63080 0.01830 0.13800
N 	N 	0.61650 0.60280 0.06700 -0.28400
N 	N 	0.31010 0.88840 0.31180 -0.28500
C 	C 	0.29370 0.90720 0.38980 0.16800
N 	N 	0.27500 0.93500 0.47140 -0.19200
C 	C 	0.23880 0.91720 0.52060 0.16100
N 	N 	0.20640 0.90840 0.57100 -0.28900
N 	N 	0.29780 0.50530 0.76150 -0.28100
C 	C 	0.26510 0.51290 0.80830 0.13500
N 	N 	0.22740 0.53400 0.85910 -0.17700
C 	C 	0.21230 0.50370 0.95220 0.16200
N 	N 	0.19990 0.47550 0.02080 -0.29200
Fe	Fe	0.97485 0.75938 0.15566 1.13500
Fe	Fe	0.14892 0.88755 0.66380 1.10700
Fe	Fe	0.15784 0.45347 0.16011 1.10700
N 	N 	0.01750 0.82030 0.25600 -0.27500
C 	C 	0.03720 0.85340 0.30980 0.18000
N 	N 	0.05650 0.89510 0.37020 -0.20600
C 	C 	0.08440 0.88610 0.44530 0.20300
N 	N 	0.10870 0.88600 0.51280 -0.29600
N 	N 	0.03040 0.69750 0.12070 -0.27100
C 	C 	0.05220 0.65840 0.08260 0.16700
N 	N 	0.07580 0.61980 0.02880 -0.18400
C 	C 	0.09860 0.57510 0.08930 0.16300
N 	N 	0.11790 0.53460 0.12110 -0.27500
N 	N 	0.93210 0.69930 0.06340 -0.26400
C 	C 	0.92640 0.65460 0.00780 0.13600
N 	N 	0.92780 0.59840 0.96260 -0.17900
C 	C 	0.89990 0.58970 0.88290 0.16600
N 	N 	0.88110 0.57060 0.80960 -0.27800
N 	N 	0.99060 0.80830 0.01030 -0.27700
C 	C 	0.00340 0.82660 0.92770 0.15700
N 	N 	0.01260 0.84840 0.82330 -0.17400
C 	C 	0.05540 0.85270 0.79030 0.15800
N 	N 	0.08970 0.85690 0.75080 -0.28300
N 	N 	0.92140 0.82440 0.19270 -0.26400
C 	C 	0.90610 0.86990 0.23060 0.15100
N 	N 	0.88780 0.91840 0.28270 -0.18200
C 	C 	0.87690 0.96980 0.23400 0.16500
N 	N 	0.86660 0.01640 0.19160 -0.27300
N 	N 	0.95770 0.70460 0.30460 -0.27000
C 	C 	0.95080 0.68540 0.38950 0.17200
N 	N 	0.94970 0.65860 0.48470 -0.18300
C 	C 	0.91290 0.63080 0.51830 0.14000
N 	N 	0.88350 0.60280 0.56700 -0.28400
N 	N 	0.18990 0.88840 0.81180 -0.28500
C 	C 	0.20630 0.90720 0.88980 0.16800
N 	N 	0.22500 0.93500 0.97140 -0.19100
C 	C 	0.26120 0.91720 0.02060 0.15800
N 	N 	0.29360 0.90840 0.07100 -0.28800
N 	N 	0.20220 0.50530 0.26150 -0.28100
C 	C 	0.23490 0.51290 0.30830 0.13500
N 	N 	0.27260 0.53400 0.35910 -0.17700
C 	C 	0.28770 0.50370 0.45220 0.15900
N 	N 	0.30010 0.47550 0.52080 -0.29000
Fe	Fe	0.02515 0.24062 0.65566 1.13500
Fe	Fe	0.85108 0.11245 0.16380 1.10600
Fe	Fe	0.84216 0.54653 0.66011 1.10700
N 	N 	0.98250 0.17970 0.75600 -0.27500
C 	C 	0.96280 0.14660 0.80980 0.18100
N 	N 	0.94350 0.10490 0.87020 -0.20600
C 	C 	0.91560 0.11390 0.94530 0.20600
N 	N 	0.89130 0.11400 0.01280 -0.29900
N 	N 	0.96960 0.30250 0.62070 -0.27000
C 	C 	0.94780 0.34160 0.58260 0.16800
N 	N 	0.92420 0.38020 0.52880 -0.18400
C 	C 	0.90140 0.42490 0.58930 0.16400
N 	N 	0.88210 0.46540 0.62110 -0.27500
N 	N 	0.06790 0.30070 0.56340 -0.26400
C 	C 	0.07360 0.34540 0.50780 0.13900
N 	N 	0.07220 0.40160 0.46260 -0.18100
C 	C 	0.10010 0.41030 0.38290 0.16600
N 	N 	0.11890 0.42940 0.30960 -0.27800
N 	N 	0.00940 0.19170 0.51030 -0.27600
C 	C 	0.99660 0.17340 0.42770 0.15500
N 	N 	0.98740 0.15160 0.32330 -0.17400
C 	C 	0.94460 0.14730 0.29030 0.15700
N 	N 	0.91030 0.14310 0.25080 -0.28300
N 	N 	0.07860 0.17560 0.69270 -0.26300
C 	C 	0.09390 0.13010 0.73060 0.15100
N 	N 	0.11220 0.08160 0.78270 -0.18200
C 	C 	0.12310 0.03020 0.73400 0.16500
N 	N 	0.13340 0.98360 0.69160 -0.27200
N 	N 	0.04230 0.29540 0.80460 -0.27000
C 	C 	0.04920 0.31460 0.88950 0.17300
N 	N 	0.05030 0.34140 0.98470 -0.18200
C 	C 	0.08710 0.36920 0.01830 0.13800
N 	N 	0.11650 0.39720 0.06700 -0.28400
N 	N 	0.81010 0.11160 0.31180 -0.28500
C 	C 	0.79370 0.09280 0.38980 0.16800
N 	N 	0.77500 0.06500 0.47140 -0.19200
C 	C 	0.73880 0.08280 0.52060 0.16100
N 	N 	0.70640 0.09160 0.57100 -0.28900
N 	N 	0.79780 0.49470 0.76150 -0.28100
C 	C 	0.76510 0.48710 0.80830 0.13500
N 	N 	0.72740 0.46600 0.85910 -0.17700
C 	C 	0.71230 0.49630 0.95220 0.16200
N 	N 	0.69990 0.52450 0.02080 -0.29200
