data_crystal

_cell_length_a 18.61070
_cell_length_b 18.61070
_cell_length_c 4.80220
_cell_angle_alpha 90.00000
_cell_angle_beta  90.00000
_cell_angle_gamma 90.00000

_symmetry_space_group_name_	'P 1'
_symmetry_space_group_name_H-M	'P 1'

loop_
_symmetry_equiv_pos_as_xyz
  x,y,z

loop_
_atom_site_label
_atom_site_type_symbol
_atom_site_fract_x
_atom_site_fract_y
_atom_site_fract_z
_atom_site_charge
C 	C 	0.98349 0.69415 0.39900 -0.09300
H 	H 	0.97910 0.67920 0.59400 0.11100
C 	C 	0.96973 0.63145 0.20740 0.39600
O 	O 	0.92162 0.63191 0.02670 -0.34400
O 	O 	0.01337 0.57973 0.24360 -0.49400
C 	C 	0.48349 0.19415 0.89900 -0.03600
H 	H 	0.47910 0.17920 0.09400 0.03700
C 	C 	0.46973 0.13145 0.70740 0.31500
O 	O 	0.42162 0.13191 0.52670 -0.32400
O 	O 	0.51337 0.07973 0.74360 -0.43500
C 	C 	0.51651 0.30585 0.89900 -0.03300
H 	H 	0.52090 0.32080 0.09400 0.03900
C 	C 	0.53027 0.36855 0.70740 0.31300
O 	O 	0.57838 0.36809 0.52670 -0.31000
O 	O 	0.48663 0.42027 0.74360 -0.41500
C 	C 	0.01651 0.80585 0.39900 -0.12700
H 	H 	0.02090 0.82080 0.59400 0.09200
C 	C 	0.03027 0.86855 0.20740 0.26400
O 	O 	0.07838 0.86809 0.02670 -0.30800
O 	O 	0.98663 0.92027 0.24360 -0.32900
C 	C 	0.05585 0.23349 0.64900 -0.15300
H 	H 	0.07080 0.22910 0.84400 0.10400
C 	C 	0.11855 0.21973 0.45740 0.34100
O 	O 	0.11809 0.17162 0.27670 -0.35700
O 	O 	0.17027 0.26337 0.49360 -0.43600
C 	C 	0.55585 0.73349 0.14900 -0.10200
H 	H 	0.57080 0.72910 0.34400 0.08300
C 	C 	0.61855 0.71973 0.95740 0.34800
O 	O 	0.61809 0.67162 0.77670 -0.31400
O 	O 	0.67027 0.76337 0.99360 -0.41300
C 	C 	0.44415 0.76651 0.14900 -0.10200
H 	H 	0.42920 0.77090 0.34400 0.08400
C 	C 	0.38145 0.78027 0.95740 0.34900
O 	O 	0.38191 0.82838 0.77670 -0.30200
O 	O 	0.32973 0.73663 0.99360 -0.41700
C 	C 	0.94415 0.26651 0.64900 -0.07900
H 	H 	0.92920 0.27090 0.84400 0.10100
C 	C 	0.88145 0.28027 0.45740 0.32600
O 	O 	0.88191 0.32838 0.27670 -0.32200
O 	O 	0.82973 0.23663 0.49360 -0.43400
C 	C 	0.01651 0.30585 0.60100 -0.08700
H 	H 	0.02090 0.32080 0.40600 0.05200
C 	C 	0.03027 0.36855 0.79260 0.24800
O 	O 	0.07838 0.36809 0.97330 -0.27500
O 	O 	0.98663 0.42027 0.75640 -0.34200
C 	C 	0.51651 0.80585 0.10100 -0.13800
H 	H 	0.52090 0.82080 0.90600 0.12100
C 	C 	0.53027 0.86855 0.29260 0.32800
O 	O 	0.57838 0.86809 0.47330 -0.29900
O 	O 	0.48663 0.92027 0.25640 -0.40100
C 	C 	0.48349 0.69415 0.10100 -0.14400
H 	H 	0.47910 0.67920 0.90600 0.11800
C 	C 	0.46973 0.63145 0.29260 0.33300
O 	O 	0.42162 0.63191 0.47330 -0.32100
O 	O 	0.51337 0.57973 0.25640 -0.44400
C 	C 	0.98349 0.19415 0.60100 -0.05200
H 	H 	0.97910 0.17920 0.40600 0.07200
C 	C 	0.96973 0.13145 0.79260 0.37600
O 	O 	0.92162 0.13191 0.97330 -0.30300
O 	O 	0.01337 0.07973 0.75640 -0.48300
C 	C 	0.94415 0.76651 0.35100 -0.03700
H 	H 	0.92920 0.77090 0.15600 0.06500
C 	C 	0.88145 0.78027 0.54260 0.30700
O 	O 	0.88191 0.82838 0.72330 -0.27200
O 	O 	0.82973 0.73663 0.50640 -0.42300
C 	C 	0.44415 0.26651 0.85100 -0.08000
H 	H 	0.42920 0.27090 0.65600 0.08100
C 	C 	0.38145 0.28027 0.04260 0.29200
O 	O 	0.38191 0.32838 0.22330 -0.31700
O 	O 	0.32973 0.23663 0.00640 -0.44900
C 	C 	0.55585 0.23349 0.85100 -0.08000
H 	H 	0.57080 0.22910 0.65600 0.08000
C 	C 	0.61855 0.21973 0.04260 0.29100
O 	O 	0.61809 0.17162 0.22330 -0.32600
O 	O 	0.67027 0.26337 0.00640 -0.44500
C 	C 	0.05585 0.73349 0.35100 -0.11100
H 	H 	0.07080 0.72910 0.15600 0.06700
C 	C 	0.11855 0.71973 0.54260 0.32200
O 	O 	0.11809 0.67162 0.72330 -0.31000
O 	O 	0.17027 0.76337 0.50640 -0.42400
Cu	Cu	-0.00000 0.50000 -0.00000 0.82500
Cu	Cu	0.50000 0.00000 0.50000 0.83100
Cu	Cu	0.50000 0.50000 0.50000 0.86800
Cu	Cu	-0.00000 0.00000 -0.00000 0.78800
Cu	Cu	0.25000 0.25000 0.25000 0.86100
Cu	Cu	0.75000 0.75000 0.75000 0.87600
Cu	Cu	0.25000 0.75000 0.75000 0.87500
Cu	Cu	0.75000 0.25000 0.25000 0.86200
