data_crystal

_cell_length_a 20.52230
_cell_length_b 20.52230
_cell_length_c 20.52230
_cell_angle_alpha 90.00000
_cell_angle_beta  90.00000
_cell_angle_gamma 90.00000

_symmetry_space_group_name_	'P 1'
_symmetry_space_group_name_H-M	'P 1'

loop_
_symmetry_equiv_pos_as_xyz
  x,y,z

loop_
_atom_site_label
_atom_site_type_symbol
_atom_site_fract_x
_atom_site_fract_y
_atom_site_fract_z
_atom_site_charge
Zn	Zn	0.16283 0.10087 0.64202 1.20800
Zn	Zn	0.27718 0.00549 0.56126 1.19800
Zn	Zn	0.33717 0.89913 0.14202 1.20700
Zn	Zn	0.22282 0.99451 0.06126 1.19600
Zn	Zn	0.83717 0.60087 0.85798 1.20800
Zn	Zn	0.72282 0.50549 0.93874 1.19800
Zn	Zn	0.66283 0.39913 0.35798 1.20800
Zn	Zn	0.77718 0.49451 0.43874 1.19800
Zn	Zn	0.64202 0.16283 0.10087 1.20800
Zn	Zn	0.56126 0.27718 0.00549 1.19800
Zn	Zn	0.14202 0.33717 0.89913 1.20700
Zn	Zn	0.06126 0.22282 0.99451 1.19600
Zn	Zn	0.85798 0.83717 0.60087 1.20800
Zn	Zn	0.93874 0.72282 0.50549 1.19800
Zn	Zn	0.35798 0.66283 0.39913 1.20800
Zn	Zn	0.43874 0.77718 0.49451 1.19800
Zn	Zn	0.10087 0.64202 0.16283 1.20800
Zn	Zn	0.00549 0.56126 0.27718 1.19800
Zn	Zn	0.89913 0.14202 0.33717 1.20800
Zn	Zn	0.99451 0.06126 0.22282 1.19700
Zn	Zn	0.60087 0.85798 0.83717 1.20900
Zn	Zn	0.50549 0.93874 0.72282 1.19900
Zn	Zn	0.39913 0.35798 0.66283 1.20900
Zn	Zn	0.49451 0.43874 0.77718 1.19900
Zn	Zn	0.83717 0.89913 0.35798 1.20900
Zn	Zn	0.72282 0.99451 0.43874 1.19900
Zn	Zn	0.66283 0.10087 0.85798 1.20800
Zn	Zn	0.77718 0.00549 0.93874 1.19700
Zn	Zn	0.16283 0.39913 0.14202 1.20900
Zn	Zn	0.27718 0.49451 0.06126 1.19900
Zn	Zn	0.33717 0.60087 0.64202 1.20900
Zn	Zn	0.22282 0.50549 0.56126 1.19900
Zn	Zn	0.35798 0.83717 0.89913 1.20900
Zn	Zn	0.43874 0.72282 0.99451 1.19900
Zn	Zn	0.85798 0.66283 0.10087 1.20800
Zn	Zn	0.93874 0.77718 0.00549 1.19700
Zn	Zn	0.14202 0.16283 0.39913 1.20900
Zn	Zn	0.06126 0.27718 0.49451 1.19900
Zn	Zn	0.64202 0.33717 0.60087 1.20900
Zn	Zn	0.56126 0.22282 0.50549 1.19900
Zn	Zn	0.89913 0.35798 0.83717 1.20900
Zn	Zn	0.99451 0.43874 0.72282 1.19900
Zn	Zn	0.10087 0.85798 0.66283 1.20800
Zn	Zn	0.00549 0.93874 0.77718 1.19700
Zn	Zn	0.39913 0.14202 0.16283 1.20900
Zn	Zn	0.49451 0.06126 0.27718 1.19900
Zn	Zn	0.60087 0.64202 0.33717 1.20900
Zn	Zn	0.50549 0.56126 0.22282 1.19900
H 	H 	0.33880 0.19260 0.50270 0.08800
H 	H 	0.37810 0.20010 0.62050 0.05900
H 	H 	0.23690 0.30580 0.61090 0.07700
H 	H 	0.30050 0.29280 0.49140 0.08000
H 	H 	0.16120 0.80740 0.00270 0.08800
H 	H 	0.12190 0.79990 0.12050 0.05900
H 	H 	0.26310 0.69420 0.11090 0.07700
H 	H 	0.19950 0.70720 0.99140 0.08000
H 	H 	0.66120 0.69260 0.99730 0.09100
H 	H 	0.62190 0.70010 0.87950 0.05800
H 	H 	0.76310 0.80580 0.88910 0.07900
H 	H 	0.69950 0.79280 0.00860 0.07400
H 	H 	0.83880 0.30740 0.49730 0.08800
H 	H 	0.87810 0.29990 0.37950 0.05900
H 	H 	0.73690 0.19420 0.38910 0.07700
H 	H 	0.80050 0.20720 0.50860 0.08000
H 	H 	0.50270 0.33880 0.19260 0.08800
H 	H 	0.62050 0.37810 0.20010 0.05900
H 	H 	0.61090 0.23690 0.30580 0.07700
H 	H 	0.49140 0.30050 0.29280 0.08000
H 	H 	0.00270 0.16120 0.80740 0.08800
H 	H 	0.12050 0.12190 0.79990 0.05900
H 	H 	0.11090 0.26310 0.69420 0.07700
H 	H 	0.99140 0.19950 0.70720 0.08000
H 	H 	0.99730 0.66120 0.69260 0.09100
H 	H 	0.87950 0.62190 0.70010 0.05800
H 	H 	0.88910 0.76310 0.80580 0.07900
H 	H 	0.00860 0.69950 0.79280 0.07400
H 	H 	0.49730 0.83880 0.30740 0.08800
H 	H 	0.37950 0.87810 0.29990 0.05900
H 	H 	0.38910 0.73690 0.19420 0.07700
H 	H 	0.50860 0.80050 0.20720 0.08000
H 	H 	0.19260 0.50270 0.33880 0.08800
H 	H 	0.20010 0.62050 0.37810 0.05900
H 	H 	0.30580 0.61090 0.23690 0.07700
H 	H 	0.29280 0.49140 0.30050 0.08000
H 	H 	0.80740 0.00270 0.16120 0.08800
H 	H 	0.79990 0.12050 0.12190 0.05900
H 	H 	0.69420 0.11090 0.26310 0.07700
H 	H 	0.70720 0.99140 0.19950 0.08000
H 	H 	0.69260 0.99730 0.66120 0.09100
H 	H 	0.70010 0.87950 0.62190 0.05800
H 	H 	0.80580 0.88910 0.76310 0.07900
H 	H 	0.79280 0.00860 0.69950 0.07400
H 	H 	0.30740 0.49730 0.83880 0.08800
H 	H 	0.29990 0.37950 0.87810 0.05900
H 	H 	0.19420 0.38910 0.73690 0.07700
H 	H 	0.20720 0.50860 0.80050 0.08000
H 	H 	0.66120 0.80740 0.49730 0.08800
H 	H 	0.62190 0.79990 0.37950 0.05900
H 	H 	0.76310 0.69420 0.38910 0.07700
H 	H 	0.69950 0.70720 0.50860 0.08000
H 	H 	0.83880 0.19260 0.99730 0.08800
H 	H 	0.87810 0.20010 0.87950 0.05900
H 	H 	0.73690 0.30580 0.88910 0.07700
H 	H 	0.80050 0.29280 0.00860 0.08000
H 	H 	0.33880 0.30740 0.00270 0.09100
H 	H 	0.37810 0.29990 0.12050 0.05800
H 	H 	0.23690 0.19420 0.11090 0.07900
H 	H 	0.30050 0.20720 0.99140 0.07400
H 	H 	0.16120 0.69260 0.50270 0.08800
H 	H 	0.12190 0.70010 0.62050 0.05900
H 	H 	0.26310 0.80580 0.61090 0.07700
H 	H 	0.19950 0.79280 0.49140 0.08000
H 	H 	0.49730 0.66120 0.80740 0.08800
H 	H 	0.37950 0.62190 0.79990 0.05900
H 	H 	0.38910 0.76310 0.69420 0.07700
H 	H 	0.50860 0.69950 0.70720 0.08000
H 	H 	0.99730 0.83880 0.19260 0.08800
H 	H 	0.87950 0.87810 0.20010 0.05900
H 	H 	0.88910 0.73690 0.30580 0.07700
H 	H 	0.00860 0.80050 0.29280 0.08000
H 	H 	0.00270 0.33880 0.30740 0.09100
H 	H 	0.12050 0.37810 0.29990 0.05800
H 	H 	0.11090 0.23690 0.19420 0.07900
H 	H 	0.99140 0.30050 0.20720 0.07400
H 	H 	0.50270 0.16120 0.69260 0.08800
H 	H 	0.62050 0.12190 0.70010 0.05900
H 	H 	0.61090 0.26310 0.80580 0.07700
H 	H 	0.49140 0.19950 0.79280 0.08000
H 	H 	0.80740 0.49730 0.66120 0.08800
H 	H 	0.79990 0.37950 0.62190 0.05900
H 	H 	0.69420 0.38910 0.76310 0.07700
H 	H 	0.70720 0.50860 0.69950 0.08000
H 	H 	0.19260 0.99730 0.83880 0.08800
H 	H 	0.20010 0.87950 0.87810 0.05900
H 	H 	0.30580 0.88910 0.73690 0.07700
H 	H 	0.29280 0.00860 0.80050 0.08000
H 	H 	0.30740 0.00270 0.33880 0.09100
H 	H 	0.29990 0.12050 0.37810 0.05800
H 	H 	0.19420 0.11090 0.23690 0.07900
H 	H 	0.20720 0.99140 0.30050 0.07400
H 	H 	0.69260 0.50270 0.16120 0.08800
H 	H 	0.70010 0.62050 0.12190 0.05900
H 	H 	0.80580 0.61090 0.26310 0.07700
H 	H 	0.79280 0.49140 0.19950 0.08000
C 	C 	0.31638 0.20876 0.54158 -0.12200
C 	C 	0.36616 0.23550 0.59070 -0.03200
C 	C 	0.27830 0.31038 0.58758 -0.03400
C 	C 	0.27624 0.26881 0.52475 -0.10000
C 	C 	0.27876 0.15341 0.57436 0.42600
C 	C 	0.29074 0.38207 0.57383 0.34900
C 	C 	0.42865 0.26290 0.56111 0.34600
C 	C 	0.20934 0.25340 0.49598 0.40100
C 	C 	0.18362 0.79124 0.04158 -0.12200
C 	C 	0.13384 0.76450 0.09070 -0.03200
C 	C 	0.22170 0.68962 0.08758 -0.03400
C 	C 	0.22376 0.73119 0.02475 -0.09900
C 	C 	0.22124 0.84659 0.07436 0.42600
C 	C 	0.20926 0.61793 0.07383 0.34900
C 	C 	0.07135 0.73710 0.06111 0.34600
C 	C 	0.29066 0.74660 0.99598 0.40100
C 	C 	0.68362 0.70876 0.95842 -0.12700
C 	C 	0.63384 0.73550 0.90930 -0.03100
C 	C 	0.72170 0.81038 0.91242 -0.03800
C 	C 	0.72376 0.76881 0.97525 -0.08600
C 	C 	0.72124 0.65341 0.92564 0.42800
C 	C 	0.70926 0.88207 0.92617 0.35100
C 	C 	0.57135 0.76290 0.93889 0.34500
C 	C 	0.79066 0.75340 0.00402 0.38800
C 	C 	0.81638 0.29124 0.45842 -0.12200
C 	C 	0.86616 0.26450 0.40930 -0.03200
C 	C 	0.77830 0.18962 0.41242 -0.03400
C 	C 	0.77624 0.23119 0.47525 -0.10000
C 	C 	0.77876 0.34659 0.42564 0.42600
C 	C 	0.79074 0.11793 0.42617 0.35000
C 	C 	0.92865 0.23710 0.43889 0.34600
C 	C 	0.70934 0.24660 0.50402 0.40000
C 	C 	0.54158 0.31638 0.20876 -0.12200
C 	C 	0.59070 0.36616 0.23550 -0.03200
C 	C 	0.58758 0.27830 0.31038 -0.03400
C 	C 	0.52475 0.27624 0.26881 -0.10000
C 	C 	0.57436 0.27876 0.15341 0.42600
C 	C 	0.57383 0.29074 0.38207 0.34900
C 	C 	0.56111 0.42865 0.26290 0.34600
C 	C 	0.49598 0.20934 0.25340 0.40100
C 	C 	0.04158 0.18362 0.79124 -0.12200
C 	C 	0.09070 0.13384 0.76450 -0.03200
C 	C 	0.08758 0.22170 0.68962 -0.03400
C 	C 	0.02475 0.22376 0.73119 -0.09900
C 	C 	0.07436 0.22124 0.84659 0.42600
C 	C 	0.07383 0.20926 0.61793 0.34900
C 	C 	0.06111 0.07135 0.73710 0.34600
C 	C 	0.99598 0.29066 0.74660 0.40100
C 	C 	0.95842 0.68362 0.70876 -0.12700
C 	C 	0.90930 0.63384 0.73550 -0.03100
C 	C 	0.91242 0.72170 0.81038 -0.03800
C 	C 	0.97525 0.72376 0.76881 -0.08600
C 	C 	0.92564 0.72124 0.65341 0.42800
C 	C 	0.92617 0.70926 0.88207 0.35100
C 	C 	0.93889 0.57135 0.76290 0.34500
C 	C 	0.00402 0.79066 0.75340 0.38800
C 	C 	0.45842 0.81638 0.29124 -0.12200
C 	C 	0.40930 0.86616 0.26450 -0.03200
C 	C 	0.41242 0.77830 0.18962 -0.03400
C 	C 	0.47525 0.77624 0.23119 -0.10000
C 	C 	0.42564 0.77876 0.34659 0.42600
C 	C 	0.42617 0.79074 0.11793 0.35000
C 	C 	0.43889 0.92865 0.23710 0.34600
C 	C 	0.50402 0.70934 0.24660 0.40000
C 	C 	0.20876 0.54158 0.31638 -0.12200
C 	C 	0.23550 0.59070 0.36616 -0.03200
C 	C 	0.31038 0.58758 0.27830 -0.03400
C 	C 	0.26881 0.52475 0.27624 -0.10000
C 	C 	0.15341 0.57436 0.27876 0.42600
C 	C 	0.38207 0.57383 0.29074 0.34900
C 	C 	0.26290 0.56111 0.42865 0.34600
C 	C 	0.25340 0.49598 0.20934 0.40100
C 	C 	0.79124 0.04158 0.18362 -0.12200
C 	C 	0.76450 0.09070 0.13384 -0.03200
C 	C 	0.68962 0.08758 0.22170 -0.03400
C 	C 	0.73119 0.02475 0.22376 -0.09900
C 	C 	0.84659 0.07436 0.22124 0.42600
C 	C 	0.61793 0.07383 0.20926 0.34900
C 	C 	0.73710 0.06111 0.07135 0.34600
C 	C 	0.74660 0.99598 0.29066 0.40100
C 	C 	0.70876 0.95842 0.68362 -0.12700
C 	C 	0.73550 0.90930 0.63384 -0.03100
C 	C 	0.81038 0.91242 0.72170 -0.03800
C 	C 	0.76881 0.97525 0.72376 -0.08600
C 	C 	0.65341 0.92564 0.72124 0.42800
C 	C 	0.88207 0.92617 0.70926 0.35100
C 	C 	0.76290 0.93889 0.57135 0.34500
C 	C 	0.75340 0.00402 0.79066 0.38800
C 	C 	0.29124 0.45842 0.81638 -0.12200
C 	C 	0.26450 0.40930 0.86616 -0.03200
C 	C 	0.18962 0.41242 0.77830 -0.03400
C 	C 	0.23119 0.47525 0.77624 -0.10000
C 	C 	0.34659 0.42564 0.77876 0.42600
C 	C 	0.11793 0.42617 0.79074 0.35000
C 	C 	0.23710 0.43889 0.92865 0.34600
C 	C 	0.24660 0.50402 0.70934 0.40000
C 	C 	0.68362 0.79124 0.45842 -0.12200
C 	C 	0.63384 0.76450 0.40930 -0.03200
C 	C 	0.72170 0.68962 0.41242 -0.03400
C 	C 	0.72376 0.73119 0.47525 -0.10000
C 	C 	0.72124 0.84659 0.42564 0.42600
C 	C 	0.70926 0.61793 0.42617 0.34900
C 	C 	0.57135 0.73710 0.43889 0.34600
C 	C 	0.79066 0.74660 0.50402 0.40100
C 	C 	0.81638 0.20876 0.95842 -0.12200
C 	C 	0.86616 0.23550 0.90930 -0.03200
C 	C 	0.77830 0.31038 0.91242 -0.03400
C 	C 	0.77624 0.26881 0.97525 -0.09900
C 	C 	0.77876 0.15341 0.92564 0.42600
C 	C 	0.79074 0.38207 0.92617 0.34900
C 	C 	0.92865 0.26290 0.93889 0.34600
C 	C 	0.70934 0.25340 0.00402 0.40100
C 	C 	0.31638 0.29124 0.04158 -0.12700
C 	C 	0.36616 0.26450 0.09070 -0.03100
C 	C 	0.27830 0.18962 0.08758 -0.03800
C 	C 	0.27624 0.23119 0.02475 -0.08600
C 	C 	0.27876 0.34659 0.07436 0.42800
C 	C 	0.29074 0.11793 0.07383 0.35100
C 	C 	0.42865 0.23710 0.06111 0.34500
C 	C 	0.20934 0.24660 0.99598 0.38800
C 	C 	0.18362 0.70876 0.54158 -0.12200
C 	C 	0.13384 0.73550 0.59070 -0.03200
C 	C 	0.22170 0.81038 0.58758 -0.03400
C 	C 	0.22376 0.76881 0.52475 -0.10000
C 	C 	0.22124 0.65341 0.57436 0.42600
C 	C 	0.20926 0.88207 0.57383 0.35000
C 	C 	0.07135 0.76290 0.56111 0.34600
C 	C 	0.29066 0.75340 0.49598 0.40000
C 	C 	0.45842 0.68362 0.79124 -0.12200
C 	C 	0.40930 0.63384 0.76450 -0.03200
C 	C 	0.41242 0.72170 0.68962 -0.03400
C 	C 	0.47525 0.72376 0.73119 -0.10000
C 	C 	0.42564 0.72124 0.84659 0.42600
C 	C 	0.42617 0.70926 0.61793 0.34900
C 	C 	0.43889 0.57135 0.73710 0.34600
C 	C 	0.50402 0.79066 0.74660 0.40100
C 	C 	0.95842 0.81638 0.20876 -0.12200
C 	C 	0.90930 0.86616 0.23550 -0.03200
C 	C 	0.91242 0.77830 0.31038 -0.03400
C 	C 	0.97525 0.77624 0.26881 -0.09900
C 	C 	0.92564 0.77876 0.15341 0.42600
C 	C 	0.92617 0.79074 0.38207 0.34900
C 	C 	0.93889 0.92865 0.26290 0.34600
C 	C 	0.00402 0.70934 0.25340 0.40100
C 	C 	0.04158 0.31638 0.29124 -0.12700
C 	C 	0.09070 0.36616 0.26450 -0.03100
C 	C 	0.08758 0.27830 0.18962 -0.03800
C 	C 	0.02475 0.27624 0.23119 -0.08600
C 	C 	0.07436 0.27876 0.34659 0.42800
C 	C 	0.07383 0.29074 0.11793 0.35100
C 	C 	0.06111 0.42865 0.23710 0.34500
C 	C 	0.99598 0.20934 0.24660 0.38800
C 	C 	0.54158 0.18362 0.70876 -0.12200
C 	C 	0.59070 0.13384 0.73550 -0.03200
C 	C 	0.58758 0.22170 0.81038 -0.03400
C 	C 	0.52475 0.22376 0.76881 -0.10000
C 	C 	0.57436 0.22124 0.65341 0.42600
C 	C 	0.57383 0.20926 0.88207 0.35000
C 	C 	0.56111 0.07135 0.76290 0.34600
C 	C 	0.49598 0.29066 0.75340 0.40000
C 	C 	0.79124 0.45842 0.68362 -0.12200
C 	C 	0.76450 0.40930 0.63384 -0.03200
C 	C 	0.68962 0.41242 0.72170 -0.03400
C 	C 	0.73119 0.47525 0.72376 -0.10000
C 	C 	0.84659 0.42564 0.72124 0.42600
C 	C 	0.61793 0.42617 0.70926 0.34900
C 	C 	0.73710 0.43889 0.57135 0.34600
C 	C 	0.74660 0.50402 0.79066 0.40100
C 	C 	0.20876 0.95842 0.81638 -0.12200
C 	C 	0.23550 0.90930 0.86616 -0.03200
C 	C 	0.31038 0.91242 0.77830 -0.03400
C 	C 	0.26881 0.97525 0.77624 -0.09900
C 	C 	0.15341 0.92564 0.77876 0.42600
C 	C 	0.38207 0.92617 0.79074 0.34900
C 	C 	0.26290 0.93889 0.92865 0.34600
C 	C 	0.25340 0.00402 0.70934 0.40100
C 	C 	0.29124 0.04158 0.31638 -0.12700
C 	C 	0.26450 0.09070 0.36616 -0.03100
C 	C 	0.18962 0.08758 0.27830 -0.03800
C 	C 	0.23119 0.02475 0.27624 -0.08600
C 	C 	0.34659 0.07436 0.27876 0.42800
C 	C 	0.11793 0.07383 0.29074 0.35100
C 	C 	0.23710 0.06111 0.42865 0.34500
C 	C 	0.24660 0.99598 0.20934 0.38800
C 	C 	0.70876 0.54158 0.18362 -0.12200
C 	C 	0.73550 0.59070 0.13384 -0.03200
C 	C 	0.81038 0.58758 0.22170 -0.03400
C 	C 	0.76881 0.52475 0.22376 -0.10000
C 	C 	0.65341 0.57436 0.22124 0.42600
C 	C 	0.88207 0.57383 0.20926 0.35000
C 	C 	0.76290 0.56111 0.07135 0.34600
C 	C 	0.75340 0.49598 0.29066 0.40000
O 	O 	0.22765 0.16639 0.60451 -0.46600
O 	O 	0.30419 0.09908 0.57060 -0.51700
O 	O 	0.24543 0.41045 0.54304 -0.43500
O 	O 	0.34190 0.40845 0.59259 -0.45200
O 	O 	0.44776 0.31826 0.57961 -0.44400
O 	O 	0.45805 0.22745 0.52193 -0.42400
O 	O 	0.21053 0.21397 0.44910 -0.47600
O 	O 	0.15979 0.28095 0.51853 -0.46700
O 	O 	0.33076 0.28392 0.62742 -0.26400
O 	O 	0.27235 0.83361 0.10451 -0.46700
O 	O 	0.19581 0.90092 0.07060 -0.51900
O 	O 	0.25457 0.58955 0.04304 -0.43500
O 	O 	0.15810 0.59155 0.09259 -0.45200
O 	O 	0.05224 0.68174 0.07961 -0.44400
O 	O 	0.04195 0.77255 0.02193 -0.42400
O 	O 	0.28947 0.78603 0.94910 -0.47600
O 	O 	0.34021 0.71905 0.01853 -0.46700
O 	O 	0.16924 0.71608 0.12742 -0.26400
O 	O 	0.77235 0.66639 0.89549 -0.46600
O 	O 	0.69581 0.59908 0.92940 -0.51800
O 	O 	0.75457 0.91045 0.95696 -0.43300
O 	O 	0.65810 0.90845 0.90741 -0.45100
O 	O 	0.55224 0.81826 0.92039 -0.44400
O 	O 	0.54195 0.72745 0.97807 -0.42300
O 	O 	0.78947 0.71397 0.05090 -0.47300
O 	O 	0.84021 0.78095 0.98147 -0.45900
O 	O 	0.66924 0.78392 0.87258 -0.26300
O 	O 	0.72765 0.33361 0.39549 -0.46600
O 	O 	0.80419 0.40092 0.42940 -0.51800
O 	O 	0.74543 0.08955 0.45696 -0.43600
O 	O 	0.84190 0.09155 0.40741 -0.45300
O 	O 	0.94776 0.18174 0.42039 -0.44500
O 	O 	0.95805 0.27255 0.47807 -0.42500
O 	O 	0.71053 0.28603 0.55090 -0.47600
O 	O 	0.65979 0.21905 0.48147 -0.46700
O 	O 	0.83076 0.21608 0.37258 -0.26400
O 	O 	0.60451 0.22765 0.16639 -0.46600
O 	O 	0.57060 0.30419 0.09908 -0.51700
O 	O 	0.54304 0.24543 0.41045 -0.43500
O 	O 	0.59259 0.34190 0.40845 -0.45200
O 	O 	0.57961 0.44776 0.31826 -0.44400
O 	O 	0.52193 0.45805 0.22745 -0.42400
O 	O 	0.44910 0.21053 0.21397 -0.47600
O 	O 	0.51853 0.15979 0.28095 -0.46700
O 	O 	0.62742 0.33076 0.28392 -0.26400
O 	O 	0.10451 0.27235 0.83361 -0.46700
O 	O 	0.07060 0.19581 0.90092 -0.51900
O 	O 	0.04304 0.25457 0.58955 -0.43500
O 	O 	0.09259 0.15810 0.59155 -0.45200
O 	O 	0.07961 0.05224 0.68174 -0.44400
O 	O 	0.02193 0.04195 0.77255 -0.42400
O 	O 	0.94910 0.28947 0.78603 -0.47600
O 	O 	0.01853 0.34021 0.71905 -0.46700
O 	O 	0.12742 0.16924 0.71608 -0.26400
O 	O 	0.89549 0.77235 0.66639 -0.46600
O 	O 	0.92940 0.69581 0.59908 -0.51800
O 	O 	0.95696 0.75457 0.91045 -0.43300
O 	O 	0.90741 0.65810 0.90845 -0.45100
O 	O 	0.92039 0.55224 0.81826 -0.44400
O 	O 	0.97807 0.54195 0.72745 -0.42300
O 	O 	0.05090 0.78947 0.71397 -0.47300
O 	O 	0.98147 0.84021 0.78095 -0.45900
O 	O 	0.87258 0.66924 0.78392 -0.26300
O 	O 	0.39549 0.72765 0.33361 -0.46600
O 	O 	0.42940 0.80419 0.40092 -0.51800
O 	O 	0.45696 0.74543 0.08955 -0.43600
O 	O 	0.40741 0.84190 0.09155 -0.45300
O 	O 	0.42039 0.94776 0.18174 -0.44500
O 	O 	0.47807 0.95805 0.27255 -0.42500
O 	O 	0.55090 0.71053 0.28603 -0.47600
O 	O 	0.48147 0.65979 0.21905 -0.46700
O 	O 	0.37258 0.83076 0.21608 -0.26400
O 	O 	0.16639 0.60451 0.22765 -0.46600
O 	O 	0.09908 0.57060 0.30419 -0.51700
O 	O 	0.41045 0.54304 0.24543 -0.43500
O 	O 	0.40845 0.59259 0.34190 -0.45200
O 	O 	0.31826 0.57961 0.44776 -0.44400
O 	O 	0.22745 0.52193 0.45805 -0.42400
O 	O 	0.21397 0.44910 0.21053 -0.47600
O 	O 	0.28095 0.51853 0.15979 -0.46700
O 	O 	0.28392 0.62742 0.33076 -0.26400
O 	O 	0.83361 0.10451 0.27235 -0.46700
O 	O 	0.90092 0.07060 0.19581 -0.51900
O 	O 	0.58955 0.04304 0.25457 -0.43500
O 	O 	0.59155 0.09259 0.15810 -0.45200
O 	O 	0.68174 0.07961 0.05224 -0.44400
O 	O 	0.77255 0.02193 0.04195 -0.42400
O 	O 	0.78603 0.94910 0.28947 -0.47600
O 	O 	0.71905 0.01853 0.34021 -0.46700
O 	O 	0.71608 0.12742 0.16924 -0.26400
O 	O 	0.66639 0.89549 0.77235 -0.46600
O 	O 	0.59908 0.92940 0.69581 -0.51800
O 	O 	0.91045 0.95696 0.75457 -0.43300
O 	O 	0.90845 0.90741 0.65810 -0.45100
O 	O 	0.81826 0.92039 0.55224 -0.44400
O 	O 	0.72745 0.97807 0.54195 -0.42300
O 	O 	0.71397 0.05090 0.78947 -0.47300
O 	O 	0.78095 0.98147 0.84021 -0.45900
O 	O 	0.78392 0.87258 0.66924 -0.26300
O 	O 	0.33361 0.39549 0.72765 -0.46600
O 	O 	0.40092 0.42940 0.80419 -0.51800
O 	O 	0.08955 0.45696 0.74543 -0.43600
O 	O 	0.09155 0.40741 0.84190 -0.45300
O 	O 	0.18174 0.42039 0.94776 -0.44500
O 	O 	0.27255 0.47807 0.95805 -0.42500
O 	O 	0.28603 0.55090 0.71053 -0.47600
O 	O 	0.21905 0.48147 0.65979 -0.46700
O 	O 	0.21608 0.37258 0.83076 -0.26400
O 	O 	0.77235 0.83361 0.39549 -0.46600
O 	O 	0.69581 0.90092 0.42940 -0.51700
O 	O 	0.75457 0.58955 0.45696 -0.43500
O 	O 	0.65810 0.59155 0.40741 -0.45200
O 	O 	0.55224 0.68174 0.42039 -0.44400
O 	O 	0.54195 0.77255 0.47807 -0.42400
O 	O 	0.78947 0.78603 0.55090 -0.47600
O 	O 	0.84021 0.71905 0.48147 -0.46700
O 	O 	0.66924 0.71608 0.37258 -0.26400
O 	O 	0.72765 0.16639 0.89549 -0.46700
O 	O 	0.80419 0.09908 0.92940 -0.51900
O 	O 	0.74543 0.41045 0.95696 -0.43500
O 	O 	0.84190 0.40845 0.90741 -0.45200
O 	O 	0.94776 0.31826 0.92039 -0.44400
O 	O 	0.95805 0.22745 0.97807 -0.42400
O 	O 	0.71053 0.21397 0.05090 -0.47600
O 	O 	0.65979 0.28095 0.98147 -0.46700
O 	O 	0.83076 0.28392 0.87258 -0.26400
O 	O 	0.22765 0.33361 0.10451 -0.46600
O 	O 	0.30419 0.40092 0.07060 -0.51800
O 	O 	0.24543 0.08955 0.04304 -0.43300
O 	O 	0.34190 0.09155 0.09259 -0.45100
O 	O 	0.44776 0.18174 0.07961 -0.44400
O 	O 	0.45805 0.27255 0.02193 -0.42300
O 	O 	0.21053 0.28603 0.94910 -0.47300
O 	O 	0.15979 0.21905 0.01853 -0.45900
O 	O 	0.33076 0.21608 0.12742 -0.26300
O 	O 	0.27235 0.66639 0.60451 -0.46600
O 	O 	0.19581 0.59908 0.57060 -0.51800
O 	O 	0.25457 0.91045 0.54304 -0.43600
O 	O 	0.15810 0.90845 0.59259 -0.45300
O 	O 	0.05224 0.81826 0.57961 -0.44500
O 	O 	0.04195 0.72745 0.52193 -0.42500
O 	O 	0.28947 0.71397 0.44910 -0.47600
O 	O 	0.34021 0.78095 0.51853 -0.46700
O 	O 	0.16924 0.78392 0.62742 -0.26400
O 	O 	0.39549 0.77235 0.83361 -0.46600
O 	O 	0.42940 0.69581 0.90092 -0.51700
O 	O 	0.45696 0.75457 0.58955 -0.43500
O 	O 	0.40741 0.65810 0.59155 -0.45200
O 	O 	0.42039 0.55224 0.68174 -0.44400
O 	O 	0.47807 0.54195 0.77255 -0.42400
O 	O 	0.55090 0.78947 0.78603 -0.47600
O 	O 	0.48147 0.84021 0.71905 -0.46700
O 	O 	0.37258 0.66924 0.71608 -0.26400
O 	O 	0.89549 0.72765 0.16639 -0.46700
O 	O 	0.92940 0.80419 0.09908 -0.51900
O 	O 	0.95696 0.74543 0.41045 -0.43500
O 	O 	0.90741 0.84190 0.40845 -0.45200
O 	O 	0.92039 0.94776 0.31826 -0.44400
O 	O 	0.97807 0.95805 0.22745 -0.42400
O 	O 	0.05090 0.71053 0.21397 -0.47600
O 	O 	0.98147 0.65979 0.28095 -0.46700
O 	O 	0.87258 0.83076 0.28392 -0.26400
O 	O 	0.10451 0.22765 0.33361 -0.46600
O 	O 	0.07060 0.30419 0.40092 -0.51800
O 	O 	0.04304 0.24543 0.08955 -0.43300
O 	O 	0.09259 0.34190 0.09155 -0.45100
O 	O 	0.07961 0.44776 0.18174 -0.44400
O 	O 	0.02193 0.45805 0.27255 -0.42300
O 	O 	0.94910 0.21053 0.28603 -0.47300
O 	O 	0.01853 0.15979 0.21905 -0.45900
O 	O 	0.12742 0.33076 0.21608 -0.26300
O 	O 	0.60451 0.27235 0.66639 -0.46600
O 	O 	0.57060 0.19581 0.59908 -0.51800
O 	O 	0.54304 0.25457 0.91045 -0.43600
O 	O 	0.59259 0.15810 0.90845 -0.45300
O 	O 	0.57961 0.05224 0.81826 -0.44500
O 	O 	0.52193 0.04195 0.72745 -0.42500
O 	O 	0.44910 0.28947 0.71397 -0.47600
O 	O 	0.51853 0.34021 0.78095 -0.46700
O 	O 	0.62742 0.16924 0.78392 -0.26400
O 	O 	0.83361 0.39549 0.77235 -0.46600
O 	O 	0.90092 0.42940 0.69581 -0.51700
O 	O 	0.58955 0.45696 0.75457 -0.43500
O 	O 	0.59155 0.40741 0.65810 -0.45200
O 	O 	0.68174 0.42039 0.55224 -0.44400
O 	O 	0.77255 0.47807 0.54195 -0.42400
O 	O 	0.78603 0.55090 0.78947 -0.47600
O 	O 	0.71905 0.48147 0.84021 -0.46700
O 	O 	0.71608 0.37258 0.66924 -0.26400
O 	O 	0.16639 0.89549 0.72765 -0.46700
O 	O 	0.09908 0.92940 0.80419 -0.51900
O 	O 	0.41045 0.95696 0.74543 -0.43500
O 	O 	0.40845 0.90741 0.84190 -0.45200
O 	O 	0.31826 0.92039 0.94776 -0.44400
O 	O 	0.22745 0.97807 0.95805 -0.42400
O 	O 	0.21397 0.05090 0.71053 -0.47600
O 	O 	0.28095 0.98147 0.65979 -0.46700
O 	O 	0.28392 0.87258 0.83076 -0.26400
O 	O 	0.33361 0.10451 0.22765 -0.46600
O 	O 	0.40092 0.07060 0.30419 -0.51800
O 	O 	0.08955 0.04304 0.24543 -0.43300
O 	O 	0.09155 0.09259 0.34190 -0.45100
O 	O 	0.18174 0.07961 0.44776 -0.44400
O 	O 	0.27255 0.02193 0.45805 -0.42300
O 	O 	0.28603 0.94910 0.21053 -0.47300
O 	O 	0.21905 0.01853 0.15979 -0.45900
O 	O 	0.21608 0.12742 0.33076 -0.26300
O 	O 	0.66639 0.60451 0.27235 -0.46600
O 	O 	0.59908 0.57060 0.19581 -0.51800
O 	O 	0.91045 0.54304 0.25457 -0.43600
O 	O 	0.90845 0.59259 0.15810 -0.45300
O 	O 	0.81826 0.57961 0.05224 -0.44500
O 	O 	0.72745 0.52193 0.04195 -0.42500
O 	O 	0.71397 0.44910 0.28947 -0.47600
O 	O 	0.78095 0.51853 0.34021 -0.46700
O 	O 	0.78392 0.62742 0.16924 -0.26400
