data_crystal

_cell_length_a 7.01700
_cell_length_b 26.63700
_cell_length_c 18.06200
_cell_angle_alpha 90.00000
_cell_angle_beta  98.27000
_cell_angle_gamma 90.00000

_symmetry_space_group_name_	'P 1'
_symmetry_space_group_name_H-M	'P 1'

loop_
_symmetry_equiv_pos_as_xyz
  x,y,z

loop_
_atom_site_label
_atom_site_type_symbol
_atom_site_fract_x
_atom_site_fract_y
_atom_site_fract_z
_atom_site_charge
Sm	Sm	0.68337 0.42946 0.93295 1.83700
O 	O 	0.05890 0.00490 0.92070 -0.55600
Sm	Sm	0.76281 0.06791 0.04918 1.94500
O 	O 	0.57020 0.03770 0.94470 -0.53500
O 	O 	0.43660 0.97580 0.87170 -0.51100
O 	O 	0.69070 0.05150 0.55970 -0.51700
O 	O 	0.58400 0.97960 0.60270 -0.52200
O 	O 	0.95460 0.08120 0.94860 -0.48700
O 	O 	0.15000 0.96310 0.66910 -0.45900
O 	O 	0.18470 0.01930 0.58190 -0.40500
O 	O 	0.43740 0.11550 0.04510 -0.37500
O 	O 	0.70280 0.15710 0.01450 -0.42300
O 	O 	0.66800 0.34110 0.97410 -0.44200
O 	O 	0.39060 0.38100 0.95890 -0.40700
N 	N 	0.58900 0.29040 0.76950 -0.15900
N 	N 	0.02100 0.29520 0.69150 -0.15800
C 	C 	0.09600 0.27770 0.75740 0.09900
H 	H 	0.13380 0.30080 0.79520 -0.01100
C 	C 	0.12300 0.22700 0.77450 -0.16200
H 	H 	0.18210 0.21740 0.82180 0.09400
C 	C 	0.06110 0.19040 0.72040 0.10700
C 	C 	0.98600 0.20910 0.64910 -0.15200
H 	H 	0.95100 0.18700 0.60960 0.08500
C 	C 	0.96500 0.26130 0.63770 0.07700
H 	H 	0.90860 0.27280 0.59090 0.00700
C 	C 	0.07400 0.13580 0.73820 -0.06500
C 	C 	0.04700 0.11980 0.81030 0.04300
H 	H 	0.02500 0.14330 0.84620 0.02500
C 	C 	0.05330 0.06900 0.82760 -0.16300
C 	C 	0.08160 0.03300 0.77360 0.08400
H 	H 	0.08300 0.99900 0.78540 -0.01300
C 	C 	0.10830 0.04900 0.70070 -0.11700
C 	C 	0.10210 0.09980 0.68360 0.02700
H 	H 	0.11660 0.11020 0.63560 0.02400
C 	C 	0.14650 0.00830 0.64730 0.32300
C 	C 	0.02110 0.05000 0.90520 0.47100
C 	C 	0.65200 0.26050 0.82890 0.09000
H 	H 	0.69970 0.27570 0.87400 -0.00400
C 	C 	0.64700 0.20840 0.82570 -0.17500
H 	H 	0.68690 0.18970 0.86870 0.09900
C 	C 	0.58440 0.18430 0.75860 0.12700
C 	C 	0.52300 0.21530 0.69710 -0.17000
H 	H 	0.47970 0.20100 0.65090 0.09700
C 	C 	0.52700 0.26730 0.70440 0.09600
H 	H 	0.48530 0.28680 0.66250 -0.00200
C 	C 	0.58280 0.12850 0.75320 -0.10000
C 	C 	0.55660 0.10030 0.81560 0.08300
H 	H 	0.54260 0.11660 0.86010 0.00200
C 	C 	0.55080 0.04740 0.81280 -0.20300
C 	C 	0.57180 0.02350 0.74500 0.13600
H 	H 	0.56330 0.98870 0.74160 -0.03200
C 	C 	0.60520 0.05140 0.68290 -0.20200
C 	C 	0.60680 0.10400 0.68600 0.07800
H 	H 	0.62370 0.12270 0.64390 0.00900
C 	C 	0.51970 0.01750 0.88090 0.48600
C 	C 	0.62840 0.02610 0.61010 0.48500
C 	C 	0.52300 0.15500 0.01950 0.25100
C 	C 	0.40260 0.20170 0.00100 -0.07400
C 	C 	0.20080 0.19850 0.98750 0.00800
H 	H 	0.13950 0.16770 0.99060 0.03300
C 	C 	0.09390 0.24200 0.96960 -0.09100
H 	H 	0.96030 0.23980 0.96020 0.06400
C 	C 	0.18110 0.28880 0.96520 0.02000
H 	H 	0.10710 0.31740 0.95340 0.01200
C 	C 	0.38330 0.29170 0.97910 -0.09600
C 	C 	0.48740 0.34090 0.97070 0.30900
C 	C 	0.49080 0.24840 0.99520 0.01500
H 	H 	0.62450 0.25040 0.00240 0.04200
Sm	Sm	0.31663 0.92946 0.56705 1.83400
O 	O 	0.94110 0.50490 0.57930 -0.55900
Sm	Sm	0.23719 0.56791 0.45082 1.95100
O 	O 	0.42980 0.53770 0.55530 -0.53600
O 	O 	0.56340 0.47580 0.62830 -0.51000
O 	O 	0.30930 0.55150 0.94030 -0.51700
O 	O 	0.41600 0.47960 0.89730 -0.52200
O 	O 	0.04540 0.58120 0.55140 -0.48900
O 	O 	0.85000 0.46310 0.83090 -0.45800
O 	O 	0.81530 0.51930 0.91810 -0.40400
O 	O 	0.56260 0.61550 0.45490 -0.37500
O 	O 	0.29720 0.65710 0.48550 -0.42200
O 	O 	0.33200 0.84110 0.52590 -0.44200
O 	O 	0.60940 0.88100 0.54110 -0.40600
N 	N 	0.41100 0.79040 0.73050 -0.15900
N 	N 	0.97900 0.79520 0.80850 -0.15700
C 	C 	0.90400 0.77770 0.74260 0.09900
H 	H 	0.86620 0.80080 0.70480 -0.01000
C 	C 	0.87700 0.72700 0.72550 -0.16200
H 	H 	0.81790 0.71740 0.67820 0.09400
C 	C 	0.93890 0.69040 0.77960 0.10700
C 	C 	0.01400 0.70910 0.85090 -0.15300
H 	H 	0.04900 0.68700 0.89040 0.08500
C 	C 	0.03500 0.76130 0.86230 0.07600
H 	H 	0.09140 0.77280 0.90910 0.00700
C 	C 	0.92600 0.63580 0.76180 -0.06400
C 	C 	0.95300 0.61980 0.68970 0.04200
H 	H 	0.97500 0.64330 0.65380 0.02500
C 	C 	0.94670 0.56900 0.67240 -0.16100
C 	C 	0.91840 0.53300 0.72640 0.07900
H 	H 	0.91700 0.49900 0.71460 -0.01000
C 	C 	0.89170 0.54900 0.79930 -0.11400
C 	C 	0.89790 0.59980 0.81640 0.02600
H 	H 	0.88340 0.61020 0.86440 0.02500
C 	C 	0.85350 0.50830 0.85270 0.32100
C 	C 	0.97890 0.55000 0.59480 0.47200
C 	C 	0.34800 0.76050 0.67110 0.09000
H 	H 	0.30030 0.77570 0.62600 -0.00400
C 	C 	0.35300 0.70840 0.67430 -0.17500
H 	H 	0.31310 0.68970 0.63130 0.09900
C 	C 	0.41560 0.68430 0.74140 0.12700
C 	C 	0.47700 0.71530 0.80290 -0.17000
H 	H 	0.52030 0.70100 0.84910 0.09600
C 	C 	0.47300 0.76730 0.79560 0.09600
H 	H 	0.51470 0.78680 0.83750 -0.00200
C 	C 	0.41720 0.62850 0.74680 -0.10000
C 	C 	0.44340 0.60030 0.68440 0.08200
H 	H 	0.45740 0.61660 0.63990 0.00200
C 	C 	0.44920 0.54740 0.68720 -0.20200
C 	C 	0.42820 0.52350 0.75500 0.13300
H 	H 	0.43670 0.48870 0.75840 -0.03000
C 	C 	0.39480 0.55140 0.81710 -0.20000
C 	C 	0.39320 0.60400 0.81400 0.07700
H 	H 	0.37630 0.62270 0.85610 0.00900
C 	C 	0.48030 0.51750 0.61910 0.48400
C 	C 	0.37160 0.52610 0.88990 0.48500
C 	C 	0.47700 0.65500 0.48050 0.24900
C 	C 	0.59740 0.70170 0.49900 -0.06800
C 	C 	0.79920 0.69850 0.51250 0.00100
H 	H 	0.86050 0.66770 0.50940 0.03500
C 	C 	0.90610 0.74200 0.53040 -0.08400
H 	H 	0.03970 0.73980 0.53980 0.06000
C 	C 	0.81890 0.78880 0.53480 0.01500
H 	H 	0.89290 0.81740 0.54660 0.01400
C 	C 	0.61670 0.79170 0.52090 -0.09200
C 	C 	0.51260 0.84090 0.52930 0.30700
C 	C 	0.50920 0.74840 0.50480 0.00700
H 	H 	0.37550 0.75040 0.49760 0.04500
Sm	Sm	0.31663 0.57054 0.06705 1.83600
O 	O 	0.94110 0.99510 0.07930 -0.55700
Sm	Sm	0.23719 0.93209 0.95082 1.94500
O 	O 	0.42980 0.96230 0.05530 -0.53500
O 	O 	0.56340 0.02420 0.12830 -0.51100
O 	O 	0.30930 0.94850 0.44030 -0.51700
O 	O 	0.41600 0.02040 0.39730 -0.52200
O 	O 	0.04540 0.91880 0.05140 -0.48700
O 	O 	0.85000 0.03690 0.33090 -0.45900
O 	O 	0.81530 0.98070 0.41810 -0.40500
O 	O 	0.56260 0.88450 0.95490 -0.37500
O 	O 	0.29720 0.84290 0.98550 -0.42300
O 	O 	0.33200 0.65890 0.02590 -0.44200
O 	O 	0.60940 0.61900 0.04110 -0.40700
N 	N 	0.41100 0.70960 0.23050 -0.15900
N 	N 	0.97900 0.70480 0.30850 -0.15800
C 	C 	0.90400 0.72230 0.24260 0.09900
H 	H 	0.86620 0.69920 0.20480 -0.01100
C 	C 	0.87700 0.77300 0.22550 -0.16200
H 	H 	0.81790 0.78260 0.17820 0.09400
C 	C 	0.93890 0.80960 0.27960 0.10700
C 	C 	0.01400 0.79090 0.35090 -0.15200
H 	H 	0.04900 0.81300 0.39040 0.08500
C 	C 	0.03500 0.73870 0.36230 0.07700
H 	H 	0.09140 0.72720 0.40910 0.00700
C 	C 	0.92600 0.86420 0.26180 -0.06500
C 	C 	0.95300 0.88020 0.18970 0.04300
H 	H 	0.97500 0.85670 0.15380 0.02500
C 	C 	0.94670 0.93100 0.17240 -0.16300
C 	C 	0.91840 0.96700 0.22640 0.08400
H 	H 	0.91700 0.00100 0.21460 -0.01300
C 	C 	0.89170 0.95100 0.29930 -0.11700
C 	C 	0.89790 0.90020 0.31640 0.02700
H 	H 	0.88340 0.88980 0.36440 0.02400
C 	C 	0.85350 0.99170 0.35270 0.32300
C 	C 	0.97890 0.95000 0.09480 0.47100
C 	C 	0.34800 0.73950 0.17110 0.09000
H 	H 	0.30030 0.72430 0.12600 -0.00400
C 	C 	0.35300 0.79160 0.17430 -0.17500
H 	H 	0.31310 0.81030 0.13130 0.09900
C 	C 	0.41560 0.81570 0.24140 0.12700
C 	C 	0.47700 0.78470 0.30290 -0.17000
H 	H 	0.52030 0.79900 0.34910 0.09700
C 	C 	0.47300 0.73270 0.29560 0.09600
H 	H 	0.51470 0.71320 0.33750 -0.00200
C 	C 	0.41720 0.87150 0.24680 -0.10000
C 	C 	0.44340 0.89970 0.18440 0.08300
H 	H 	0.45740 0.88340 0.13990 0.00200
C 	C 	0.44920 0.95260 0.18720 -0.20300
C 	C 	0.42820 0.97650 0.25500 0.13600
H 	H 	0.43670 0.01130 0.25840 -0.03200
C 	C 	0.39480 0.94860 0.31710 -0.20200
C 	C 	0.39320 0.89600 0.31400 0.07800
H 	H 	0.37630 0.87730 0.35610 0.00900
C 	C 	0.48030 0.98250 0.11910 0.48600
C 	C 	0.37160 0.97390 0.38990 0.48500
C 	C 	0.47700 0.84500 0.98050 0.25100
C 	C 	0.59740 0.79830 0.99900 -0.07400
C 	C 	0.79920 0.80150 0.01250 0.00800
H 	H 	0.86050 0.83230 0.00940 0.03300
C 	C 	0.90610 0.75800 0.03040 -0.09100
H 	H 	0.03970 0.76020 0.03980 0.06400
C 	C 	0.81890 0.71120 0.03480 0.02000
H 	H 	0.89290 0.68260 0.04660 0.01200
C 	C 	0.61670 0.70830 0.02090 -0.09600
C 	C 	0.51260 0.65910 0.02930 0.30900
C 	C 	0.50920 0.75160 0.00480 0.01500
H 	H 	0.37550 0.74960 0.99760 0.04200
Sm	Sm	0.68337 0.07054 0.43295 1.83400
O 	O 	0.05890 0.49510 0.42070 -0.55900
Sm	Sm	0.76281 0.43209 0.54918 1.95100
O 	O 	0.57020 0.46230 0.44470 -0.53600
O 	O 	0.43660 0.52420 0.37170 -0.51000
O 	O 	0.69070 0.44850 0.05970 -0.51700
O 	O 	0.58400 0.52040 0.10270 -0.52200
O 	O 	0.95460 0.41880 0.44860 -0.48900
O 	O 	0.15000 0.53690 0.16910 -0.45800
O 	O 	0.18470 0.48070 0.08190 -0.40400
O 	O 	0.43740 0.38450 0.54510 -0.37500
O 	O 	0.70280 0.34290 0.51450 -0.42200
O 	O 	0.66800 0.15890 0.47410 -0.44200
O 	O 	0.39060 0.11900 0.45890 -0.40600
N 	N 	0.58900 0.20960 0.26950 -0.15900
N 	N 	0.02100 0.20480 0.19150 -0.15700
C 	C 	0.09600 0.22230 0.25740 0.09900
H 	H 	0.13380 0.19920 0.29520 -0.01000
C 	C 	0.12300 0.27300 0.27450 -0.16200
H 	H 	0.18210 0.28260 0.32180 0.09400
C 	C 	0.06110 0.30960 0.22040 0.10700
C 	C 	0.98600 0.29090 0.14910 -0.15300
H 	H 	0.95100 0.31300 0.10960 0.08500
C 	C 	0.96500 0.23870 0.13770 0.07600
H 	H 	0.90860 0.22720 0.09090 0.00700
C 	C 	0.07400 0.36420 0.23820 -0.06400
C 	C 	0.04700 0.38020 0.31030 0.04200
H 	H 	0.02500 0.35670 0.34620 0.02500
C 	C 	0.05330 0.43100 0.32760 -0.16100
C 	C 	0.08160 0.46700 0.27360 0.07900
H 	H 	0.08300 0.50100 0.28540 -0.01000
C 	C 	0.10830 0.45100 0.20070 -0.11400
C 	C 	0.10210 0.40020 0.18360 0.02600
H 	H 	0.11660 0.38980 0.13560 0.02500
C 	C 	0.14650 0.49170 0.14730 0.32100
C 	C 	0.02110 0.45000 0.40520 0.47200
C 	C 	0.65200 0.23950 0.32890 0.09000
H 	H 	0.69970 0.22430 0.37400 -0.00400
C 	C 	0.64700 0.29160 0.32570 -0.17500
H 	H 	0.68690 0.31030 0.36870 0.09900
C 	C 	0.58440 0.31570 0.25860 0.12700
C 	C 	0.52300 0.28470 0.19710 -0.17000
H 	H 	0.47970 0.29900 0.15090 0.09600
C 	C 	0.52700 0.23270 0.20440 0.09600
H 	H 	0.48530 0.21320 0.16250 -0.00200
C 	C 	0.58280 0.37150 0.25320 -0.10000
C 	C 	0.55660 0.39970 0.31560 0.08200
H 	H 	0.54260 0.38340 0.36010 0.00200
C 	C 	0.55080 0.45260 0.31280 -0.20200
C 	C 	0.57180 0.47650 0.24500 0.13300
H 	H 	0.56330 0.51130 0.24160 -0.03000
C 	C 	0.60520 0.44860 0.18290 -0.20000
C 	C 	0.60680 0.39600 0.18600 0.07700
H 	H 	0.62370 0.37730 0.14390 0.00900
C 	C 	0.51970 0.48250 0.38090 0.48400
C 	C 	0.62840 0.47390 0.11010 0.48500
C 	C 	0.52300 0.34500 0.51950 0.24900
C 	C 	0.40260 0.29830 0.50100 -0.06800
C 	C 	0.20080 0.30150 0.48750 0.00100
H 	H 	0.13950 0.33230 0.49060 0.03500
C 	C 	0.09390 0.25800 0.46960 -0.08400
H 	H 	0.96030 0.26020 0.46020 0.06000
C 	C 	0.18110 0.21120 0.46520 0.01500
H 	H 	0.10710 0.18260 0.45340 0.01400
C 	C 	0.38330 0.20830 0.47910 -0.09200
C 	C 	0.48740 0.15910 0.47070 0.30700
C 	C 	0.49080 0.25160 0.49520 0.00700
H 	H 	0.62450 0.24960 0.50240 0.04500
