data_crystal

_cell_length_a 6.96500
_cell_length_b 26.43300
_cell_length_c 17.87900
_cell_angle_alpha 90.00000
_cell_angle_beta  97.90000
_cell_angle_gamma 90.00000

_symmetry_space_group_name_	'P 1'
_symmetry_space_group_name_H-M	'P 1'

loop_
_symmetry_equiv_pos_as_xyz
  x,y,z

loop_
_atom_site_label
_atom_site_type_symbol
_atom_site_fract_x
_atom_site_fract_y
_atom_site_fract_z
_atom_site_charge
O 	O 	0.57990 0.98011 0.10114 -0.51800
Tb	Tb	0.68186 0.07002 0.93359 1.71400
Tb	Tb	0.23679 0.93173 0.45074 1.82800
O 	O 	0.81640 0.98167 0.91948 -0.39400
O 	O 	0.70690 0.34360 0.01452 -0.42900
O 	O 	0.69210 0.05160 0.05906 -0.51100
C 	C 	0.60680 0.10432 0.18640 0.08700
H 	H 	0.62700 0.12310 0.14420 0.00600
C 	C 	0.94890 0.93236 0.67130 -0.18000
C 	C 	0.89700 0.90067 0.81680 0.03400
H 	H 	0.87880 0.89020 0.86500 0.02500
C 	C 	0.51870 0.01812 0.38270 0.49600
C 	C 	0.57270 0.02311 0.24560 0.14200
H 	H 	0.56630 0.98800 0.24270 -0.02800
O 	O 	0.39170 0.11827 0.95980 -0.39400
C 	C 	0.58100 0.12921 0.25350 -0.11200
O 	O 	0.84670 0.03839 0.83212 -0.44700
O 	O 	0.45000 0.38381 0.04200 -0.39700
C 	C 	0.60230 0.05142 0.18220 -0.20900
C 	C 	0.89460 0.95229 0.79940 -0.12400
C 	C 	0.85280 0.99258 0.85390 0.33000
O 	O 	0.04360 0.92006 0.54993 -0.48200
C 	C 	0.91910 0.96755 0.72640 0.09800
H 	H 	0.91540 0.00180 0.71440 -0.01100
C 	C 	0.48840 0.15826 0.97140 0.31600
O 	O 	0.43390 0.97607 0.37413 -0.49700
O 	O 	0.93900 0.99638 0.57851 -0.54300
C 	C 	0.49630 0.25140 0.99590 0.03500
H 	H 	0.63090 0.24950 0.00400 0.03500
C 	C 	0.92630 0.86474 0.76240 -0.07400
C 	C 	0.01340 0.79090 0.85060 -0.16900
H 	H 	0.05180 0.81310 0.89020 0.09300
C 	C 	0.18610 0.21111 0.96600 0.03600
H 	H 	0.11130 0.18220 0.95480 0.01300
C 	C 	0.97800 0.95110 0.59370 0.49200
O 	O 	0.57460 0.03769 0.44595 -0.51900
C 	C 	0.38890 0.20746 0.97900 -0.11300
C 	C 	0.09690 0.25805 0.96980 -0.11000
H 	H 	0.96250 0.26040 0.96070 0.07200
C 	C 	0.93610 0.80966 0.77960 0.11700
N 	N 	0.59250 0.29116 0.26960 -0.16100
C 	C 	0.65470 0.26176 0.32830 0.10500
H 	H 	0.70280 0.27730 0.37370 -0.00500
C 	C 	0.52970 0.26800 0.20450 0.10600
H 	H 	0.48770 0.28780 0.16250 -0.00300
C 	C 	0.62590 0.02607 0.10870 0.50700
C 	C 	0.52710 0.34467 0.02030 0.31600
C 	C 	0.40660 0.29812 0.00090 -0.10600
C 	C 	0.95160 0.88133 0.68920 0.05600
H 	H 	0.97040 0.85760 0.65250 0.02100
C 	C 	0.65230 0.20955 0.32590 -0.18900
H 	H 	0.69430 0.19090 0.36910 0.10600
C 	C 	0.58630 0.18503 0.25820 0.14000
C 	C 	0.52410 0.21573 0.19650 -0.18200
H 	H 	0.47890 0.20130 0.15000 0.10100
C 	C 	0.55700 0.09970 0.31690 0.09700
H 	H 	0.54390 0.11570 0.36220 -0.00100
C 	C 	0.87730 0.77290 0.72470 -0.16500
H 	H 	0.82260 0.78270 0.67650 0.09500
N 	N 	0.97850 0.70442 0.80990 -0.15600
C 	C 	0.03260 0.73920 0.86180 0.09200
H 	H 	0.08750 0.72810 0.90930 0.00500
C 	C 	0.90080 0.72160 0.74230 0.09600
H 	H 	0.85980 0.69810 0.70480 -0.00500
C 	C 	0.55260 0.04786 0.31360 -0.21200
C 	C 	0.20640 0.30139 0.98720 0.03100
H 	H 	0.14560 0.33250 0.98950 0.02800
O 	O 	0.67210 0.15759 0.97298 -0.43000
O 	O 	0.42010 0.48011 0.39886 -0.51600
Tb	Tb	0.31814 0.57002 0.56641 1.71500
Tb	Tb	0.76321 0.43173 0.04926 1.82800
O 	O 	0.18360 0.48167 0.58052 -0.39400
O 	O 	0.29310 0.84360 0.48548 -0.42800
O 	O 	0.30790 0.55160 0.44094 -0.51000
C 	C 	0.39320 0.60432 0.31360 0.08800
H 	H 	0.37300 0.62310 0.35580 0.00700
C 	C 	0.05110 0.43236 0.82870 -0.17900
C 	C 	0.10300 0.40067 0.68320 0.03300
H 	H 	0.12120 0.39020 0.63500 0.02500
C 	C 	0.48130 0.51812 0.11730 0.49600
C 	C 	0.42730 0.52311 0.25440 0.14100
H 	H 	0.43370 0.48800 0.25730 -0.02700
O 	O 	0.60830 0.61827 0.54020 -0.39400
C 	C 	0.41900 0.62921 0.24650 -0.11100
O 	O 	0.15330 0.53839 0.66788 -0.44700
O 	O 	0.55000 0.88381 0.45800 -0.39700
C 	C 	0.39770 0.55142 0.31780 -0.20900
C 	C 	0.10540 0.45229 0.70060 -0.12300
C 	C 	0.14720 0.49258 0.64610 0.32900
O 	O 	0.95640 0.42006 0.95007 -0.48000
C 	C 	0.08090 0.46755 0.77360 0.09500
H 	H 	0.08460 0.50180 0.78560 -0.01000
C 	C 	0.51160 0.65826 0.52860 0.31500
O 	O 	0.56610 0.47607 0.12587 -0.49600
O 	O 	0.06100 0.49638 0.92149 -0.54300
C 	C 	0.50370 0.75140 0.50410 0.03500
H 	H 	0.36910 0.74950 0.49600 0.03500
C 	C 	0.07370 0.36474 0.73760 -0.07300
C 	C 	0.98660 0.29090 0.64940 -0.16700
H 	H 	0.94820 0.31310 0.60980 0.09300
C 	C 	0.81390 0.71111 0.53400 0.03500
H 	H 	0.88870 0.68220 0.54520 0.01300
C 	C 	0.02200 0.45110 0.90630 0.48900
O 	O 	0.42540 0.53769 0.05405 -0.51900
C 	C 	0.61110 0.70746 0.52100 -0.11200
C 	C 	0.90310 0.75805 0.53020 -0.10700
H 	H 	0.03750 0.76040 0.53930 0.07000
C 	C 	0.06390 0.30966 0.72040 0.11500
N 	N 	0.40750 0.79116 0.23040 -0.16100
C 	C 	0.34530 0.76176 0.17170 0.10500
H 	H 	0.29720 0.77730 0.12630 -0.00500
C 	C 	0.47030 0.76800 0.29550 0.10600
H 	H 	0.51230 0.78780 0.33750 -0.00300
C 	C 	0.37410 0.52607 0.39130 0.50600
C 	C 	0.47290 0.84467 0.47970 0.31700
C 	C 	0.59340 0.79812 0.49910 -0.10700
C 	C 	0.04840 0.38133 0.81080 0.05500
H 	H 	0.02960 0.35760 0.84750 0.02100
C 	C 	0.34770 0.70955 0.17410 -0.18900
H 	H 	0.30570 0.69090 0.13090 0.10600
C 	C 	0.41370 0.68503 0.24180 0.14000
C 	C 	0.47590 0.71573 0.30350 -0.18200
H 	H 	0.52110 0.70130 0.35000 0.10100
C 	C 	0.44300 0.59970 0.18310 0.09700
H 	H 	0.45610 0.61570 0.13780 -0.00100
C 	C 	0.12270 0.27290 0.77530 -0.16400
H 	H 	0.17740 0.28270 0.82350 0.09500
N 	N 	0.02150 0.20442 0.69010 -0.15600
C 	C 	0.96740 0.23920 0.63820 0.09200
H 	H 	0.91250 0.22810 0.59070 0.00500
C 	C 	0.09920 0.22160 0.75770 0.09600
H 	H 	0.14020 0.19810 0.79520 -0.00500
C 	C 	0.44740 0.54786 0.18640 -0.21200
C 	C 	0.79360 0.80139 0.51280 0.03000
H 	H 	0.85440 0.83250 0.51050 0.02900
O 	O 	0.32790 0.65759 0.52702 -0.43000
O 	O 	0.42010 0.01989 0.89886 -0.51700
Tb	Tb	0.31814 0.92998 0.06641 1.71500
Tb	Tb	0.76321 0.06827 0.54926 1.82900
O 	O 	0.18360 0.01833 0.08052 -0.39300
O 	O 	0.29310 0.65640 0.98548 -0.42800
O 	O 	0.30790 0.94840 0.94094 -0.51000
C 	C 	0.39320 0.89568 0.81360 0.08800
H 	H 	0.37300 0.87690 0.85580 0.00700
C 	C 	0.05110 0.06764 0.32870 -0.18000
C 	C 	0.10300 0.09933 0.18320 0.03400
H 	H 	0.12120 0.10980 0.13500 0.02500
C 	C 	0.48130 0.98188 0.61730 0.49600
C 	C 	0.42730 0.97689 0.75440 0.14200
H 	H 	0.43370 0.01200 0.75730 -0.02800
O 	O 	0.60830 0.88173 0.04020 -0.39400
C 	C 	0.41900 0.87079 0.74650 -0.11200
O 	O 	0.15330 0.96161 0.16788 -0.44700
O 	O 	0.55000 0.61619 0.95800 -0.39700
C 	C 	0.39770 0.94858 0.81780 -0.20900
C 	C 	0.10540 0.04771 0.20060 -0.12400
C 	C 	0.14720 0.00742 0.14610 0.33000
O 	O 	0.95640 0.07994 0.45007 -0.48200
C 	C 	0.08090 0.03245 0.27360 0.09800
H 	H 	0.08460 0.99820 0.28560 -0.01100
C 	C 	0.51160 0.84174 0.02860 0.31600
O 	O 	0.56610 0.02393 0.62587 -0.49700
O 	O 	0.06100 0.00362 0.42149 -0.54300
C 	C 	0.50370 0.74860 0.00410 0.03500
H 	H 	0.36910 0.75050 0.99600 0.03500
C 	C 	0.07370 0.13526 0.23760 -0.07400
C 	C 	0.98660 0.20910 0.14940 -0.16900
H 	H 	0.94820 0.18690 0.10980 0.09300
C 	C 	0.81390 0.78889 0.03400 0.03600
H 	H 	0.88870 0.81780 0.04520 0.01300
C 	C 	0.02200 0.04890 0.40630 0.49200
O 	O 	0.42540 0.96231 0.55405 -0.51900
C 	C 	0.61110 0.79254 0.02100 -0.11300
C 	C 	0.90310 0.74195 0.03020 -0.11000
H 	H 	0.03750 0.73960 0.03930 0.07200
C 	C 	0.06390 0.19034 0.22040 0.11700
N 	N 	0.40750 0.70884 0.73040 -0.16100
C 	C 	0.34530 0.73824 0.67170 0.10500
H 	H 	0.29720 0.72270 0.62630 -0.00500
C 	C 	0.47030 0.73200 0.79550 0.10600
H 	H 	0.51230 0.71220 0.83750 -0.00300
C 	C 	0.37410 0.97393 0.89130 0.50700
C 	C 	0.47290 0.65533 0.97970 0.31600
C 	C 	0.59340 0.70188 0.99910 -0.10600
C 	C 	0.04840 0.11867 0.31080 0.05600
H 	H 	0.02960 0.14240 0.34750 0.02100
C 	C 	0.34770 0.79045 0.67410 -0.18900
H 	H 	0.30570 0.80910 0.63090 0.10600
C 	C 	0.41370 0.81497 0.74180 0.14000
C 	C 	0.47590 0.78427 0.80350 -0.18200
H 	H 	0.52110 0.79870 0.85000 0.10100
C 	C 	0.44300 0.90030 0.68310 0.09700
H 	H 	0.45610 0.88430 0.63780 -0.00100
C 	C 	0.12270 0.22710 0.27530 -0.16500
H 	H 	0.17740 0.21730 0.32350 0.09500
N 	N 	0.02150 0.29558 0.19010 -0.15600
C 	C 	0.96740 0.26080 0.13820 0.09200
H 	H 	0.91250 0.27190 0.09070 0.00500
C 	C 	0.09920 0.27840 0.25770 0.09600
H 	H 	0.14020 0.30190 0.29520 -0.00500
C 	C 	0.44740 0.95214 0.68640 -0.21200
C 	C 	0.79360 0.69861 0.01280 0.03100
H 	H 	0.85440 0.66750 0.01050 0.02800
O 	O 	0.32790 0.84241 0.02702 -0.43000
O 	O 	0.57990 0.51989 0.60114 -0.51600
Tb	Tb	0.68186 0.42998 0.43359 1.71500
Tb	Tb	0.23679 0.56827 0.95074 1.82800
O 	O 	0.81640 0.51833 0.41948 -0.39400
O 	O 	0.70690 0.15640 0.51452 -0.42800
O 	O 	0.69210 0.44840 0.55906 -0.51000
C 	C 	0.60680 0.39568 0.68640 0.08800
H 	H 	0.62700 0.37690 0.64420 0.00700
C 	C 	0.94890 0.56764 0.17130 -0.17900
C 	C 	0.89700 0.59933 0.31680 0.03300
H 	H 	0.87880 0.60980 0.36500 0.02500
C 	C 	0.51870 0.48188 0.88270 0.49600
C 	C 	0.57270 0.47689 0.74560 0.14100
H 	H 	0.56630 0.51200 0.74270 -0.02700
O 	O 	0.39170 0.38173 0.45980 -0.39400
C 	C 	0.58100 0.37079 0.75350 -0.11100
O 	O 	0.84670 0.46161 0.33212 -0.44700
O 	O 	0.45000 0.11619 0.54200 -0.39700
C 	C 	0.60230 0.44858 0.68220 -0.20900
C 	C 	0.89460 0.54771 0.29940 -0.12300
C 	C 	0.85280 0.50742 0.35390 0.32900
O 	O 	0.04360 0.57994 0.04993 -0.48000
C 	C 	0.91910 0.53245 0.22640 0.09500
H 	H 	0.91540 0.49820 0.21440 -0.01000
C 	C 	0.48840 0.34174 0.47140 0.31500
O 	O 	0.43390 0.52393 0.87413 -0.49600
O 	O 	0.93900 0.50362 0.07851 -0.54300
C 	C 	0.49630 0.24860 0.49590 0.03500
H 	H 	0.63090 0.25050 0.50400 0.03500
C 	C 	0.92630 0.63526 0.26240 -0.07300
C 	C 	0.01340 0.70910 0.35060 -0.16700
H 	H 	0.05180 0.68690 0.39020 0.09300
C 	C 	0.18610 0.28889 0.46600 0.03500
H 	H 	0.11130 0.31780 0.45480 0.01300
C 	C 	0.97800 0.54890 0.09370 0.48900
O 	O 	0.57460 0.46231 0.94595 -0.51900
C 	C 	0.38890 0.29254 0.47900 -0.11200
C 	C 	0.09690 0.24195 0.46980 -0.10700
H 	H 	0.96250 0.23960 0.46070 0.07000
C 	C 	0.93610 0.69034 0.27960 0.11500
N 	N 	0.59250 0.20884 0.76960 -0.16100
C 	C 	0.65470 0.23824 0.82830 0.10500
H 	H 	0.70280 0.22270 0.87370 -0.00500
C 	C 	0.52970 0.23200 0.70450 0.10600
H 	H 	0.48770 0.21220 0.66250 -0.00300
C 	C 	0.62590 0.47393 0.60870 0.50600
C 	C 	0.52710 0.15533 0.52030 0.31700
C 	C 	0.40660 0.20188 0.50090 -0.10700
C 	C 	0.95160 0.61867 0.18920 0.05500
H 	H 	0.97040 0.64240 0.15250 0.02100
C 	C 	0.65230 0.29045 0.82590 -0.18900
H 	H 	0.69430 0.30910 0.86910 0.10600
C 	C 	0.58630 0.31497 0.75820 0.14000
C 	C 	0.52410 0.28427 0.69650 -0.18200
H 	H 	0.47890 0.29870 0.65000 0.10100
C 	C 	0.55700 0.40030 0.81690 0.09700
H 	H 	0.54390 0.38430 0.86220 -0.00100
C 	C 	0.87730 0.72710 0.22470 -0.16400
H 	H 	0.82260 0.71730 0.17650 0.09500
N 	N 	0.97850 0.79558 0.30990 -0.15600
C 	C 	0.03260 0.76080 0.36180 0.09200
H 	H 	0.08750 0.77190 0.40930 0.00500
C 	C 	0.90080 0.77840 0.24230 0.09600
H 	H 	0.85980 0.80190 0.20480 -0.00500
C 	C 	0.55260 0.45214 0.81360 -0.21200
C 	C 	0.20640 0.19861 0.48720 0.03000
H 	H 	0.14560 0.16750 0.48950 0.02900
O 	O 	0.67210 0.34241 0.47298 -0.43000
