data_crystal

_cell_length_a 6.87000
_cell_length_b 13.86000
_cell_length_c 17.71000
_cell_angle_alpha 88.64000
_cell_angle_beta  79.67000
_cell_angle_gamma 84.36000

_symmetry_space_group_name_	'P 1'
_symmetry_space_group_name_H-M	'P 1'

loop_
_symmetry_equiv_pos_as_xyz
  x,y,z

loop_
_atom_site_label
_atom_site_type_symbol
_atom_site_fract_x
_atom_site_fract_y
_atom_site_fract_z
_atom_site_charge
Sm	Sm	0.70389 0.63421 0.45206 1.95100
Sm	Sm	0.33133 0.36795 0.94717 1.90900
O 	O 	0.06030 0.25890 0.96270 -0.42000
O 	O 	0.35300 0.18840 0.97050 -0.43100
O 	O 	0.97030 0.74040 0.46850 -0.41300
O 	O 	0.66320 0.80830 0.49230 -0.43700
O 	O 	0.42030 0.61520 0.55020 -0.53500
O 	O 	0.39010 0.48670 0.62520 -0.54700
O 	O 	0.45600 0.51470 0.90340 -0.59000
O 	O 	0.48990 0.65830 0.94680 -0.51800
O 	O 	0.87200 0.55100 0.95400 0.20500
O 	O 	0.07350 0.44460 0.88110 -0.50500
O 	O 	0.98530 0.44750 0.60330 -0.53000
O 	O 	0.81580 0.57790 0.56210 -0.53400
N 	N 	0.32600 0.10760 0.71570 -0.16500
N 	N 	0.80000 0.04750 0.75870 -0.15200
C 	C 	0.40500 0.57580 0.61520 0.49400
C 	C 	0.45700 0.60360 0.89600 0.51800
C 	C 	0.38800 0.73820 0.67900 0.07800
H 	H 	0.38230 0.76740 0.63150 0.00400
C 	C 	0.08400 0.08850 0.98730 -0.06700
C 	C 	0.87000 0.08460 0.50340 -0.02800
H 	H 	0.78390 0.14090 0.50510 0.04000
C 	C 	0.88400 0.73600 0.75590 -0.10100
C 	C 	0.38000 0.79610 0.74240 -0.10000
C 	C 	0.80200 0.99440 0.49820 -0.03000
H 	H 	0.66800 0.99080 0.49760 0.04800
C 	C 	0.91000 0.68180 0.82010 0.08000
H 	H 	0.90820 0.71340 0.86600 0.01300
C 	C 	0.96900 0.52340 0.88840 0.44800
C 	C 	0.42100 0.64810 0.81930 -0.20000
C 	C 	0.85900 0.84300 0.75850 0.13200
C 	C 	0.92600 0.91100 0.49400 -0.06300
C 	C 	0.39800 0.75130 0.81360 0.07000
H 	H 	0.39510 0.78890 0.85670 0.01700
C 	C 	0.91000 0.58520 0.68490 -0.19900
C 	C 	0.44100 0.94790 0.66530 -0.17900
H 	H 	0.50530 0.91040 0.62360 0.10200
C 	C 	0.27200 0.96150 0.79270 -0.16700
H 	H 	0.21980 0.93450 0.83960 0.09700
C 	C 	0.36700 0.90220 0.73500 0.13300
C 	C 	0.40600 0.63620 0.68460 -0.20200
C 	C 	0.42100 0.04610 0.65840 0.09700
H 	H 	0.47490 0.07330 0.61170 -0.00900
C 	C 	0.88500 0.68640 0.68660 0.07700
H 	H 	0.86790 0.72120 0.64240 0.00700
C 	C 	0.90700 0.53340 0.60980 0.50300
C 	C 	0.94900 0.53150 0.74850 0.11700
H 	H 	0.98080 0.46470 0.74520 -0.02900
C 	C 	0.76400 0.89320 0.82460 -0.17700
H 	H 	0.72160 0.86010 0.86990 0.10000
C 	C 	0.87500 0.08580 0.99630 -0.02900
H 	H 	0.79140 0.14220 0.99380 0.04800
C 	C 	0.17000 0.18500 0.97170 0.31600
C 	C 	0.20000 0.00460 0.99090 -0.02700
H 	H 	0.33700 0.00700 0.98460 0.05000
C 	C 	0.93900 0.58040 0.81840 -0.18600
C 	C 	0.84700 0.81390 0.48360 0.29900
C 	C 	0.89300 0.99950 0.69840 0.10600
H 	H 	0.94250 0.03490 0.65520 0.00100
C 	C 	0.42100 0.59230 0.75610 0.14600
H 	H 	0.43110 0.52510 0.76070 -0.03100
C 	C 	0.92200 0.89780 0.69420 -0.17800
H 	H 	0.98410 0.86770 0.64860 0.09800
C 	C 	0.25100 0.06580 0.78310 0.08400
H 	H 	0.18600 0.10460 0.82380 -0.00700
C 	C 	0.73500 0.99370 0.82120 0.09700
H 	H 	0.66580 0.02620 0.86470 0.00100
O 	O 	0.91800 0.57800 0.94900 -0.70100
Sm	Sm	0.29611 0.36579 0.54794 1.95200
Sm	Sm	0.66867 0.63205 0.05283 1.91000
O 	O 	0.93970 0.74110 0.03730 -0.42000
O 	O 	0.64700 0.81160 0.02950 -0.43100
O 	O 	0.02970 0.25960 0.53150 -0.41300
O 	O 	0.33680 0.19170 0.50770 -0.43700
O 	O 	0.57970 0.38480 0.44980 -0.53500
O 	O 	0.60990 0.51330 0.37480 -0.54700
O 	O 	0.54400 0.48530 0.09660 -0.59000
O 	O 	0.51010 0.34170 0.05320 -0.51800
O 	O 	0.12800 0.44900 0.04600 0.20500
O 	O 	0.92650 0.55540 0.11890 -0.50500
O 	O 	0.01470 0.55250 0.39670 -0.53000
O 	O 	0.18420 0.42210 0.43790 -0.53400
N 	N 	0.67400 0.89240 0.28430 -0.16500
N 	N 	0.20000 0.95250 0.24130 -0.15200
C 	C 	0.59500 0.42420 0.38480 0.49400
C 	C 	0.54300 0.39640 0.10400 0.51800
C 	C 	0.61200 0.26180 0.32100 0.07800
H 	H 	0.61770 0.23260 0.36850 0.00400
C 	C 	0.91600 0.91150 0.01270 -0.06700
C 	C 	0.13000 0.91540 0.49660 -0.02800
H 	H 	0.21610 0.85910 0.49490 0.04000
C 	C 	0.11600 0.26400 0.24410 -0.10100
C 	C 	0.62000 0.20390 0.25760 -0.10000
C 	C 	0.19800 0.00560 0.50180 -0.03000
H 	H 	0.33200 0.00920 0.50240 0.04800
C 	C 	0.09000 0.31820 0.17990 0.08000
H 	H 	0.09180 0.28660 0.13400 0.01300
C 	C 	0.03100 0.47660 0.11160 0.44800
C 	C 	0.57900 0.35190 0.18070 -0.20000
C 	C 	0.14100 0.15700 0.24150 0.13200
C 	C 	0.07400 0.08900 0.50600 -0.06300
C 	C 	0.60200 0.24870 0.18640 0.07000
H 	H 	0.60490 0.21110 0.14330 0.01700
C 	C 	0.09000 0.41480 0.31510 -0.19900
C 	C 	0.55900 0.05210 0.33470 -0.17900
H 	H 	0.49470 0.08960 0.37640 0.10200
C 	C 	0.72800 0.03850 0.20730 -0.16700
H 	H 	0.78020 0.06550 0.16040 0.09700
C 	C 	0.63300 0.09780 0.26500 0.13300
C 	C 	0.59400 0.36380 0.31540 -0.20200
C 	C 	0.57900 0.95390 0.34160 0.09700
H 	H 	0.52510 0.92670 0.38830 -0.00900
C 	C 	0.11500 0.31360 0.31340 0.07700
H 	H 	0.13210 0.27880 0.35760 0.00700
C 	C 	0.09300 0.46660 0.39020 0.50300
C 	C 	0.05100 0.46850 0.25150 0.11700
H 	H 	0.01920 0.53530 0.25480 -0.02900
C 	C 	0.23600 0.10680 0.17540 -0.17700
H 	H 	0.27840 0.13990 0.13010 0.10000
C 	C 	0.12500 0.91420 0.00370 -0.02900
H 	H 	0.20860 0.85780 0.00620 0.04800
C 	C 	0.83000 0.81500 0.02830 0.31600
C 	C 	0.80000 0.99540 0.00910 -0.02700
H 	H 	0.66300 0.99300 0.01540 0.05000
C 	C 	0.06100 0.41960 0.18160 -0.18600
C 	C 	0.15300 0.18610 0.51640 0.29900
C 	C 	0.10700 0.00050 0.30160 0.10600
H 	H 	0.05750 0.96510 0.34480 0.00100
C 	C 	0.57900 0.40770 0.24390 0.14600
H 	H 	0.56890 0.47490 0.23930 -0.03100
C 	C 	0.07800 0.10220 0.30580 -0.17800
H 	H 	0.01590 0.13230 0.35140 0.09800
C 	C 	0.74900 0.93420 0.21690 0.08400
H 	H 	0.81400 0.89540 0.17620 -0.00700
C 	C 	0.26500 0.00630 0.17880 0.09700
H 	H 	0.33420 0.97380 0.13530 0.00100
O 	O 	0.08200 0.42200 0.05100 -0.70100
