data_crystal

_cell_length_a 6.96100
_cell_length_b 26.30300
_cell_length_c 17.79700
_cell_angle_alpha 90.00000
_cell_angle_beta  97.86000
_cell_angle_gamma 90.00000

_symmetry_space_group_name_	'P 1'
_symmetry_space_group_name_H-M	'P 1'

loop_
_symmetry_equiv_pos_as_xyz
  x,y,z

loop_
_atom_site_label
_atom_site_type_symbol
_atom_site_fract_x
_atom_site_fract_y
_atom_site_fract_z
_atom_site_charge
O 	O 	0.60530 0.11830 0.53970 -0.39700
O 	O 	0.32710 0.15710 0.52730 -0.44000
C 	C 	0.50730 0.15790 0.52840 0.33300
O 	O 	0.95490 0.57970 0.45010 -0.48700
C 	C 	0.02270 0.54880 0.40760 0.49900
O 	O 	0.57600 0.53750 0.44630 -0.52300
C 	C 	0.65600 0.76150 0.32900 0.11700
H 	H 	0.70190 0.77700 0.37490 -0.00900
N 	N 	0.59590 0.79150 0.26960 -0.16500
C 	C 	0.53200 0.76820 0.20480 0.11700
H 	H 	0.49060 0.78790 0.16240 -0.00700
O 	O 	0.69280 0.55140 0.05910 -0.50300
C 	C 	0.60970 0.20790 0.52030 -0.12100
Dy	Dy	0.31803 0.43003 0.06619 1.68200
Dy	Dy	0.23659 0.43175 0.45085 1.79900
O 	O 	0.43230 0.47600 0.37530 -0.50000
O 	O 	0.29410 0.34370 0.48560 -0.43200
O 	O 	0.18320 0.51760 0.08010 -0.39500
O 	O 	0.15380 0.46090 0.16800 -0.43600
O 	O 	0.54930 0.38410 0.45850 -0.39100
C 	C 	0.57360 0.52350 0.24580 0.16800
H 	H 	0.56600 0.48830 0.24280 -0.03500
C 	C 	0.05280 0.56710 0.32830 -0.18200
C 	C 	0.60340 0.55090 0.18320 -0.22300
C 	C 	0.55850 0.59970 0.31610 0.11300
H 	H 	0.54470 0.61580 0.36160 -0.00500
C 	C 	0.50310 0.25150 0.50470 0.04500
H 	H 	0.36840 0.24990 0.49710 0.03100
C 	C 	0.47120 0.34420 0.48030 0.32700
C 	C 	0.14800 0.50780 0.14570 0.33100
C 	C 	0.52040 0.51770 0.38360 0.51200
C 	C 	0.04980 0.61900 0.31120 0.05700
H 	H 	0.03120 0.64260 0.34830 0.02100
C 	C 	0.08060 0.53260 0.27330 0.10800
H 	H 	0.08230 0.49820 0.28510 -0.01200
C 	C 	0.58210 0.62920 0.25360 -0.12700
C 	C 	0.55470 0.54730 0.31330 -0.22900
C 	C 	0.59600 0.29830 0.50010 -0.11900
C 	C 	0.10240 0.59950 0.18350 0.03800
H 	H 	0.11870 0.60990 0.13490 0.02400
C 	C 	0.10600 0.54710 0.20100 -0.13300
C 	C 	0.60690 0.60430 0.18600 0.10000
H 	H 	0.62560 0.62300 0.14320 0.00300
C 	C 	0.65410 0.71010 0.32610 -0.20700
H 	H 	0.69690 0.69120 0.36930 0.11300
C 	C 	0.62380 0.52580 0.10870 0.50500
C 	C 	0.07490 0.63550 0.23800 -0.07700
C 	C 	0.58760 0.68560 0.25790 0.16100
C 	C 	0.52500 0.71560 0.19760 -0.20300
H 	H 	0.47750 0.70100 0.15120 0.10800
C 	C 	0.81040 0.21120 0.53290 0.04700
H 	H 	0.88440 0.18210 0.54390 0.01100
C 	C 	0.06400 0.69040 0.21970 0.12200
C 	C 	0.79300 0.30150 0.51200 0.04600
H 	H 	0.85430 0.33260 0.50880 0.02400
C 	C 	0.98280 0.70880 0.14940 -0.17500
H 	H 	0.93900 0.68650 0.11010 0.09600
C 	C 	0.90080 0.25780 0.52910 -0.12000
H 	H 	0.03540 0.25980 0.53800 0.07600
C 	C 	0.12680 0.72710 0.27560 -0.17000
H 	H 	0.18460 0.71740 0.32360 0.09800
N 	N 	0.01900 0.79560 0.19020 -0.16000
C 	C 	0.10000 0.77850 0.25680 0.10200
H 	H 	0.14180 0.80230 0.29400 -0.00600
C 	C 	0.96800 0.76140 0.13870 0.09900
H 	H 	0.91750 0.77290 0.09060 0.00200
O 	O 	0.57940 0.47950 0.10130 -0.51100
O 	O 	0.06080 0.50320 0.42230 -0.54200
O 	O 	0.39470 0.61830 0.96030 -0.39700
O 	O 	0.67290 0.65710 0.97270 -0.43900
C 	C 	0.49270 0.65790 0.97160 0.33500
O 	O 	0.04510 0.07970 0.04990 -0.48400
C 	C 	0.97730 0.04880 0.09240 0.50000
O 	O 	0.42400 0.03750 0.05370 -0.52000
C 	C 	0.34400 0.26150 0.17100 0.11800
H 	H 	0.29810 0.27700 0.12510 -0.00800
N 	N 	0.40410 0.29150 0.23040 -0.16400
C 	C 	0.46800 0.26820 0.29520 0.11800
H 	H 	0.50940 0.28790 0.33760 -0.00700
O 	O 	0.30720 0.05140 0.44090 -0.50300
C 	C 	0.39030 0.70790 0.97970 -0.12400
Dy	Dy	0.68197 0.93003 0.43381 1.68100
Dy	Dy	0.76341 0.93175 0.04915 1.79400
O 	O 	0.56770 0.97600 0.12470 -0.50200
O 	O 	0.70590 0.84370 0.01440 -0.43200
O 	O 	0.81680 0.01760 0.41990 -0.39500
O 	O 	0.84620 0.96090 0.33200 -0.43700
O 	O 	0.45070 0.88410 0.04150 -0.39100
C 	C 	0.42640 0.02350 0.25420 0.17100
H 	H 	0.43400 0.98830 0.25720 -0.03600
C 	C 	0.94720 0.06710 0.17170 -0.18300
C 	C 	0.39660 0.05090 0.31680 -0.22400
C 	C 	0.44150 0.09970 0.18390 0.11400
H 	H 	0.45530 0.11580 0.13840 -0.00500
C 	C 	0.49690 0.75150 0.99530 0.04900
H 	H 	0.63160 0.74990 0.00290 0.02900
C 	C 	0.52880 0.84420 0.01970 0.32700
C 	C 	0.85200 0.00780 0.35430 0.33300
C 	C 	0.47960 0.01770 0.11640 0.51400
C 	C 	0.95020 0.11900 0.18880 0.05800
H 	H 	0.96880 0.14260 0.15170 0.02000
C 	C 	0.91940 0.03260 0.22670 0.11300
H 	H 	0.91770 0.99820 0.21490 -0.01500
C 	C 	0.41790 0.12920 0.24640 -0.12800
C 	C 	0.44530 0.04730 0.18670 -0.23100
C 	C 	0.40400 0.79830 0.99990 -0.12000
C 	C 	0.89760 0.09950 0.31650 0.03900
H 	H 	0.88130 0.10990 0.36510 0.02400
C 	C 	0.89400 0.04710 0.29900 -0.13500
C 	C 	0.39310 0.10430 0.31400 0.10000
H 	H 	0.37440 0.12300 0.35680 0.00300
C 	C 	0.34590 0.21010 0.17390 -0.20800
H 	H 	0.30310 0.19120 0.13070 0.11300
C 	C 	0.37620 0.02580 0.39130 0.50600
C 	C 	0.92510 0.13550 0.26200 -0.07800
C 	C 	0.41240 0.18560 0.24210 0.16100
C 	C 	0.47500 0.21560 0.30240 -0.20300
H 	H 	0.52250 0.20100 0.34880 0.10800
C 	C 	0.18960 0.71120 0.96710 0.05000
H 	H 	0.11560 0.68210 0.95610 0.01000
C 	C 	0.93600 0.19040 0.28030 0.12200
C 	C 	0.20700 0.80150 0.98800 0.04800
H 	H 	0.14570 0.83260 0.99120 0.02300
C 	C 	0.01720 0.20880 0.35060 -0.17500
H 	H 	0.06100 0.18650 0.38990 0.09600
C 	C 	0.09920 0.75780 0.97090 -0.12400
H 	H 	0.96460 0.75980 0.96200 0.07800
C 	C 	0.87320 0.22710 0.22440 -0.17000
H 	H 	0.81540 0.21740 0.17640 0.09800
N 	N 	0.98100 0.29560 0.30980 -0.16000
C 	C 	0.90000 0.27850 0.24320 0.10200
H 	H 	0.85820 0.30230 0.20600 -0.00600
C 	C 	0.03200 0.26140 0.36130 0.10000
H 	H 	0.08250 0.27290 0.40940 0.00200
O 	O 	0.42060 0.97950 0.39870 -0.51100
O 	O 	0.93920 0.00320 0.07770 -0.54000
O 	O 	0.39470 0.88170 0.46030 -0.39600
O 	O 	0.67290 0.84290 0.47270 -0.43900
C 	C 	0.49270 0.84210 0.47160 0.33400
O 	O 	0.04510 0.42030 0.54990 -0.48600
C 	C 	0.97730 0.45120 0.59240 0.50000
O 	O 	0.42400 0.46250 0.55370 -0.52200
C 	C 	0.34400 0.23850 0.67100 0.11800
H 	H 	0.29810 0.22300 0.62510 -0.00800
N 	N 	0.40410 0.20850 0.73040 -0.16400
C 	C 	0.46800 0.23180 0.79520 0.11800
H 	H 	0.50940 0.21210 0.83760 -0.00700
O 	O 	0.30720 0.44860 0.94090 -0.50300
C 	C 	0.39030 0.79210 0.47970 -0.12100
Dy	Dy	0.68197 0.56997 0.93381 1.68200
Dy	Dy	0.76341 0.56825 0.54915 1.79900
O 	O 	0.56770 0.52400 0.62470 -0.50000
O 	O 	0.70590 0.65630 0.51440 -0.43200
O 	O 	0.81680 0.48240 0.91990 -0.39500
O 	O 	0.84620 0.53910 0.83200 -0.43600
O 	O 	0.45070 0.61590 0.54150 -0.39100
C 	C 	0.42640 0.47650 0.75420 0.16800
H 	H 	0.43400 0.51170 0.75720 -0.03500
C 	C 	0.94720 0.43290 0.67170 -0.18200
C 	C 	0.39660 0.44910 0.81680 -0.22300
C 	C 	0.44150 0.40030 0.68390 0.11300
H 	H 	0.45530 0.38420 0.63840 -0.00500
C 	C 	0.49690 0.74850 0.49530 0.04500
H 	H 	0.63160 0.75010 0.50290 0.03100
C 	C 	0.52880 0.65580 0.51970 0.32700
C 	C 	0.85200 0.49220 0.85430 0.33100
C 	C 	0.47960 0.48230 0.61640 0.51200
C 	C 	0.95020 0.38100 0.68880 0.05700
H 	H 	0.96880 0.35740 0.65170 0.02100
C 	C 	0.91940 0.46740 0.72670 0.10800
H 	H 	0.91770 0.50180 0.71490 -0.01200
C 	C 	0.41790 0.37080 0.74640 -0.12700
C 	C 	0.44530 0.45270 0.68670 -0.22900
C 	C 	0.40400 0.70170 0.49990 -0.11900
C 	C 	0.89760 0.40050 0.81650 0.03800
H 	H 	0.88130 0.39010 0.86510 0.02400
C 	C 	0.89400 0.45290 0.79900 -0.13300
C 	C 	0.39310 0.39570 0.81400 0.10000
H 	H 	0.37440 0.37700 0.85680 0.00300
C 	C 	0.34590 0.28990 0.67390 -0.20700
H 	H 	0.30310 0.30880 0.63070 0.11300
C 	C 	0.37620 0.47420 0.89130 0.50500
C 	C 	0.92510 0.36450 0.76200 -0.07700
C 	C 	0.41240 0.31440 0.74210 0.16100
C 	C 	0.47500 0.28440 0.80240 -0.20300
H 	H 	0.52250 0.29900 0.84880 0.10800
C 	C 	0.18960 0.78880 0.46710 0.04700
H 	H 	0.11560 0.81790 0.45610 0.01100
C 	C 	0.93600 0.30960 0.78030 0.12200
C 	C 	0.20700 0.69850 0.48800 0.04600
H 	H 	0.14570 0.66740 0.49120 0.02400
C 	C 	0.01720 0.29120 0.85060 -0.17500
H 	H 	0.06100 0.31350 0.88990 0.09600
C 	C 	0.09920 0.74220 0.47090 -0.12000
H 	H 	0.96460 0.74020 0.46200 0.07600
C 	C 	0.87320 0.27290 0.72440 -0.17000
H 	H 	0.81540 0.28260 0.67640 0.09800
N 	N 	0.98100 0.20440 0.80980 -0.16000
C 	C 	0.90000 0.22150 0.74320 0.10200
H 	H 	0.85820 0.19770 0.70600 -0.00600
C 	C 	0.03200 0.23860 0.86130 0.09900
H 	H 	0.08250 0.22710 0.90940 0.00200
O 	O 	0.42060 0.52050 0.89870 -0.51100
O 	O 	0.93920 0.49680 0.57770 -0.54200
O 	O 	0.60530 0.38170 0.03970 -0.39700
O 	O 	0.32710 0.34290 0.02730 -0.43900
C 	C 	0.50730 0.34210 0.02840 0.33500
O 	O 	0.95490 0.92030 0.95010 -0.48400
C 	C 	0.02270 0.95120 0.90760 0.50000
O 	O 	0.57600 0.96250 0.94630 -0.52000
C 	C 	0.65600 0.73850 0.82900 0.11800
H 	H 	0.70190 0.72300 0.87490 -0.00800
N 	N 	0.59590 0.70850 0.76960 -0.16400
C 	C 	0.53200 0.73180 0.70480 0.11800
H 	H 	0.49060 0.71210 0.66240 -0.00700
O 	O 	0.69280 0.94860 0.55910 -0.50300
C 	C 	0.60970 0.29210 0.02030 -0.12400
Dy	Dy	0.31803 0.06997 0.56619 1.68100
Dy	Dy	0.23659 0.06825 0.95085 1.79400
O 	O 	0.43230 0.02400 0.87530 -0.50200
O 	O 	0.29410 0.15630 0.98560 -0.43200
O 	O 	0.18320 0.98240 0.58010 -0.39500
O 	O 	0.15380 0.03910 0.66800 -0.43700
O 	O 	0.54930 0.11590 0.95850 -0.39100
C 	C 	0.57360 0.97650 0.74580 0.17100
H 	H 	0.56600 0.01170 0.74280 -0.03600
C 	C 	0.05280 0.93290 0.82830 -0.18300
C 	C 	0.60340 0.94910 0.68320 -0.22400
C 	C 	0.55850 0.90030 0.81610 0.11400
H 	H 	0.54470 0.88420 0.86160 -0.00500
C 	C 	0.50310 0.24850 0.00470 0.04900
H 	H 	0.36840 0.25010 0.99710 0.02900
C 	C 	0.47120 0.15580 0.98030 0.32700
C 	C 	0.14800 0.99220 0.64570 0.33300
C 	C 	0.52040 0.98230 0.88360 0.51400
C 	C 	0.04980 0.88100 0.81120 0.05800
H 	H 	0.03120 0.85740 0.84830 0.02000
C 	C 	0.08060 0.96740 0.77330 0.11300
H 	H 	0.08230 0.00180 0.78510 -0.01500
C 	C 	0.58210 0.87080 0.75360 -0.12800
C 	C 	0.55470 0.95270 0.81330 -0.23100
C 	C 	0.59600 0.20170 0.00010 -0.12000
C 	C 	0.10240 0.90050 0.68350 0.03900
H 	H 	0.11870 0.89010 0.63490 0.02400
C 	C 	0.10600 0.95290 0.70100 -0.13500
C 	C 	0.60690 0.89570 0.68600 0.10000
H 	H 	0.62560 0.87700 0.64320 0.00300
C 	C 	0.65410 0.78990 0.82610 -0.20800
H 	H 	0.69690 0.80880 0.86930 0.11300
C 	C 	0.62380 0.97420 0.60870 0.50600
C 	C 	0.07490 0.86450 0.73800 -0.07800
C 	C 	0.58760 0.81440 0.75790 0.16100
C 	C 	0.52500 0.78440 0.69760 -0.20300
H 	H 	0.47750 0.79900 0.65120 0.10800
C 	C 	0.81040 0.28880 0.03290 0.05000
H 	H 	0.88440 0.31790 0.04390 0.01000
C 	C 	0.06400 0.80960 0.71970 0.12200
C 	C 	0.79300 0.19850 0.01200 0.04800
H 	H 	0.85430 0.16740 0.00880 0.02300
C 	C 	0.98280 0.79120 0.64940 -0.17500
H 	H 	0.93900 0.81350 0.61010 0.09600
C 	C 	0.90080 0.24220 0.02910 -0.12400
H 	H 	0.03540 0.24020 0.03800 0.07800
C 	C 	0.12680 0.77290 0.77560 -0.17000
H 	H 	0.18460 0.78260 0.82360 0.09800
N 	N 	0.01900 0.70440 0.69020 -0.16000
C 	C 	0.10000 0.72150 0.75680 0.10200
H 	H 	0.14180 0.69770 0.79400 -0.00600
C 	C 	0.96800 0.73860 0.63870 0.10000
H 	H 	0.91750 0.72710 0.59060 0.00200
O 	O 	0.57940 0.02050 0.60130 -0.51100
O 	O 	0.06080 0.99680 0.92230 -0.54000
