data_crystal

_cell_length_a 13.81900
_cell_length_b 15.38200
_cell_length_c 24.38300
_cell_angle_alpha 100.41000
_cell_angle_beta  95.25000
_cell_angle_gamma 101.09000

_symmetry_space_group_name_	'P 1'
_symmetry_space_group_name_H-M	'P 1'

loop_
_symmetry_equiv_pos_as_xyz
  x,y,z

loop_
_atom_site_label
_atom_site_type_symbol
_atom_site_fract_x
_atom_site_fract_y
_atom_site_fract_z
_atom_site_charge
Mn	Mn	0.17459 0.64362 0.32342 1.27300
Mn	Mn	0.36785 0.55619 0.27385 1.30000
Mn	Mn	0.60873 0.65404 0.32475 1.30300
Mn	Mn	0.81866 0.69843 0.26261 1.25500
Mn	Mn	0.82541 0.35638 0.67658 1.27400
Mn	Mn	0.63215 0.44381 0.72615 1.30100
Mn	Mn	0.39127 0.34596 0.67525 1.30300
Mn	Mn	0.18134 0.30157 0.73739 1.25500
H 	H 	0.28760 0.35250 0.31200 0.02600
H 	H 	0.26070 0.19910 0.30980 0.06400
H 	H 	0.98040 0.19580 0.33400 0.06400
H 	H 	0.00630 0.34770 0.33420 0.02300
H 	H 	0.23880 0.07760 0.35100 0.08900
H 	H 	0.21140 0.92440 0.34650 -0.00600
H 	H 	0.93270 0.89680 0.28420 -0.02300
H 	H 	0.95970 0.04960 0.28670 0.08900
H 	H 	0.21870 0.47260 0.10110 0.01800
H 	H 	0.13640 0.44500 0.01150 0.06500
H 	H 	0.93420 0.57610 0.06910 0.06300
H 	H 	0.02110 0.61160 0.15630 -0.00500
H 	H 	0.54940 0.76290 0.44270 0.01500
H 	H 	0.59140 0.89730 0.50770 0.07200
H 	H 	0.36860 0.98330 0.43500 0.06900
H 	H 	0.32650 0.85030 0.37050 0.01100
H 	H 	0.68570 0.58820 0.13540 -0.04300
H 	H 	0.65670 0.53280 0.04020 0.08000
H 	H 	0.37000 0.52270 0.04430 0.08100
H 	H 	0.39820 0.56910 0.13910 0.00100
H 	H 	0.69350 0.40740 0.31420 0.02200
H 	H 	0.74080 0.27250 0.31800 0.06900
H 	H 	0.45920 0.13830 0.26480 0.06900
H 	H 	0.41390 0.27350 0.25880 0.02300
H 	H 	0.75350 0.11640 0.25970 0.07400
H 	H 	0.78760 0.97680 0.26340 0.00800
H 	H 	0.56150 0.92650 0.35060 0.02400
H 	H 	0.51960 0.05880 0.34050 0.07800
H 	H 	0.76340 0.59660 0.48420 0.02600
H 	H 	0.86710 0.53340 0.53800 0.06900
H 	H 	0.03770 0.51830 0.41630 0.07200
H 	H 	0.93510 0.58130 0.36430 -0.00400
H 	H 	0.71240 0.64750 0.68800 0.02600
H 	H 	0.73930 0.80090 0.69020 0.06400
H 	H 	0.01960 0.80420 0.66600 0.06400
H 	H 	0.99370 0.65230 0.66580 0.02300
H 	H 	0.76120 0.92240 0.64900 0.08900
H 	H 	0.78860 0.07560 0.65350 -0.00600
H 	H 	0.06730 0.10320 0.71580 -0.02300
H 	H 	0.04030 0.95040 0.71330 0.08900
H 	H 	0.78130 0.52740 0.89890 0.01800
H 	H 	0.86360 0.55500 0.98850 0.06500
H 	H 	0.06580 0.42390 0.93090 0.06300
H 	H 	0.97890 0.38840 0.84370 -0.00500
H 	H 	0.45060 0.23710 0.55730 0.01500
H 	H 	0.40860 0.10270 0.49230 0.07200
H 	H 	0.63140 0.01670 0.56500 0.06900
H 	H 	0.67350 0.14970 0.62950 0.01100
H 	H 	0.31430 0.41180 0.86460 -0.04300
H 	H 	0.34330 0.46720 0.95980 0.08000
H 	H 	0.63000 0.47730 0.95570 0.08100
H 	H 	0.60180 0.43090 0.86090 0.00100
H 	H 	0.30650 0.59260 0.68580 0.02200
H 	H 	0.25920 0.72750 0.68200 0.06900
H 	H 	0.54080 0.86170 0.73520 0.06900
H 	H 	0.58610 0.72650 0.74120 0.02300
H 	H 	0.24650 0.88360 0.74030 0.07400
H 	H 	0.21240 0.02320 0.73660 0.00800
H 	H 	0.43850 0.07350 0.64940 0.02400
H 	H 	0.48040 0.94120 0.65950 0.07800
H 	H 	0.23660 0.40340 0.51580 0.02600
H 	H 	0.13290 0.46660 0.46200 0.06900
H 	H 	0.96230 0.48170 0.58370 0.07200
H 	H 	0.06490 0.41870 0.63570 -0.00400
C 	C 	0.14950 0.36690 0.32263 -0.13500
C 	C 	0.22470 0.32130 0.31590 0.04300
C 	C 	0.20850 0.22870 0.31490 -0.10200
C 	C 	0.11850 0.18060 0.32110 0.02500
C 	C 	0.04270 0.22670 0.32890 -0.10500
C 	C 	0.05860 0.31820 0.32930 0.04600
C 	C 	0.10110 0.08110 0.31960 0.09700
C 	C 	0.17600 0.04190 0.33720 -0.17800
C 	C 	0.15910 0.94930 0.33440 0.12400
C 	C 	0.06880 0.89340 0.31481 -0.22400
C 	C 	0.99560 0.93250 0.29770 0.12800
C 	C 	0.01190 0.02530 0.29960 -0.17800
C 	C 	0.16660 0.46590 0.32284 0.37400
C 	C 	0.05290 0.79250 0.31271 0.47700
C 	C 	0.13080 0.54890 0.13838 -0.15100
C 	C 	0.16270 0.49640 0.09450 0.06100
C 	C 	0.11220 0.47880 0.04070 -0.12400
C 	C 	0.02700 0.50990 0.02890 0.05000
C 	C 	0.99370 0.55730 0.07460 -0.13500
C 	C 	0.04520 0.57740 0.12720 0.07400
C 	C 	0.18600 0.56880 0.19684 0.40800
C 	C 	0.43450 0.79320 0.39947 -0.15900
C 	C 	0.51290 0.80740 0.44073 0.06500
C 	C 	0.53790 0.88850 0.47981 -0.12200
C 	C 	0.48610 0.95640 0.47864 0.04900
C 	C 	0.40610 0.93940 0.43690 -0.12400
C 	C 	0.38070 0.85970 0.39808 0.05600
C 	C 	0.40830 0.70850 0.35520 0.36300
C 	C 	0.54520 0.58510 0.14765 -0.21800
C 	C 	0.62070 0.57360 0.11723 0.12500
C 	C 	0.60320 0.54040 0.05967 -0.17000
C 	C 	0.50990 0.51850 0.03090 0.07100
C 	C 	0.43470 0.53350 0.06240 -0.15900
C 	C 	0.45170 0.56340 0.11930 0.11300
C 	C 	0.56380 0.61880 0.20997 0.44700
C 	C 	0.54870 0.35460 0.28890 -0.13500
C 	C 	0.64610 0.35350 0.30490 0.05300
C 	C 	0.67430 0.27240 0.30750 -0.11600
C 	C 	0.60480 0.19110 0.29460 0.03900
C 	C 	0.50640 0.19230 0.27540 -0.11500
C 	C 	0.47910 0.27330 0.27220 0.05000
C 	C 	0.63380 0.10430 0.30040 0.06200
C 	C 	0.71310 0.07750 0.27740 -0.13800
C 	C 	0.73430 0.99390 0.27990 0.07100
C 	C 	0.67660 0.93560 0.30690 -0.15100
C 	C 	0.59910 0.96350 0.33070 0.07300
C 	C 	0.57570 0.04400 0.32610 -0.13600
C 	C 	0.51710 0.44330 0.28880 0.41000
C 	C 	0.69450 0.84270 0.30873 0.41000
C 	C 	0.83920 0.59750 0.41961 -0.14600
C 	C 	0.82000 0.58180 0.47030 0.06200
C 	C 	0.88260 0.54360 0.50310 -0.12400
C 	C 	0.96720 0.52110 0.48359 0.05200
C 	C 	0.98290 0.53500 0.43130 -0.14000
C 	C 	0.92090 0.57260 0.39970 0.07000
C 	C 	0.76890 0.63570 0.38517 0.37200
C 	C 	0.85050 0.63310 0.67737 -0.13500
C 	C 	0.77530 0.67870 0.68410 0.04300
C 	C 	0.79150 0.77130 0.68510 -0.10200
C 	C 	0.88150 0.81940 0.67890 0.02500
C 	C 	0.95730 0.77330 0.67110 -0.10500
C 	C 	0.94140 0.68180 0.67070 0.04600
C 	C 	0.89890 0.91890 0.68040 0.09700
C 	C 	0.82400 0.95810 0.66280 -0.17800
C 	C 	0.84090 0.05070 0.66560 0.12400
C 	C 	0.93120 0.10660 0.68519 -0.22400
C 	C 	0.00440 0.06750 0.70230 0.12800
C 	C 	0.98810 0.97470 0.70040 -0.17800
C 	C 	0.83340 0.53410 0.67716 0.37400
C 	C 	0.94710 0.20750 0.68729 0.47700
C 	C 	0.86920 0.45110 0.86162 -0.15100
C 	C 	0.83730 0.50360 0.90550 0.06100
C 	C 	0.88780 0.52120 0.95930 -0.12400
C 	C 	0.97300 0.49010 0.97110 0.05000
C 	C 	0.00630 0.44270 0.92540 -0.13500
C 	C 	0.95480 0.42260 0.87280 0.07400
C 	C 	0.81400 0.43120 0.80316 0.40800
C 	C 	0.56550 0.20680 0.60053 -0.15900
C 	C 	0.48710 0.19260 0.55927 0.06500
C 	C 	0.46210 0.11150 0.52019 -0.12200
C 	C 	0.51390 0.04360 0.52136 0.04900
C 	C 	0.59390 0.06060 0.56310 -0.12400
C 	C 	0.61930 0.14030 0.60192 0.05600
C 	C 	0.59170 0.29150 0.64480 0.36300
C 	C 	0.45480 0.41490 0.85235 -0.21800
C 	C 	0.37930 0.42640 0.88277 0.12500
C 	C 	0.39680 0.45960 0.94033 -0.17000
C 	C 	0.49010 0.48150 0.96910 0.07100
C 	C 	0.56530 0.46650 0.93760 -0.15900
C 	C 	0.54830 0.43660 0.88070 0.11300
C 	C 	0.43620 0.38120 0.79003 0.44700
C 	C 	0.45130 0.64540 0.71110 -0.13500
C 	C 	0.35390 0.64650 0.69510 0.05300
C 	C 	0.32570 0.72760 0.69250 -0.11600
C 	C 	0.39520 0.80890 0.70540 0.03900
C 	C 	0.49360 0.80770 0.72460 -0.11500
C 	C 	0.52090 0.72670 0.72780 0.05000
C 	C 	0.36620 0.89570 0.69960 0.06200
C 	C 	0.28690 0.92250 0.72260 -0.13800
C 	C 	0.26570 0.00610 0.72010 0.07100
C 	C 	0.32340 0.06440 0.69310 -0.15100
C 	C 	0.40090 0.03650 0.66930 0.07300
C 	C 	0.42430 0.95600 0.67390 -0.13600
C 	C 	0.48290 0.55670 0.71120 0.41000
C 	C 	0.30550 0.15730 0.69127 0.41000
C 	C 	0.16080 0.40250 0.58039 -0.14600
C 	C 	0.18000 0.41820 0.52970 0.06200
C 	C 	0.11740 0.45640 0.49690 -0.12400
C 	C 	0.03280 0.47890 0.51641 0.05200
C 	C 	0.01710 0.46500 0.56870 -0.14000
C 	C 	0.07910 0.42740 0.60030 0.07000
C 	C 	0.23110 0.36430 0.61483 0.37200
O 	O 	0.25440 0.50861 0.32274 -0.51900
O 	O 	0.09550 0.50480 0.32353 -0.44500
O 	O 	0.12730 0.76408 0.32951 -0.49500
O 	O 	0.97090 0.74328 0.29460 -0.52100
O 	O 	0.26360 0.53810 0.20321 -0.46400
O 	O 	0.14910 0.61253 0.23492 -0.46900
O 	O 	0.33354 0.69475 0.31831 -0.52600
O 	O 	0.46247 0.64960 0.35416 -0.51900
O 	O 	0.49077 0.62568 0.23656 -0.52100
O 	O 	0.65084 0.63914 0.23431 -0.56200
O 	O 	0.58100 0.51266 0.31049 -0.47400
O 	O 	0.42980 0.44139 0.26887 -0.46200
O 	O 	0.63210 0.79190 0.32856 -0.47000
O 	O 	0.77024 0.82207 0.28805 -0.47200
O 	O 	0.69250 0.65400 0.40467 -0.40800
O 	O 	0.78530 0.64300 0.33548 -0.52300
O 	O 	0.74560 0.49139 0.67726 -0.51900
O 	O 	0.90450 0.49520 0.67647 -0.44500
O 	O 	0.87270 0.23592 0.67049 -0.49500
O 	O 	0.02910 0.25672 0.70540 -0.52100
O 	O 	0.73640 0.46190 0.79679 -0.46400
O 	O 	0.85090 0.38747 0.76508 -0.46900
O 	O 	0.66646 0.30525 0.68169 -0.52600
O 	O 	0.53753 0.35040 0.64584 -0.51900
O 	O 	0.50923 0.37432 0.76344 -0.52100
O 	O 	0.34916 0.36086 0.76569 -0.56200
O 	O 	0.41900 0.48734 0.68951 -0.47400
O 	O 	0.57020 0.55861 0.73113 -0.46200
O 	O 	0.36790 0.20810 0.67144 -0.47000
O 	O 	0.22976 0.17793 0.71195 -0.47200
O 	O 	0.30750 0.34600 0.59533 -0.40800
O 	O 	0.21470 0.35700 0.66452 -0.52300
