data_crystal

_cell_length_a 13.95700
_cell_length_b 15.82700
_cell_length_c 25.70400
_cell_angle_alpha 90.00000
_cell_angle_beta  90.00000
_cell_angle_gamma 93.36200

_symmetry_space_group_name_	'P 1'
_symmetry_space_group_name_H-M	'P 1'

loop_
_symmetry_equiv_pos_as_xyz
  x,y,z

loop_
_atom_site_label
_atom_site_type_symbol
_atom_site_fract_x
_atom_site_fract_y
_atom_site_fract_z
_atom_site_charge
Cd	Cd	0.87279 0.99578 0.03460 1.23100
Cd	Cd	0.62466 0.99405 0.96860 1.23200
Cd	Cd	0.12721 0.50422 0.53460 1.23300
Cd	Cd	0.37534 0.50595 0.46860 1.23300
Cd	Cd	0.12721 0.00422 0.96540 1.23100
Cd	Cd	0.37534 0.00595 0.03140 1.23200
Cd	Cd	0.87279 0.49578 0.46540 1.23300
Cd	Cd	0.62466 0.49405 0.53140 1.23300
P 	P 	0.09078 0.30356 0.24069 0.37000
P 	P 	0.66513 0.75460 0.26432 0.37400
P 	P 	0.90922 0.19644 0.74069 0.37100
P 	P 	0.33487 0.74540 0.76432 0.37400
P 	P 	0.90922 0.69644 0.75931 0.36900
P 	P 	0.33487 0.24540 0.73568 0.37300
P 	P 	0.09078 0.80356 0.25931 0.37000
P 	P 	0.66513 0.25460 0.23568 0.37300
H 	H 	0.36470 0.90240 0.21870 0.16800
H 	H 	0.39300 0.81470 0.24020 0.17000
H 	H 	0.45250 0.85850 0.19500 0.17400
H 	H 	0.40800 0.01010 0.26870 0.16100
H 	H 	0.51810 0.02350 0.28030 0.17400
H 	H 	0.44970 0.97840 0.32140 0.16500
H 	H 	0.68790 0.89510 0.08010 -0.02500
H 	H 	0.60340 0.50810 0.30780 0.14800
H 	H 	0.26060 0.52070 0.36000 -0.04800
H 	H 	0.28660 0.31790 0.43840 -0.03200
H 	H 	0.86980 0.21130 0.19380 0.16200
H 	H 	0.54680 0.74370 0.35260 0.14600
H 	H 	0.19630 0.24180 0.38090 0.16600
H 	H 	0.89190 0.80440 0.20330 0.16700
H 	H 	0.50400 0.45680 0.37090 -0.03100
H 	H 	0.13140 0.13460 0.16720 0.14500
H 	H 	0.06980 0.05990 0.09540 -0.00800
H 	H 	0.81440 0.13640 0.12320 -0.00300
H 	H 	0.16590 0.44930 0.29870 0.16000
H 	H 	0.63370 0.78990 0.13980 0.16400
H 	H 	0.93970 0.89740 0.13770 -0.02700
H 	H 	0.44940 0.68190 0.41480 -0.03100
H 	H 	0.36590 0.33120 0.10510 0.15800
H 	H 	0.28170 0.26710 0.12200 0.17600
H 	H 	0.35120 0.30840 0.16400 0.16200
H 	H 	0.32150 0.44750 0.07870 0.13900
H 	H 	0.27530 0.50820 0.11850 0.14200
H 	H 	0.21010 0.45560 0.07910 0.14700
H 	H 	0.87220 0.55670 0.22260 0.17100
H 	H 	0.92050 0.50660 0.26710 0.17200
H 	H 	0.86170 0.45750 0.22350 0.16900
H 	H 	0.95140 0.60920 0.16590 0.15800
H 	H 	0.99740 0.54640 0.12730 0.14500
H 	H 	0.06260 0.59990 0.16630 0.16700
H 	H 	0.75850 0.01780 0.41220 0.15600
H 	H 	0.65180 0.98600 0.40160 0.16000
H 	H 	0.71010 0.03750 0.35880 0.16600
H 	H 	0.86170 0.92140 0.40980 0.15300
H 	H 	0.87780 0.87830 0.35580 0.16500
H 	H 	0.81860 0.82930 0.39930 0.17200
H 	H 	0.63530 0.59760 0.71870 0.16800
H 	H 	0.60700 0.68530 0.74020 0.17000
H 	H 	0.54750 0.64150 0.69500 0.17400
H 	H 	0.59200 0.48990 0.76870 0.16300
H 	H 	0.48190 0.47650 0.78030 0.17600
H 	H 	0.55030 0.52160 0.82140 0.16600
H 	H 	0.31210 0.60490 0.58010 -0.02500
H 	H 	0.39660 0.99190 0.80780 0.14900
H 	H 	0.73940 0.97930 0.86000 -0.05200
H 	H 	0.71340 0.18210 0.93840 -0.03200
H 	H 	0.13020 0.28870 0.69380 0.16500
H 	H 	0.45320 0.75630 0.85260 0.14600
H 	H 	0.80370 0.25820 0.88090 0.16800
H 	H 	0.10810 0.69560 0.70330 0.16800
H 	H 	0.49600 0.04320 0.87090 -0.03000
H 	H 	0.86860 0.36540 0.66720 0.14800
H 	H 	0.93020 0.44010 0.59540 -0.00900
H 	H 	0.18560 0.36360 0.62320 -0.00500
H 	H 	0.83410 0.05070 0.79870 0.16200
H 	H 	0.36630 0.71010 0.63980 0.16400
H 	H 	0.06030 0.60260 0.63770 -0.02500
H 	H 	0.55060 0.81810 0.91480 -0.03100
H 	H 	0.63410 0.16880 0.60510 0.15800
H 	H 	0.71830 0.23290 0.62200 0.17500
H 	H 	0.64880 0.19160 0.66400 0.16200
H 	H 	0.67850 0.05250 0.57870 0.13600
H 	H 	0.72470 0.99180 0.61850 0.13800
H 	H 	0.78990 0.04440 0.57910 0.14400
H 	H 	0.12780 0.94330 0.72260 0.16900
H 	H 	0.07950 0.99340 0.76710 0.17200
H 	H 	0.13830 0.04250 0.72350 0.16500
H 	H 	0.04860 0.89080 0.66590 0.17600
H 	H 	0.00260 0.95360 0.62730 0.16400
H 	H 	0.93740 0.90010 0.66630 0.18100
H 	H 	0.24150 0.48220 0.91220 0.15000
H 	H 	0.34820 0.51400 0.90160 0.15500
H 	H 	0.28990 0.46250 0.85880 0.16100
H 	H 	0.13830 0.57860 0.90980 0.15400
H 	H 	0.12220 0.62170 0.85580 0.16600
H 	H 	0.18140 0.67070 0.89930 0.17200
H 	H 	0.63530 0.09760 0.78130 0.16800
H 	H 	0.60700 0.18530 0.75980 0.17000
H 	H 	0.54750 0.14150 0.80500 0.17400
H 	H 	0.59200 0.98990 0.73130 0.16100
H 	H 	0.48190 0.97650 0.71970 0.17400
H 	H 	0.55030 0.02160 0.67860 0.16500
H 	H 	0.31210 0.10490 0.91990 -0.02500
H 	H 	0.39660 0.49190 0.69220 0.14800
H 	H 	0.73940 0.47930 0.64000 -0.04800
H 	H 	0.71340 0.68210 0.56160 -0.03200
H 	H 	0.13020 0.78870 0.80620 0.16200
H 	H 	0.45320 0.25630 0.64740 0.14600
H 	H 	0.80370 0.75820 0.61910 0.16600
H 	H 	0.10810 0.19560 0.79670 0.16700
H 	H 	0.49600 0.54320 0.62910 -0.03100
H 	H 	0.86860 0.86540 0.83280 0.14500
H 	H 	0.93020 0.94010 0.90460 -0.00800
H 	H 	0.18560 0.86360 0.87680 -0.00300
H 	H 	0.83410 0.55070 0.70130 0.16000
H 	H 	0.36630 0.21010 0.86020 0.16400
H 	H 	0.06030 0.10260 0.86230 -0.02700
H 	H 	0.55060 0.31810 0.58520 -0.03100
H 	H 	0.63410 0.66880 0.89490 0.15800
H 	H 	0.71830 0.73290 0.87800 0.17600
H 	H 	0.64880 0.69160 0.83600 0.16200
H 	H 	0.67850 0.55250 0.92130 0.13900
H 	H 	0.72470 0.49180 0.88150 0.14200
H 	H 	0.78990 0.54440 0.92090 0.14700
H 	H 	0.12780 0.44330 0.77740 0.17100
H 	H 	0.07950 0.49340 0.73290 0.17200
H 	H 	0.13830 0.54250 0.77650 0.16900
H 	H 	0.04860 0.39080 0.83410 0.15800
H 	H 	0.00260 0.45360 0.87270 0.14500
H 	H 	0.93740 0.40010 0.83370 0.16700
H 	H 	0.24150 0.98220 0.58780 0.15600
H 	H 	0.34820 0.01400 0.59840 0.16000
H 	H 	0.28990 0.96250 0.64120 0.16600
H 	H 	0.13830 0.07860 0.59020 0.15300
H 	H 	0.12220 0.12170 0.64420 0.16500
H 	H 	0.18140 0.17070 0.60070 0.17200
H 	H 	0.36470 0.40240 0.28130 0.16800
H 	H 	0.39300 0.31470 0.25980 0.17000
H 	H 	0.45250 0.35850 0.30500 0.17400
H 	H 	0.40800 0.51010 0.23130 0.16300
H 	H 	0.51810 0.52350 0.21970 0.17600
H 	H 	0.44970 0.47840 0.17860 0.16600
H 	H 	0.68790 0.39510 0.41990 -0.02500
H 	H 	0.60340 0.00810 0.19220 0.14900
H 	H 	0.26060 0.02070 0.14000 -0.05200
H 	H 	0.28660 0.81790 0.06160 -0.03200
H 	H 	0.86980 0.71130 0.30620 0.16500
H 	H 	0.54680 0.24370 0.14740 0.14600
H 	H 	0.19630 0.74180 0.11910 0.16800
H 	H 	0.89190 0.30440 0.29670 0.16800
H 	H 	0.50400 0.95680 0.12910 -0.03000
H 	H 	0.13140 0.63460 0.33280 0.14800
H 	H 	0.06980 0.55990 0.40460 -0.00900
H 	H 	0.81440 0.63640 0.37680 -0.00500
H 	H 	0.16590 0.94930 0.20130 0.16200
H 	H 	0.63370 0.28990 0.36020 0.16400
H 	H 	0.93970 0.39740 0.36230 -0.02500
H 	H 	0.44940 0.18190 0.08520 -0.03100
H 	H 	0.36590 0.83120 0.39490 0.15800
H 	H 	0.28170 0.76710 0.37800 0.17500
H 	H 	0.35120 0.80840 0.33600 0.16200
H 	H 	0.32150 0.94750 0.42130 0.13600
H 	H 	0.27530 0.00820 0.38150 0.13800
H 	H 	0.21010 0.95560 0.42090 0.14400
H 	H 	0.87220 0.05670 0.27740 0.16900
H 	H 	0.92050 0.00660 0.23290 0.17200
H 	H 	0.86170 0.95750 0.27650 0.16500
H 	H 	0.95140 0.10920 0.33410 0.17600
H 	H 	0.99740 0.04640 0.37270 0.16400
H 	H 	0.06260 0.09990 0.33370 0.18100
H 	H 	0.75850 0.51780 0.08780 0.15000
H 	H 	0.65180 0.48600 0.09840 0.15500
H 	H 	0.71010 0.53750 0.14120 0.16100
H 	H 	0.86170 0.42140 0.09020 0.15400
H 	H 	0.87780 0.37830 0.14420 0.16600
H 	H 	0.81860 0.32930 0.10070 0.17200
C 	C 	0.41730 0.86800 0.22630 -0.44100
C 	C 	0.46210 0.98610 0.28490 -0.43200
C 	C 	0.73100 0.87420 0.10380 0.19000
C 	C 	0.17380 0.33590 0.33300 0.36800
C 	C 	0.57170 0.54490 0.32910 -0.28900
C 	C 	0.00380 0.17790 0.18780 0.31500
C 	C 	0.24800 0.46270 0.36400 0.20400
C 	C 	0.26320 0.34510 0.40940 0.21900
C 	C 	0.91130 0.17970 0.17450 -0.31800
C 	C 	0.75550 0.78910 0.17750 0.34200
C 	C 	0.53910 0.68510 0.35520 -0.31000
C 	C 	0.20920 0.29930 0.37520 -0.35500
C 	C 	0.84890 0.82010 0.17790 -0.32800
C 	C 	0.51230 0.51510 0.36650 0.17600
C 	C 	0.06660 0.13440 0.15880 -0.28200
C 	C 	0.02850 0.08960 0.11590 0.14700
C 	C 	0.18510 0.37960 0.17200 0.14800
C 	C 	0.04820 0.44040 0.20200 0.14000
C 	C 	0.58560 0.63390 0.32240 0.31700
C 	C 	0.87870 0.13460 0.13230 0.16200
C 	C 	0.19110 0.42080 0.32670 -0.35100
C 	C 	0.69660 0.81270 0.14120 -0.33000
C 	C 	0.87620 0.87610 0.13830 0.18800
C 	C 	0.48040 0.64700 0.39200 0.18900
C 	C 	0.31910 0.31760 0.13170 -0.41400
C 	C 	0.26670 0.45530 0.10040 -0.37400
C 	C 	0.90380 0.50620 0.23090 -0.42000
C 	C 	0.00110 0.57040 0.16160 -0.38600
C 	C 	0.69040 0.88110 0.32510 0.12600
C 	C 	0.56120 0.87000 0.27570 0.13800
C 	C 	0.71400 0.99650 0.38620 -0.41900
C 	C 	0.83340 0.88380 0.38400 -0.41600
C 	C 	0.58270 0.63200 0.72630 -0.44200
C 	C 	0.53790 0.51390 0.78490 -0.43800
C 	C 	0.26900 0.62580 0.60380 0.19000
C 	C 	0.82620 0.16410 0.83300 0.37100
C 	C 	0.42830 0.95510 0.82910 -0.28900
C 	C 	0.99620 0.32210 0.68780 0.32400
C 	C 	0.75200 0.03730 0.86400 0.21100
C 	C 	0.73680 0.15490 0.90940 0.22100
C 	C 	0.08870 0.32030 0.67450 -0.32800
C 	C 	0.24450 0.71090 0.67750 0.34200
C 	C 	0.46090 0.81490 0.85520 -0.31000
C 	C 	0.79080 0.20070 0.87520 -0.35700
C 	C 	0.15110 0.67990 0.67790 -0.32800
C 	C 	0.48770 0.98490 0.86650 0.17600
C 	C 	0.93340 0.36560 0.65880 -0.28800
C 	C 	0.97150 0.41040 0.61590 0.15300
C 	C 	0.81490 0.12040 0.67200 0.14900
C 	C 	0.95180 0.05960 0.70200 0.14000
C 	C 	0.41440 0.86610 0.82240 0.31700
C 	C 	0.12130 0.36540 0.63230 0.16700
C 	C 	0.80890 0.07920 0.82670 -0.35400
C 	C 	0.30340 0.68730 0.64120 -0.33000
C 	C 	0.12380 0.62390 0.63830 0.18800
C 	C 	0.51960 0.85300 0.89200 0.18900
C 	C 	0.68090 0.18240 0.63170 -0.41300
C 	C 	0.73330 0.04470 0.60040 -0.36500
C 	C 	0.09620 0.99380 0.73090 -0.41300
C 	C 	0.99890 0.92960 0.66160 -0.43800
C 	C 	0.30960 0.61890 0.82510 0.12600
C 	C 	0.43880 0.63000 0.77570 0.13800
C 	C 	0.28600 0.50350 0.88620 -0.40400
C 	C 	0.16660 0.61620 0.88400 -0.41600
C 	C 	0.58270 0.13200 0.77370 -0.44100
C 	C 	0.53790 0.01390 0.71510 -0.43200
C 	C 	0.26900 0.12580 0.89620 0.19000
C 	C 	0.82620 0.66410 0.66700 0.36800
C 	C 	0.42830 0.45510 0.67090 -0.28900
C 	C 	0.99620 0.82210 0.81220 0.31500
C 	C 	0.75200 0.53730 0.63600 0.20400
C 	C 	0.73680 0.65490 0.59060 0.21900
C 	C 	0.08870 0.82030 0.82550 -0.31800
C 	C 	0.24450 0.21090 0.82250 0.34200
C 	C 	0.46090 0.31490 0.64480 -0.31000
C 	C 	0.79080 0.70070 0.62480 -0.35500
C 	C 	0.15110 0.17990 0.82210 -0.32800
C 	C 	0.48770 0.48490 0.63350 0.17600
C 	C 	0.93340 0.86560 0.84120 -0.28200
C 	C 	0.97150 0.91040 0.88410 0.14700
C 	C 	0.81490 0.62040 0.82800 0.14800
C 	C 	0.95180 0.55960 0.79800 0.14000
C 	C 	0.41440 0.36610 0.67760 0.31700
C 	C 	0.12130 0.86540 0.86770 0.16200
C 	C 	0.80890 0.57920 0.67330 -0.35100
C 	C 	0.30340 0.18730 0.85880 -0.33000
C 	C 	0.12380 0.12390 0.86170 0.18800
C 	C 	0.51960 0.35300 0.60800 0.18900
C 	C 	0.68090 0.68240 0.86830 -0.41400
C 	C 	0.73330 0.54470 0.89960 -0.37400
C 	C 	0.09620 0.49380 0.76910 -0.42000
C 	C 	0.99890 0.42960 0.83840 -0.38600
C 	C 	0.30960 0.11890 0.67490 0.12600
C 	C 	0.43880 0.13000 0.72430 0.13800
C 	C 	0.28600 0.00350 0.61380 -0.41900
C 	C 	0.16660 0.11620 0.61600 -0.41600
C 	C 	0.41730 0.36800 0.27370 -0.44200
C 	C 	0.46210 0.48610 0.21510 -0.43800
C 	C 	0.73100 0.37420 0.39620 0.19000
C 	C 	0.17380 0.83590 0.16700 0.37100
C 	C 	0.57170 0.04490 0.17090 -0.28900
C 	C 	0.00380 0.67790 0.31220 0.32400
C 	C 	0.24800 0.96270 0.13600 0.21100
C 	C 	0.26320 0.84510 0.09060 0.22100
C 	C 	0.91130 0.67970 0.32550 -0.32800
C 	C 	0.75550 0.28910 0.32250 0.34200
C 	C 	0.53910 0.18510 0.14480 -0.31000
C 	C 	0.20920 0.79930 0.12480 -0.35700
C 	C 	0.84890 0.32010 0.32210 -0.32800
C 	C 	0.51230 0.01510 0.13350 0.17600
C 	C 	0.06660 0.63440 0.34120 -0.28800
C 	C 	0.02850 0.58960 0.38410 0.15300
C 	C 	0.18510 0.87960 0.32800 0.14900
C 	C 	0.04820 0.94040 0.29800 0.14000
C 	C 	0.58560 0.13390 0.17760 0.31700
C 	C 	0.87870 0.63460 0.36770 0.16700
C 	C 	0.19110 0.92080 0.17330 -0.35400
C 	C 	0.69660 0.31270 0.35880 -0.33000
C 	C 	0.87620 0.37610 0.36170 0.18800
C 	C 	0.48040 0.14700 0.10800 0.18900
C 	C 	0.31910 0.81760 0.36830 -0.41300
C 	C 	0.26670 0.95530 0.39960 -0.36500
C 	C 	0.90380 0.00620 0.26910 -0.41300
C 	C 	0.00110 0.07040 0.33840 -0.43800
C 	C 	0.69040 0.38110 0.17490 0.12600
C 	C 	0.56120 0.37000 0.22430 0.13800
C 	C 	0.71400 0.49650 0.11380 -0.40400
C 	C 	0.83340 0.38380 0.11600 -0.41600
N 	N 	0.93550 0.08760 0.10310 -0.23800
N 	N 	0.81890 0.90110 0.10180 -0.26200
N 	N 	0.46450 0.56490 0.39770 -0.25900
N 	N 	0.28470 0.42660 0.40380 -0.27000
N 	N 	0.25630 0.38720 0.13740 -0.03500
N 	N 	0.98900 0.50280 0.20030 -0.03100
N 	N 	0.74700 0.91740 0.36460 -0.02500
N 	N 	0.47720 0.90880 0.26230 -0.00500
N 	N 	0.02180 0.37880 0.23700 -0.17300
N 	N 	0.18030 0.31200 0.20420 -0.17500
N 	N 	0.12630 0.44350 0.17150 -0.15900
N 	N 	0.72710 0.80750 0.30510 -0.16800
N 	N 	0.56730 0.79840 0.24890 -0.17300
N 	N 	0.60650 0.91370 0.31030 -0.16100
N 	N 	0.06450 0.41240 0.60310 -0.24200
N 	N 	0.18110 0.59890 0.60180 -0.26200
N 	N 	0.53550 0.93510 0.89770 -0.25900
N 	N 	0.71530 0.07340 0.90380 -0.27100
N 	N 	0.74370 0.11280 0.63740 -0.03600
N 	N 	0.01100 0.99720 0.70030 -0.02300
N 	N 	0.25300 0.58260 0.86460 -0.02600
N 	N 	0.52280 0.59120 0.76230 -0.00400
N 	N 	0.97820 0.12120 0.73700 -0.17200
N 	N 	0.81970 0.18800 0.70420 -0.17500
N 	N 	0.87370 0.05650 0.67150 -0.15800
N 	N 	0.27290 0.69250 0.80510 -0.16800
N 	N 	0.43270 0.70160 0.74890 -0.17300
N 	N 	0.39350 0.58630 0.81030 -0.16100
N 	N 	0.06450 0.91240 0.89690 -0.23800
N 	N 	0.18110 0.09890 0.89820 -0.26200
N 	N 	0.53550 0.43510 0.60230 -0.25900
N 	N 	0.71530 0.57340 0.59620 -0.27000
N 	N 	0.74370 0.61280 0.86260 -0.03500
N 	N 	0.01100 0.49720 0.79970 -0.03100
N 	N 	0.25300 0.08260 0.63540 -0.02500
N 	N 	0.52280 0.09120 0.73770 -0.00500
N 	N 	0.97820 0.62120 0.76300 -0.17300
N 	N 	0.81970 0.68800 0.79580 -0.17500
N 	N 	0.87370 0.55650 0.82850 -0.15900
N 	N 	0.27290 0.19250 0.69490 -0.16800
N 	N 	0.43270 0.20160 0.75110 -0.17300
N 	N 	0.39350 0.08630 0.68970 -0.16100
N 	N 	0.93550 0.58760 0.39690 -0.24200
N 	N 	0.81890 0.40110 0.39820 -0.26200
N 	N 	0.46450 0.06490 0.10230 -0.25900
N 	N 	0.28470 0.92660 0.09620 -0.27100
N 	N 	0.25630 0.88720 0.36260 -0.03600
N 	N 	0.98900 0.00280 0.29970 -0.02300
N 	N 	0.74700 0.41740 0.13540 -0.02600
N 	N 	0.47720 0.40880 0.23770 -0.00400
N 	N 	0.02180 0.87880 0.26300 -0.17200
N 	N 	0.18030 0.81200 0.29580 -0.17500
N 	N 	0.12630 0.94350 0.32850 -0.15800
N 	N 	0.72710 0.30750 0.19490 -0.16800
N 	N 	0.56730 0.29840 0.25110 -0.17300
N 	N 	0.60650 0.41370 0.18970 -0.16100
Cl	Cl	0.71660 0.07894 0.04026 -0.60000
Cl	Cl	0.76827 0.89433 0.96923 -0.58900
Cl	Cl	0.96497 0.08706 0.96512 -0.58400
Cl	Cl	0.51158 0.89367 0.02768 -0.57600
Cl	Cl	0.28340 0.42106 0.54026 -0.60000
Cl	Cl	0.23173 0.60567 0.46923 -0.58800
Cl	Cl	0.03503 0.41294 0.46512 -0.59000
Cl	Cl	0.48842 0.60633 0.52768 -0.57700
Cl	Cl	0.28340 0.92106 0.95974 -0.60000
Cl	Cl	0.23173 0.10567 0.03077 -0.58900
Cl	Cl	0.03503 0.91294 0.03488 -0.58400
Cl	Cl	0.48842 0.10633 0.97232 -0.57600
Cl	Cl	0.71660 0.57894 0.45974 -0.60000
Cl	Cl	0.76827 0.39433 0.53077 -0.58800
Cl	Cl	0.96497 0.58706 0.53488 -0.59000
Cl	Cl	0.51158 0.39367 0.47232 -0.57700
O 	O 	0.03570 0.21220 0.23570 -0.28600
O 	O 	0.11890 0.28390 0.29980 -0.30100
O 	O 	0.64600 0.65860 0.28200 -0.29200
O 	O 	0.72390 0.72950 0.21580 -0.30100
O 	O 	0.96430 0.28780 0.73570 -0.28600
O 	O 	0.88110 0.21610 0.79980 -0.30100
O 	O 	0.35400 0.84140 0.78200 -0.29200
O 	O 	0.27610 0.77050 0.71580 -0.30100
O 	O 	0.96430 0.78780 0.76430 -0.28600
O 	O 	0.88110 0.71610 0.70020 -0.30100
O 	O 	0.35400 0.34140 0.71800 -0.29200
O 	O 	0.27610 0.27050 0.78420 -0.30100
O 	O 	0.03570 0.71220 0.26430 -0.28600
O 	O 	0.11890 0.78390 0.20020 -0.30100
O 	O 	0.64600 0.15860 0.21800 -0.29200
O 	O 	0.72390 0.22950 0.28420 -0.30100
