data_crystal

_cell_length_a 14.19600
_cell_length_b 15.36700
_cell_length_c 16.61500
_cell_angle_alpha 76.16700
_cell_angle_beta  87.91900
_cell_angle_gamma 64.59500

_symmetry_space_group_name_	'P 1'
_symmetry_space_group_name_H-M	'P 1'

loop_
_symmetry_equiv_pos_as_xyz
  x,y,z

loop_
_atom_site_label
_atom_site_type_symbol
_atom_site_fract_x
_atom_site_fract_y
_atom_site_fract_z
_atom_site_charge
Cd	Cd	0.49966 0.44044 0.32159 1.24200
Cd	Cd	0.65446 0.43714 0.50947 1.21900
Cd	Cd	0.45686 0.56866 0.08798 1.23600
Cd	Cd	0.50034 0.55956 0.67841 1.24200
Cd	Cd	0.34554 0.56286 0.49053 1.21800
Cd	Cd	0.54314 0.43134 0.91202 1.23500
P 	P 	0.44700 0.02648 0.19921 0.36300
P 	P 	0.01430 0.99549 0.82897 0.36400
P 	P 	0.55300 0.97352 0.80079 0.36300
P 	P 	0.98570 0.00451 0.17103 0.36400
H 	H 	0.15390 0.16950 0.16630 0.17700
H 	H 	0.05510 0.17980 0.21590 0.17300
H 	H 	0.10930 0.24910 0.21860 0.16400
H 	H 	0.15550 0.13270 0.40670 0.14100
H 	H 	0.07250 0.11100 0.36610 0.14200
H 	H 	0.18090 0.02370 0.40400 0.14400
H 	H 	0.49210 0.79870 0.52920 0.18000
H 	H 	0.45490 0.91130 0.52670 0.15600
H 	H 	0.38430 0.87830 0.48290 0.17000
H 	H 	0.65370 0.83010 0.46620 0.15700
H 	H 	0.63460 0.74790 0.43870 0.18000
H 	H 	0.64840 0.83190 0.37170 0.15900
H 	H 	0.47390 0.82430 0.24390 0.14900
H 	H 	0.47430 0.68120 0.22380 -0.00700
H 	H 	0.45490 0.77720 0.98490 -0.01100
H 	H 	0.45790 0.92200 0.99590 0.16700
H 	H 	0.33570 0.24860 0.19940 0.14800
H 	H 	0.34670 0.36320 0.26240 -0.00300
H 	H 	0.64980 0.23880 0.26900 -0.01500
H 	H 	0.64930 0.12210 0.20610 0.15100
H 	H 	0.66910 0.23070 0.60010 -0.02400
H 	H 	0.74950 0.09280 0.70750 0.16100
H 	H 	0.92500 0.21520 0.76860 0.15300
H 	H 	0.84150 0.34710 0.65570 -0.03300
H 	H 	0.15800 0.75610 0.83940 0.14100
H 	H 	0.08400 0.87250 0.03780 0.15200
H 	H 	0.09110 0.98890 0.55880 0.14800
H 	H 	0.20220 0.89880 0.57510 0.17000
H 	H 	0.11580 0.89940 0.63670 0.16700
H 	H 	0.28570 0.03940 0.65710 0.15100
H 	H 	0.30110 0.98650 0.58460 0.14000
H 	H 	0.21190 0.09410 0.57520 0.13700
H 	H 	0.11820 0.08470 0.98130 0.19400
H 	H 	0.21460 0.10600 0.99340 0.18200
H 	H 	0.10850 0.19310 0.95060 0.17800
H 	H 	0.22350 0.21190 0.80760 0.16400
H 	H 	0.31060 0.13710 0.87790 0.17700
H 	H 	0.29780 0.10530 0.79760 0.17400
H 	H 	0.24100 0.75080 0.10490 -0.00500
H 	H 	0.31570 0.63980 0.91180 -0.00700
H 	H 	0.84610 0.83050 0.83370 0.17700
H 	H 	0.94490 0.82020 0.78410 0.17300
H 	H 	0.89070 0.75090 0.78140 0.16400
H 	H 	0.84450 0.86730 0.59330 0.14100
H 	H 	0.92750 0.88900 0.63390 0.14200
H 	H 	0.81910 0.97630 0.59600 0.14400
H 	H 	0.50790 0.20130 0.47080 0.18000
H 	H 	0.54510 0.08870 0.47330 0.15600
H 	H 	0.61570 0.12170 0.51710 0.17000
H 	H 	0.34630 0.16990 0.53380 0.15700
H 	H 	0.36540 0.25210 0.56130 0.18000
H 	H 	0.35160 0.16810 0.62830 0.15900
H 	H 	0.52610 0.17570 0.75610 0.14900
H 	H 	0.52570 0.31880 0.77620 -0.00700
H 	H 	0.54510 0.22280 0.01510 -0.01100
H 	H 	0.54210 0.07800 0.00410 0.16700
H 	H 	0.66430 0.75140 0.80060 0.14800
H 	H 	0.65330 0.63680 0.73760 -0.00300
H 	H 	0.35020 0.76120 0.73100 -0.01500
H 	H 	0.35070 0.87790 0.79390 0.15100
H 	H 	0.33090 0.76930 0.39990 -0.02400
H 	H 	0.25050 0.90720 0.29250 0.16100
H 	H 	0.07500 0.78480 0.23140 0.15300
H 	H 	0.15850 0.65290 0.34430 -0.03300
H 	H 	0.84200 0.24390 0.16060 0.14100
H 	H 	0.91600 0.12750 0.96220 0.15200
H 	H 	0.90890 0.01110 0.44120 0.14800
H 	H 	0.79780 0.10120 0.42490 0.17000
H 	H 	0.88420 0.10060 0.36330 0.16700
H 	H 	0.71430 0.96060 0.34290 0.15100
H 	H 	0.69890 0.01350 0.41540 0.14000
H 	H 	0.78810 0.90590 0.42480 0.13700
H 	H 	0.88180 0.91530 0.01870 0.19400
H 	H 	0.78540 0.89400 0.00660 0.18200
H 	H 	0.89150 0.80690 0.04940 0.17800
H 	H 	0.77650 0.78810 0.19240 0.16400
H 	H 	0.68940 0.86290 0.12210 0.17700
H 	H 	0.70220 0.89470 0.20240 0.17400
H 	H 	0.75900 0.24920 0.89510 -0.00500
H 	H 	0.68430 0.36020 0.08820 -0.00700
C 	C 	0.29350 0.05810 0.28350 0.14800
C 	C 	0.45520 0.94730 0.34830 0.14700
C 	C 	0.12090 0.18360 0.21610 -0.42000
C 	C 	0.14580 0.09240 0.37470 -0.37700
C 	C 	0.45500 0.86560 0.49610 -0.41900
C 	C 	0.62090 0.81680 0.42410 -0.41700
C 	C 	0.46630 0.88920 0.12120 0.30600
C 	C 	0.47070 0.81620 0.19050 -0.28800
C 	C 	0.47010 0.73100 0.17740 0.16700
C 	C 	0.45930 0.78680 0.03760 0.17200
C 	C 	0.46070 0.87420 0.04340 -0.28900
C 	C 	0.49150 0.17320 0.19800 0.31100
C 	C 	0.40010 0.24530 0.21340 -0.27700
C 	C 	0.40800 0.31340 0.25100 0.16000
C 	C 	0.58610 0.24060 0.25490 0.17000
C 	C 	0.58690 0.17040 0.21780 -0.28900
C 	C 	0.72240 0.22700 0.63360 0.19100
C 	C 	0.76950 0.14440 0.69850 -0.31400
C 	C 	0.84590 0.13910 0.74960 0.33200
C 	C 	0.87390 0.21580 0.73470 -0.30500
C 	C 	0.82280 0.29470 0.66690 0.18600
C 	C 	0.10780 0.82750 0.93160 0.28700
C 	C 	0.17480 0.75700 0.89270 -0.26800
C 	C 	0.13030 0.82610 0.01120 -0.27900
C 	C 	0.13660 0.00690 0.72130 0.14900
C 	C 	0.14080 0.06640 0.83560 0.14600
C 	C 	0.14400 0.93990 0.60090 -0.41200
C 	C 	0.25050 0.03080 0.61340 -0.38100
C 	C 	0.15440 0.12390 0.95740 -0.45000
C 	C 	0.26120 0.14320 0.83650 -0.42600
C 	C 	0.22470 0.75310 0.05050 0.15700
C 	C 	0.26850 0.68740 0.93700 0.14900
C 	C 	0.70650 0.94190 0.71650 0.14800
C 	C 	0.54480 0.05270 0.65170 0.14700
C 	C 	0.87910 0.81640 0.78390 -0.42000
C 	C 	0.85420 0.90760 0.62530 -0.37700
C 	C 	0.54500 0.13440 0.50390 -0.41900
C 	C 	0.37910 0.18320 0.57590 -0.41700
C 	C 	0.53370 0.11080 0.87880 0.30600
C 	C 	0.52930 0.18380 0.80950 -0.28800
C 	C 	0.52990 0.26900 0.82260 0.16700
C 	C 	0.54070 0.21320 0.96240 0.17200
C 	C 	0.53930 0.12580 0.95660 -0.28900
C 	C 	0.50850 0.82680 0.80200 0.31100
C 	C 	0.59990 0.75470 0.78660 -0.27700
C 	C 	0.59200 0.68660 0.74900 0.16000
C 	C 	0.41390 0.75940 0.74510 0.17000
C 	C 	0.41310 0.82960 0.78220 -0.28900
C 	C 	0.27760 0.77300 0.36640 0.19100
C 	C 	0.23050 0.85560 0.30150 -0.31400
C 	C 	0.15410 0.86090 0.25040 0.33200
C 	C 	0.12610 0.78420 0.26530 -0.30500
C 	C 	0.17720 0.70530 0.33310 0.18600
C 	C 	0.89220 0.17250 0.06840 0.28700
C 	C 	0.82520 0.24300 0.10730 -0.26800
C 	C 	0.86970 0.17390 0.98880 -0.27900
C 	C 	0.86340 0.99310 0.27870 0.14900
C 	C 	0.85920 0.93360 0.16440 0.14600
C 	C 	0.85600 0.06010 0.39910 -0.41200
C 	C 	0.74950 0.96920 0.38660 -0.38100
C 	C 	0.84560 0.87610 0.04260 -0.45000
C 	C 	0.73880 0.85680 0.16350 -0.42600
C 	C 	0.77530 0.24690 0.94950 0.15700
C 	C 	0.73150 0.31260 0.06300 0.14900
N 	N 	0.51350 0.95500 0.28380 -0.17900
N 	N 	0.35290 0.99630 0.35230 -0.16300
N 	N 	0.32600 0.07820 0.20630 -0.17100
N 	N 	0.50760 0.87870 0.41770 -0.03200
N 	N 	0.19110 0.10800 0.29140 -0.04500
N 	N 	0.46400 0.71540 0.10310 -0.24500
N 	N 	0.49900 0.31150 0.27180 -0.24600
N 	N 	0.74890 0.30000 0.61690 -0.26800
N 	N 	0.06280 0.97420 0.74470 -0.17400
N 	N 	0.17530 0.05050 0.76180 -0.16300
N 	N 	0.06600 0.04510 0.87530 -0.17200
N 	N 	0.17840 0.98890 0.64920 -0.03600
N 	N 	0.18740 0.10560 0.87670 -0.02200
N 	N 	0.29390 0.68570 0.01440 -0.23700
N 	N 	0.48650 0.04500 0.71620 -0.17900
N 	N 	0.64710 0.00370 0.64770 -0.16300
N 	N 	0.67400 0.92180 0.79370 -0.17100
N 	N 	0.49240 0.12130 0.58230 -0.03200
N 	N 	0.80890 0.89200 0.70860 -0.04500
N 	N 	0.53600 0.28460 0.89690 -0.24500
N 	N 	0.50100 0.68850 0.72820 -0.24600
N 	N 	0.25110 0.70000 0.38310 -0.26800
N 	N 	0.93720 0.02580 0.25530 -0.17400
N 	N 	0.82470 0.94950 0.23820 -0.16300
N 	N 	0.93400 0.95490 0.12470 -0.17200
N 	N 	0.82160 0.01110 0.35080 -0.03600
N 	N 	0.81260 0.89440 0.12330 -0.02200
N 	N 	0.70610 0.31430 0.98560 -0.23700
Cl	Cl	0.66254 0.31540 0.42252 -0.63700
Cl	Cl	0.50947 0.57236 0.39623 -0.70500
Cl	Cl	0.61718 0.46933 0.20113 -0.58000
Cl	Cl	0.34519 0.56878 0.21661 -0.59100
Cl	Cl	0.35394 0.42842 0.42229 -0.62300
Cl	Cl	0.55681 0.57851 0.95306 -0.59500
Cl	Cl	0.33746 0.68460 0.57748 -0.63700
Cl	Cl	0.49053 0.42764 0.60377 -0.70500
Cl	Cl	0.38282 0.53067 0.79887 -0.58000
Cl	Cl	0.65481 0.43122 0.78339 -0.59100
Cl	Cl	0.64606 0.57158 0.57771 -0.62300
Cl	Cl	0.44319 0.42149 0.04694 -0.59500
O 	O 	0.47500 0.97500 0.12320 -0.29000
O 	O 	0.49210 0.10410 0.15630 -0.28200
O 	O 	0.88990 0.05610 0.81620 -0.28700
O 	O 	0.01120 0.90000 0.89030 -0.28900
O 	O 	0.52500 0.02500 0.87680 -0.29000
O 	O 	0.50790 0.89590 0.84370 -0.28200
O 	O 	0.11010 0.94390 0.18380 -0.28700
O 	O 	0.98880 0.10000 0.10970 -0.28900
