data_crystal

_cell_length_a 13.96600
_cell_length_b 16.69200
_cell_length_c 9.64060
_cell_angle_alpha 90.00000
_cell_angle_beta  90.00000
_cell_angle_gamma 90.00000

_symmetry_space_group_name_	'P 1'
_symmetry_space_group_name_H-M	'P 1'

loop_
_symmetry_equiv_pos_as_xyz
  x,y,z

loop_
_atom_site_label
_atom_site_type_symbol
_atom_site_fract_x
_atom_site_fract_y
_atom_site_fract_z
_atom_site_charge
O 	O 	0.09982 0.08558 0.38468 -0.47700
C 	C 	0.08350 0.03960 0.08030 -0.10300
H 	H 	0.05680 0.10950 0.11290 -0.61300
H 	H 	0.08500 0.09500 0.11410 0.61600
H 	H 	0.14110 0.01240 0.11410 -0.18100
C 	C 	0.21970 0.21683 0.37660 -0.00800
H 	H 	0.19920 0.19470 0.29200 0.04400
O 	O 	0.59982 0.58558 0.38468 -0.47100
C 	C 	0.58350 0.53960 0.08030 -0.03000
H 	H 	0.55680 0.60950 0.11290 -0.01000
H 	H 	0.58500 0.59500 0.11410 0.05000
H 	H 	0.64110 0.51240 0.11410 0.02600
C 	C 	0.71970 0.71683 0.37660 -0.00500
H 	H 	0.69920 0.69470 0.29200 0.04600
O 	O 	0.90018 0.91442 0.38468 -0.46800
C 	C 	0.91650 0.96040 0.08030 0.16400
H 	H 	0.94320 0.89050 0.11290 1.26000
H 	H 	0.91500 0.90500 0.11410 -1.22500
H 	H 	0.85890 0.98760 0.11410 0.76800
C 	C 	0.78030 0.78317 0.37660 -0.02200
H 	H 	0.80080 0.80530 0.29200 0.05600
O 	O 	0.40018 0.41442 0.38468 -0.47000
C 	C 	0.41650 0.46040 0.08030 -0.01200
H 	H 	0.44320 0.39050 0.11290 0.05000
H 	H 	0.41500 0.40500 0.11410 -0.01200
H 	H 	0.35890 0.48760 0.11410 0.01000
C 	C 	0.28030 0.28317 0.37660 -0.01700
H 	H 	0.30080 0.30530 0.29200 0.05000
O 	O 	0.90018 0.08558 0.61532 -0.41900
C 	C 	0.91650 0.03960 0.91970 0.09700
H 	H 	0.94320 0.10950 0.88710 -0.18100
H 	H 	0.91500 0.09500 0.88590 0.21000
H 	H 	0.85890 0.01240 0.88590 -0.76600
C 	C 	0.78030 0.21683 0.62340 -0.02600
H 	H 	0.80080 0.19470 0.70800 0.07100
O 	O 	0.40018 0.58558 0.61532 -0.47100
C 	C 	0.41650 0.53960 0.91970 -0.01100
H 	H 	0.44320 0.60950 0.88710 0.05500
H 	H 	0.41500 0.59500 0.88590 -0.02000
H 	H 	0.35890 0.51240 0.88590 0.02100
C 	C 	0.28030 0.71683 0.62340 -0.03700
H 	H 	0.30080 0.69470 0.70800 0.05100
O 	O 	0.09982 0.91442 0.61532 -0.51700
C 	C 	0.08350 0.96040 0.91970 -0.41000
H 	H 	0.05680 0.89050 0.88710 -0.80200
H 	H 	0.08500 0.90500 0.88590 0.91200
H 	H 	0.14110 0.98760 0.88590 0.28000
C 	C 	0.21970 0.78317 0.62340 0.01000
H 	H 	0.19920 0.80530 0.70800 0.02100
O 	O 	0.59982 0.41442 0.61532 -0.47000
C 	C 	0.58350 0.46040 0.91970 -0.03100
H 	H 	0.55680 0.39050 0.88710 -0.01500
H 	H 	0.58500 0.40500 0.88590 0.05800
H 	H 	0.64110 0.48760 0.88590 0.01500
C 	C 	0.71970 0.28317 0.62340 0.00700
H 	H 	0.69920 0.30530 0.70800 0.04800
O 	O 	0.90018 0.91442 0.61532 -0.46800
C 	C 	0.91650 0.96040 0.91970 0.16400
H 	H 	0.94320 0.89050 0.88710 1.26000
H 	H 	0.91500 0.90500 0.88590 -1.22500
H 	H 	0.85890 0.98760 0.88590 0.76800
C 	C 	0.78030 0.78317 0.62340 -0.02200
H 	H 	0.80080 0.80530 0.70800 0.05600
O 	O 	0.40018 0.41442 0.61532 -0.47000
C 	C 	0.41650 0.46040 0.91970 -0.01200
H 	H 	0.44320 0.39050 0.88710 0.05000
H 	H 	0.41500 0.40500 0.88590 -0.01200
H 	H 	0.35890 0.48760 0.88590 0.01000
C 	C 	0.28030 0.28317 0.62340 -0.01700
H 	H 	0.30080 0.30530 0.70800 0.05000
O 	O 	0.09982 0.08558 0.61532 -0.47600
C 	C 	0.08350 0.03960 0.91970 -0.10200
H 	H 	0.05680 0.10950 0.88710 -0.61200
H 	H 	0.08500 0.09500 0.88590 0.61700
H 	H 	0.14110 0.01240 0.88590 -0.18000
C 	C 	0.21970 0.21683 0.62340 -0.00700
H 	H 	0.19920 0.19470 0.70800 0.04400
O 	O 	0.59982 0.58558 0.61532 -0.47100
C 	C 	0.58350 0.53960 0.91970 -0.03000
H 	H 	0.55680 0.60950 0.88710 -0.01000
H 	H 	0.58500 0.59500 0.88590 0.05000
H 	H 	0.64110 0.51240 0.88590 0.02600
C 	C 	0.71970 0.71683 0.62340 -0.00500
H 	H 	0.69920 0.69470 0.70800 0.04600
O 	O 	0.09982 0.91442 0.38468 -0.51700
C 	C 	0.08350 0.96040 0.08030 -0.41000
H 	H 	0.05680 0.89050 0.11290 -0.80200
H 	H 	0.08500 0.90500 0.11410 0.91200
H 	H 	0.14110 0.98760 0.11410 0.28000
C 	C 	0.21970 0.78317 0.37660 0.01000
H 	H 	0.19920 0.80530 0.29200 0.02100
O 	O 	0.59982 0.41442 0.38468 -0.47000
C 	C 	0.58350 0.46040 0.08030 -0.03100
H 	H 	0.55680 0.39050 0.11290 -0.01500
H 	H 	0.58500 0.40500 0.11410 0.05800
H 	H 	0.64110 0.48760 0.11410 0.01500
C 	C 	0.71970 0.28317 0.37660 0.00700
H 	H 	0.69920 0.30530 0.29200 0.04800
O 	O 	0.90018 0.08558 0.38468 -0.41900
C 	C 	0.91650 0.03960 0.08030 0.09700
H 	H 	0.94320 0.10950 0.11290 -0.18100
H 	H 	0.91500 0.09500 0.11410 0.21000
H 	H 	0.85890 0.01240 0.11410 -0.76600
C 	C 	0.78030 0.21683 0.37660 -0.02600
H 	H 	0.80080 0.19470 0.29200 0.07100
O 	O 	0.40018 0.58558 0.38468 -0.47100
C 	C 	0.41650 0.53960 0.08030 -0.01100
H 	H 	0.44320 0.60950 0.11290 0.05500
H 	H 	0.41500 0.59500 0.11410 -0.02000
H 	H 	0.35890 0.51240 0.11410 0.02100
C 	C 	0.28030 0.71683 0.37660 -0.03700
H 	H 	0.30080 0.69470 0.29200 0.05100
Zn	Zn	0.00000 -0.00000 0.34767 1.21300
N 	N 	-0.00000 -0.00000 0.13360 -0.18600
Zn	Zn	0.50000 0.50000 0.34767 1.21600
N 	N 	0.50000 0.50000 0.13360 -0.19600
Zn	Zn	0.00000 0.00000 0.65233 1.21300
N 	N 	0.00000 0.00000 0.86640 -0.18600
Zn	Zn	0.50000 0.50000 0.65233 1.21600
N 	N 	0.50000 0.50000 0.86640 -0.19600
C 	C 	0.12460 0.11202 0.50000 0.40100
C 	C 	0.18964 0.18333 0.50000 -0.09000
C 	C 	0.62460 0.61202 0.50000 0.40100
C 	C 	0.68964 0.68333 0.50000 -0.08900
C 	C 	0.87540 0.88798 0.50000 0.39200
C 	C 	0.81036 0.81667 0.50000 -0.07500
C 	C 	0.37540 0.38798 0.50000 0.39600
C 	C 	0.31036 0.31667 0.50000 -0.08100
C 	C 	0.87540 0.11202 0.50000 0.38500
C 	C 	0.81036 0.18333 0.50000 -0.05200
C 	C 	0.37540 0.61202 0.50000 0.39100
C 	C 	0.31036 0.68333 0.50000 -0.07200
C 	C 	0.12460 0.88798 0.50000 0.41600
C 	C 	0.18964 0.81667 0.50000 -0.12100
C 	C 	0.62460 0.38798 0.50000 0.40400
C 	C 	0.68964 0.31667 0.50000 -0.09200
C 	C 	-0.00000 0.08100 0.07920 0.21300
C 	C 	0.50000 0.58100 0.07920 -0.03000
C 	C 	-0.00000 0.91900 0.07920 -0.16200
C 	C 	0.50000 0.41900 0.07920 -0.02400
C 	C 	0.00000 0.08100 0.92080 0.21300
C 	C 	0.50000 0.58100 0.92080 -0.03000
C 	C 	-0.00000 0.91900 0.92080 -0.16200
C 	C 	0.50000 0.41900 0.92080 -0.02400
