data_crystal

_cell_length_a 13.57790
_cell_length_b 16.98820
_cell_length_c 9.61920
_cell_angle_alpha 90.00000
_cell_angle_beta  90.00000
_cell_angle_gamma 90.00000

_symmetry_space_group_name_	'P 1'
_symmetry_space_group_name_H-M	'P 1'

loop_
_symmetry_equiv_pos_as_xyz
  x,y,z

loop_
_atom_site_label
_atom_site_type_symbol
_atom_site_fract_x
_atom_site_fract_y
_atom_site_fract_z
_atom_site_charge
O 	O 	0.60181 0.58433 0.38470 -0.26900
C 	C 	0.72000 0.71693 0.62750 -0.17000
H 	H 	0.69860 0.69460 0.71300 0.31800
H 	H 	0.44100 0.39130 0.11420 -1.67300
C 	C 	0.41270 0.45910 0.07990 -0.49600
H 	H 	0.35250 0.48550 0.11430 -0.05600
H 	H 	0.41220 0.40410 0.11430 1.70600
O 	O 	0.10181 0.08433 0.38470 -0.73900
C 	C 	0.22000 0.21693 0.62750 -0.67200
H 	H 	0.19860 0.19460 0.71300 0.32200
H 	H 	0.94100 0.89130 0.11420 -46.95500
C 	C 	0.91270 0.95910 0.07990 -12.13900
H 	H 	0.85250 0.98550 0.11430 1.04000
H 	H 	0.91220 0.90410 0.11430 50.07000
O 	O 	0.39819 0.41567 0.38470 -0.66000
C 	C 	0.28000 0.28307 0.62750 0.15100
H 	H 	0.30140 0.30540 0.71300 -0.21100
H 	H 	0.55900 0.60870 0.11420 1.78000
C 	C 	0.58730 0.54090 0.07990 0.49500
H 	H 	0.64750 0.51450 0.11430 0.11100
H 	H 	0.58780 0.59590 0.11430 -1.72900
O 	O 	0.89819 0.91567 0.38470 0.67700
C 	C 	0.78000 0.78307 0.62750 0.66300
H 	H 	0.80140 0.80540 0.71300 -0.27300
H 	H 	0.05900 0.10870 0.11420 28.25700
C 	C 	0.08730 0.04090 0.07990 6.87500
H 	H 	0.14750 0.01450 0.11430 0.04600
H 	H 	0.08780 0.09590 0.11430 -29.98700
O 	O 	0.39819 0.58433 0.61530 -0.66100
C 	C 	0.28000 0.71693 0.37250 0.15400
H 	H 	0.30140 0.69460 0.28700 -0.21300
H 	H 	0.55900 0.39130 0.88580 1.78100
C 	C 	0.58730 0.45910 0.92010 0.49300
H 	H 	0.64750 0.48550 0.88570 0.11400
H 	H 	0.58780 0.40410 0.88570 -1.72900
O 	O 	0.89819 0.08433 0.61530 0.68400
C 	C 	0.78000 0.21693 0.37250 0.67000
H 	H 	0.80140 0.19460 0.28700 -0.28100
H 	H 	0.05900 0.89130 0.88580 27.60300
C 	C 	0.08730 0.95910 0.92010 7.07800
H 	H 	0.14750 0.98550 0.88570 -1.29400
H 	H 	0.08780 0.90410 0.88570 -29.38600
O 	O 	0.60181 0.41567 0.61530 -0.27000
C 	C 	0.72000 0.28307 0.37250 -0.17500
H 	H 	0.69860 0.30540 0.28700 0.31900
H 	H 	0.44100 0.60870 0.88580 -1.67600
C 	C 	0.41270 0.54090 0.92010 -0.49500
H 	H 	0.35250 0.51450 0.88570 -0.05900
H 	H 	0.41220 0.59590 0.88570 1.70600
O 	O 	0.10181 0.91567 0.61530 -0.76000
C 	C 	0.22000 0.78307 0.37250 -0.67900
H 	H 	0.19860 0.80540 0.28700 0.32800
H 	H 	0.94100 0.10870 0.88580 -46.56700
C 	C 	0.91270 0.04090 0.92010 -12.25100
H 	H 	0.85250 0.01450 0.88570 1.92000
H 	H 	0.91220 0.09590 0.88570 49.70800
O 	O 	0.39819 0.41567 0.61530 -0.66000
C 	C 	0.28000 0.28307 0.37250 0.15100
H 	H 	0.30140 0.30540 0.28700 -0.21100
H 	H 	0.55900 0.60870 0.88580 1.78000
C 	C 	0.58730 0.54090 0.92010 0.49500
H 	H 	0.64750 0.51450 0.88570 0.11100
H 	H 	0.58780 0.59590 0.88570 -1.72900
O 	O 	0.89819 0.91567 0.61530 0.67700
C 	C 	0.78000 0.78307 0.37250 0.66300
H 	H 	0.80140 0.80540 0.28700 -0.27300
H 	H 	0.05900 0.10870 0.88580 28.25700
C 	C 	0.08730 0.04090 0.92010 6.87500
H 	H 	0.14750 0.01450 0.88570 0.04600
H 	H 	0.08780 0.09590 0.88570 -29.98700
O 	O 	0.60181 0.58433 0.61530 -0.27000
C 	C 	0.72000 0.71693 0.37250 -0.17100
H 	H 	0.69860 0.69460 0.28700 0.31700
H 	H 	0.44100 0.39130 0.88580 -1.67400
C 	C 	0.41270 0.45910 0.92010 -0.49700
H 	H 	0.35250 0.48550 0.88570 -0.05700
H 	H 	0.41220 0.40410 0.88570 1.70500
O 	O 	0.10181 0.08433 0.61530 -0.74000
C 	C 	0.22000 0.21693 0.37250 -0.67200
H 	H 	0.19860 0.19460 0.28700 0.32200
H 	H 	0.94100 0.89130 0.88580 -46.95500
C 	C 	0.91270 0.95910 0.92010 -12.13900
H 	H 	0.85250 0.98550 0.88570 1.04000
H 	H 	0.91220 0.90410 0.88570 50.07000
O 	O 	0.60181 0.41567 0.38470 -0.27000
C 	C 	0.72000 0.28307 0.62750 -0.17500
H 	H 	0.69860 0.30540 0.71300 0.31900
H 	H 	0.44100 0.60870 0.11420 -1.67600
C 	C 	0.41270 0.54090 0.07990 -0.49500
H 	H 	0.35250 0.51450 0.11430 -0.05900
H 	H 	0.41220 0.59590 0.11430 1.70600
O 	O 	0.10181 0.91567 0.38470 -0.76000
C 	C 	0.22000 0.78307 0.62750 -0.67900
H 	H 	0.19860 0.80540 0.71300 0.32800
H 	H 	0.94100 0.10870 0.11420 -46.56700
C 	C 	0.91270 0.04090 0.07990 -12.25100
H 	H 	0.85250 0.01450 0.11430 1.92000
H 	H 	0.91220 0.09590 0.11430 49.70800
O 	O 	0.39819 0.58433 0.38470 -0.66100
C 	C 	0.28000 0.71693 0.62750 0.15400
H 	H 	0.30140 0.69460 0.71300 -0.21300
H 	H 	0.55900 0.39130 0.11420 1.78100
C 	C 	0.58730 0.45910 0.07990 0.49300
H 	H 	0.64750 0.48550 0.11430 0.11400
H 	H 	0.58780 0.40410 0.11430 -1.72900
O 	O 	0.89819 0.08433 0.38470 0.68400
C 	C 	0.78000 0.21693 0.62750 0.67000
H 	H 	0.80140 0.19460 0.71300 -0.28100
H 	H 	0.05900 0.89130 0.11420 27.60300
C 	C 	0.08730 0.95910 0.07990 7.07800
H 	H 	0.14750 0.98550 0.11430 -1.29400
H 	H 	0.08780 0.90410 0.11430 -29.38600
Zn	Zn	0.50000 0.50000 0.34787 1.21700
N 	N 	0.50000 0.50000 0.13380 -0.19500
Zn	Zn	0.00000 0.00000 0.34787 -0.16800
N 	N 	0.00000 -0.00000 0.13380 -1.92500
Zn	Zn	0.50000 0.50000 0.65213 1.21700
N 	N 	0.50000 0.50000 0.86620 -0.19500
Zn	Zn	0.00000 0.00000 0.65213 -0.16800
N 	N 	-0.00000 0.00000 0.86620 -1.92500
C 	C 	0.62660 0.61112 0.50000 0.41000
C 	C 	0.69060 0.68297 0.50000 0.37600
C 	C 	0.12660 0.11112 0.50000 -0.22200
C 	C 	0.19060 0.18297 0.50000 0.08600
C 	C 	0.37340 0.38888 0.50000 0.39400
C 	C 	0.30940 0.31703 0.50000 -0.53000
C 	C 	0.87340 0.88888 0.50000 0.66300
C 	C 	0.80940 0.81703 0.50000 -0.13200
C 	C 	0.37340 0.61112 0.50000 0.39400
C 	C 	0.30940 0.68297 0.50000 -0.53400
C 	C 	0.87340 0.11112 0.50000 0.66800
C 	C 	0.80940 0.18297 0.50000 -0.13800
C 	C 	0.62660 0.38888 0.50000 0.40900
C 	C 	0.69060 0.31703 0.50000 0.38000
C 	C 	0.12660 0.88888 0.50000 -0.22800
C 	C 	0.19060 0.81703 0.50000 0.08800
C 	C 	0.50000 0.41950 0.07990 -0.06900
C 	C 	-0.00000 0.91950 0.07990 3.92600
C 	C 	0.50000 0.58050 0.07990 -0.07000
C 	C 	-0.00000 0.08050 0.07990 3.70200
C 	C 	0.50000 0.41950 0.92010 -0.06900
C 	C 	0.00000 0.91950 0.92010 3.92600
C 	C 	0.50000 0.58050 0.92010 -0.07000
C 	C 	0.00000 0.08050 0.92010 3.70200
