data_crystal

_cell_length_a 13.50150
_cell_length_b 17.05330
_cell_length_c 9.60930
_cell_angle_alpha 90.00000
_cell_angle_beta  90.00000
_cell_angle_gamma 90.00000

_symmetry_space_group_name_	'P 1'
_symmetry_space_group_name_H-M	'P 1'

loop_
_symmetry_equiv_pos_as_xyz
  x,y,z

loop_
_atom_site_label
_atom_site_type_symbol
_atom_site_fract_x
_atom_site_fract_y
_atom_site_fract_z
_atom_site_charge
O 	O 	0.60262 0.58380 0.38470 -0.47500
C 	C 	0.72130 0.71705 0.62770 0.00200
H 	H 	0.70160 0.69400 0.71340 0.04200
H 	H 	0.44060 0.39130 0.11450 0.07000
C 	C 	0.41170 0.45900 0.08020 -0.00900
H 	H 	0.35120 0.48530 0.11470 0.01800
H 	H 	0.41130 0.40430 0.11470 -0.03100
O 	O 	0.10262 0.08380 0.38470 -0.49000
C 	C 	0.22130 0.21705 0.62770 0.00800
H 	H 	0.20160 0.19400 0.71340 0.02900
H 	H 	0.94060 0.89130 0.11450 1.51800
C 	C 	0.91170 0.95900 0.08020 0.35700
H 	H 	0.85120 0.98530 0.11470 0.18100
H 	H 	0.91130 0.90430 0.11470 -1.53900
O 	O 	0.39738 0.41620 0.38470 -0.46800
C 	C 	0.27870 0.28295 0.62770 -0.02700
H 	H 	0.29840 0.30600 0.71340 0.05300
H 	H 	0.55940 0.60870 0.11450 -0.02000
C 	C 	0.58830 0.54100 0.08020 -0.03600
H 	H 	0.64880 0.51470 0.11470 0.02000
H 	H 	0.58870 0.59570 0.11470 0.06200
O 	O 	0.89738 0.91620 0.38470 -0.45900
C 	C 	0.77870 0.78295 0.62770 -0.03500
H 	H 	0.79840 0.80600 0.71340 0.06700
H 	H 	0.05940 0.10870 0.11450 -1.28700
C 	C 	0.08830 0.04100 0.08020 -0.30900
H 	H 	0.14880 0.01470 0.11470 -0.23300
H 	H 	0.08870 0.09570 0.11470 1.36800
O 	O 	0.39738 0.58380 0.61530 -0.46800
C 	C 	0.27870 0.71705 0.37230 -0.02700
H 	H 	0.29840 0.69400 0.28660 0.05400
H 	H 	0.55940 0.39130 0.88550 -0.02100
C 	C 	0.58830 0.45900 0.91980 -0.03500
H 	H 	0.64880 0.48530 0.88530 0.01900
H 	H 	0.58870 0.40430 0.88530 0.06300
O 	O 	0.89738 0.08380 0.61530 -0.46600
C 	C 	0.77870 0.21705 0.37230 -0.03800
H 	H 	0.79840 0.19400 0.28660 0.07000
H 	H 	0.05940 0.89130 0.88550 -1.00800
C 	C 	0.08830 0.95900 0.91980 -0.37600
H 	H 	0.14880 0.98530 0.88530 0.34500
H 	H 	0.08870 0.90430 0.88530 1.11000
O 	O 	0.60262 0.41620 0.61530 -0.47500
C 	C 	0.72130 0.28295 0.37230 0.00300
H 	H 	0.70160 0.30600 0.28660 0.04100
H 	H 	0.44060 0.60870 0.88550 0.07100
C 	C 	0.41170 0.54100 0.91980 -0.01000
H 	H 	0.35120 0.51470 0.88530 0.02000
H 	H 	0.41130 0.59570 0.88530 -0.03200
O 	O 	0.10262 0.91620 0.61530 -0.47500
C 	C 	0.22130 0.78295 0.37230 0.01000
H 	H 	0.20160 0.80600 0.28660 0.02700
H 	H 	0.94060 0.10870 0.88550 1.32600
C 	C 	0.91170 0.04100 0.91980 0.39700
H 	H 	0.85120 0.01470 0.88530 -0.24100
H 	H 	0.91130 0.09570 0.88530 -1.35800
O 	O 	0.39738 0.41620 0.61530 -0.46800
C 	C 	0.27870 0.28295 0.37230 -0.02700
H 	H 	0.29840 0.30600 0.28660 0.05300
H 	H 	0.55940 0.60870 0.88550 -0.02000
C 	C 	0.58830 0.54100 0.91980 -0.03600
H 	H 	0.64880 0.51470 0.88530 0.02000
H 	H 	0.58870 0.59570 0.88530 0.06200
O 	O 	0.89738 0.91620 0.61530 -0.45900
C 	C 	0.77870 0.78295 0.37230 -0.03500
H 	H 	0.79840 0.80600 0.28660 0.06700
H 	H 	0.05940 0.10870 0.88550 -1.28700
C 	C 	0.08830 0.04100 0.91980 -0.30900
H 	H 	0.14880 0.01470 0.88530 -0.23300
H 	H 	0.08870 0.09570 0.88530 1.36800
O 	O 	0.60262 0.58380 0.61530 -0.47500
C 	C 	0.72130 0.71705 0.37230 0.00200
H 	H 	0.70160 0.69400 0.28660 0.04200
H 	H 	0.44060 0.39130 0.88550 0.07000
C 	C 	0.41170 0.45900 0.91980 -0.00900
H 	H 	0.35120 0.48530 0.88530 0.01800
H 	H 	0.41130 0.40430 0.88530 -0.03100
O 	O 	0.10262 0.08380 0.61530 -0.49000
C 	C 	0.22130 0.21705 0.37230 0.00800
H 	H 	0.20160 0.19400 0.28660 0.02900
H 	H 	0.94060 0.89130 0.88550 1.51800
C 	C 	0.91170 0.95900 0.91980 0.35700
H 	H 	0.85120 0.98530 0.88530 0.18100
H 	H 	0.91130 0.90430 0.88530 -1.53900
O 	O 	0.60262 0.41620 0.38470 -0.47500
C 	C 	0.72130 0.28295 0.62770 0.00300
H 	H 	0.70160 0.30600 0.71340 0.04100
H 	H 	0.44060 0.60870 0.11450 0.07100
C 	C 	0.41170 0.54100 0.08020 -0.01000
H 	H 	0.35120 0.51470 0.11470 0.02000
H 	H 	0.41130 0.59570 0.11470 -0.03200
O 	O 	0.10262 0.91620 0.38470 -0.47500
C 	C 	0.22130 0.78295 0.62770 0.01000
H 	H 	0.20160 0.80600 0.71340 0.02700
H 	H 	0.94060 0.10870 0.11450 1.32600
C 	C 	0.91170 0.04100 0.08020 0.39700
H 	H 	0.85120 0.01470 0.11470 -0.24100
H 	H 	0.91130 0.09570 0.11470 -1.35800
O 	O 	0.39738 0.58380 0.38470 -0.46800
C 	C 	0.27870 0.71705 0.62770 -0.02700
H 	H 	0.29840 0.69400 0.71340 0.05400
H 	H 	0.55940 0.39130 0.11450 -0.02100
C 	C 	0.58830 0.45900 0.08020 -0.03500
H 	H 	0.64880 0.48530 0.11470 0.01900
H 	H 	0.58870 0.40430 0.11470 0.06300
O 	O 	0.89738 0.08380 0.38470 -0.46600
C 	C 	0.77870 0.21705 0.62770 -0.03800
H 	H 	0.79840 0.19400 0.71340 0.07000
H 	H 	0.05940 0.89130 0.11450 -1.00800
C 	C 	0.08830 0.95900 0.08020 -0.37600
H 	H 	0.14880 0.98530 0.11470 0.34500
H 	H 	0.08870 0.90430 0.11470 1.11000
Zn	Zn	0.50000 0.50000 0.34791 1.21700
N 	N 	0.50000 0.50000 0.13380 -0.19400
Zn	Zn	0.00000 0.00000 0.34791 1.22200
N 	N 	-0.00000 0.00000 0.13380 -0.19900
Zn	Zn	0.50000 0.50000 0.65209 1.21700
N 	N 	0.50000 0.50000 0.86620 -0.19400
Zn	Zn	0.00000 0.00000 0.65209 1.22200
N 	N 	0.00000 0.00000 0.86620 -0.19900
C 	C 	0.62730 0.61072 0.50000 0.40200
C 	C 	0.69120 0.68294 0.50000 -0.09500
C 	C 	0.12730 0.11072 0.50000 0.41500
C 	C 	0.19120 0.18294 0.50000 -0.10200
C 	C 	0.37270 0.38928 0.50000 0.39600
C 	C 	0.30880 0.31706 0.50000 -0.07000
C 	C 	0.87270 0.88928 0.50000 0.38400
C 	C 	0.80880 0.81706 0.50000 -0.06300
C 	C 	0.37270 0.61072 0.50000 0.39600
C 	C 	0.30880 0.68294 0.50000 -0.06900
C 	C 	0.87270 0.11072 0.50000 0.38200
C 	C 	0.80880 0.18294 0.50000 -0.06200
C 	C 	0.62730 0.38928 0.50000 0.40200
C 	C 	0.69120 0.31706 0.50000 -0.09700
C 	C 	0.12730 0.88928 0.50000 0.41600
C 	C 	0.19120 0.81706 0.50000 -0.10100
C 	C 	0.50000 0.41930 0.08010 -0.03100
C 	C 	-0.00000 0.91930 0.08010 -0.13200
C 	C 	0.50000 0.58070 0.08010 -0.03000
C 	C 	0.00000 0.08070 0.08010 -0.02300
C 	C 	0.50000 0.41930 0.91990 -0.03100
C 	C 	0.00000 0.91930 0.91990 -0.13200
C 	C 	0.50000 0.58070 0.91990 -0.03000
C 	C 	0.00000 0.08070 0.91990 -0.02300
