data_crystal

_cell_length_a 14.34600
_cell_length_b 16.50900
_cell_length_c 9.71400
_cell_angle_alpha 90.00000
_cell_angle_beta  90.00000
_cell_angle_gamma 90.00000

_symmetry_space_group_name_	'P 1'
_symmetry_space_group_name_H-M	'P 1'

loop_
_symmetry_equiv_pos_as_xyz
  x,y,z

loop_
_atom_site_label
_atom_site_type_symbol
_atom_site_fract_x
_atom_site_fract_y
_atom_site_fract_z
_atom_site_charge
O 	O 	0.09670 0.08671 0.38610 -0.50700
C 	C 	0.21910 0.21750 0.37870 -0.04600
H 	H 	0.19840 0.19650 0.29540 0.05600
H 	H 	0.05470 0.10990 0.11200 0.97000
C 	C 	0.08150 0.04180 0.07840 0.28200
H 	H 	0.13760 0.01540 0.11140 -0.23900
H 	H 	0.08210 0.09720 0.11140 -1.03100
O 	O 	0.59670 0.58671 0.38610 -0.46000
C 	C 	0.71910 0.71750 0.37870 -0.01700
H 	H 	0.69840 0.69650 0.29540 0.06200
H 	H 	0.55470 0.60990 0.11200 0.09000
C 	C 	0.58150 0.54180 0.07840 -0.00400
H 	H 	0.63760 0.51540 0.11140 0.02600
H 	H 	0.58210 0.59720 0.11140 -0.04900
O 	O 	0.90330 0.91329 0.38610 -0.37100
C 	C 	0.78090 0.78250 0.37870 0.01900
H 	H 	0.80160 0.80350 0.29540 0.03900
H 	H 	0.94530 0.89010 0.11200 -2.03100
C 	C 	0.91850 0.95820 0.07840 -0.59000
H 	H 	0.86240 0.98460 0.11140 0.25000
H 	H 	0.91790 0.90280 0.11140 2.24900
O 	O 	0.40330 0.41329 0.38610 -0.47900
C 	C 	0.28090 0.28250 0.37870 -0.00600
H 	H 	0.30160 0.30350 0.29540 0.03300
H 	H 	0.44530 0.39010 0.11200 -0.03900
C 	C 	0.41850 0.45820 0.07840 -0.04000
H 	H 	0.36240 0.48460 0.11140 0.01300
H 	H 	0.41790 0.40280 0.11140 0.07600
O 	O 	0.90330 0.08671 0.61390 -0.37700
C 	C 	0.78090 0.21750 0.62130 0.01500
H 	H 	0.80160 0.19650 0.70460 0.04100
H 	H 	0.94530 0.10990 0.88800 -2.17500
C 	C 	0.91850 0.04180 0.92160 -0.54700
H 	H 	0.86240 0.01540 0.88860 -0.07600
H 	H 	0.91790 0.09720 0.88860 2.38500
O 	O 	0.40330 0.58671 0.61390 -0.47900
C 	C 	0.28090 0.71750 0.62130 -0.00700
H 	H 	0.30160 0.69650 0.70460 0.03400
H 	H 	0.44530 0.60990 0.88800 -0.03800
C 	C 	0.41850 0.54180 0.92160 -0.04100
H 	H 	0.36240 0.51540 0.88860 0.01500
H 	H 	0.41790 0.59720 0.88860 0.07600
O 	O 	0.09670 0.91329 0.61390 -0.49700
C 	C 	0.21910 0.78250 0.62130 -0.04300
H 	H 	0.19840 0.80350 0.70460 0.05300
H 	H 	0.05470 0.89010 0.88800 1.18300
C 	C 	0.08150 0.95820 0.92160 0.20200
H 	H 	0.13760 0.98460 0.88860 0.23300
H 	H 	0.08210 0.90280 0.88860 -1.22400
O 	O 	0.59670 0.41329 0.61390 -0.46000
C 	C 	0.71910 0.28250 0.62130 -0.01600
H 	H 	0.69840 0.30350 0.70460 0.06100
H 	H 	0.55470 0.39010 0.88800 0.08900
C 	C 	0.58150 0.45820 0.92160 -0.00200
H 	H 	0.63760 0.48460 0.88860 0.02400
H 	H 	0.58210 0.40280 0.88860 -0.04800
O 	O 	0.90330 0.91329 0.61390 -0.37100
C 	C 	0.78090 0.78250 0.62130 0.01900
H 	H 	0.80160 0.80350 0.70460 0.03900
H 	H 	0.94530 0.89010 0.88800 -2.03100
C 	C 	0.91850 0.95820 0.92160 -0.59000
H 	H 	0.86240 0.98460 0.88860 0.25000
H 	H 	0.91790 0.90280 0.88860 2.24900
O 	O 	0.40330 0.41329 0.61390 -0.47900
C 	C 	0.28090 0.28250 0.62130 -0.00600
H 	H 	0.30160 0.30350 0.70460 0.03300
H 	H 	0.44530 0.39010 0.88800 -0.03900
C 	C 	0.41850 0.45820 0.92160 -0.04000
H 	H 	0.36240 0.48460 0.88860 0.01300
H 	H 	0.41790 0.40280 0.88860 0.07600
O 	O 	0.09670 0.08671 0.61390 -0.50800
C 	C 	0.21910 0.21750 0.62130 -0.04700
H 	H 	0.19840 0.19650 0.70460 0.05500
H 	H 	0.05470 0.10990 0.88800 0.96900
C 	C 	0.08150 0.04180 0.92160 0.28200
H 	H 	0.13760 0.01540 0.88860 -0.23900
H 	H 	0.08210 0.09720 0.88860 -1.03100
O 	O 	0.59670 0.58671 0.61390 -0.46000
C 	C 	0.71910 0.71750 0.62130 -0.01700
H 	H 	0.69840 0.69650 0.70460 0.06200
H 	H 	0.55470 0.60990 0.88800 0.09000
C 	C 	0.58150 0.54180 0.92160 -0.00400
H 	H 	0.63760 0.51540 0.88860 0.02600
H 	H 	0.58210 0.59720 0.88860 -0.04900
O 	O 	0.09670 0.91329 0.38610 -0.49700
C 	C 	0.21910 0.78250 0.37870 -0.04300
H 	H 	0.19840 0.80350 0.29540 0.05300
H 	H 	0.05470 0.89010 0.11200 1.18300
C 	C 	0.08150 0.95820 0.07840 0.20200
H 	H 	0.13760 0.98460 0.11140 0.23300
H 	H 	0.08210 0.90280 0.11140 -1.22400
O 	O 	0.59670 0.41329 0.38610 -0.46000
C 	C 	0.71910 0.28250 0.37870 -0.01600
H 	H 	0.69840 0.30350 0.29540 0.06100
H 	H 	0.55470 0.39010 0.11200 0.08900
C 	C 	0.58150 0.45820 0.07840 -0.00200
H 	H 	0.63760 0.48460 0.11140 0.02400
H 	H 	0.58210 0.40280 0.11140 -0.04800
O 	O 	0.90330 0.08671 0.38610 -0.37700
C 	C 	0.78090 0.21750 0.37870 0.01500
H 	H 	0.80160 0.19650 0.29540 0.04100
H 	H 	0.94530 0.10990 0.11200 -2.17500
C 	C 	0.91850 0.04180 0.07840 -0.54700
H 	H 	0.86240 0.01540 0.11140 -0.07600
H 	H 	0.91790 0.09720 0.11140 2.38500
O 	O 	0.40330 0.58671 0.38610 -0.47900
C 	C 	0.28090 0.71750 0.37870 -0.00700
H 	H 	0.30160 0.69650 0.29540 0.03400
H 	H 	0.44530 0.60990 0.11200 -0.03800
C 	C 	0.41850 0.54180 0.07840 -0.04100
H 	H 	0.36240 0.51540 0.11140 0.01500
H 	H 	0.41790 0.59720 0.11140 0.07600
Zn	Zn	0.00000 0.00000 0.34765 1.12000
N 	N 	-0.00000 -0.00000 0.13380 -0.32500
Zn	Zn	0.50000 0.50000 0.34765 1.21600
N 	N 	0.50000 0.50000 0.13380 -0.19400
Zn	Zn	0.00000 0.00000 0.65235 1.12000
N 	N 	-0.00000 0.00000 0.86620 -0.32500
Zn	Zn	0.50000 0.50000 0.65235 1.21600
N 	N 	0.50000 0.50000 0.86620 -0.19400
C 	C 	0.12300 0.11300 0.50000 0.37100
C 	C 	0.18820 0.18390 0.50000 -0.08500
C 	C 	0.62300 0.61300 0.50000 0.40200
C 	C 	0.68820 0.68390 0.50000 -0.06300
C 	C 	0.87700 0.88700 0.50000 0.40100
C 	C 	0.81180 0.81610 0.50000 -0.07600
C 	C 	0.37700 0.38700 0.50000 0.39900
C 	C 	0.31180 0.31610 0.50000 -0.11000
C 	C 	0.87700 0.11300 0.50000 0.39800
C 	C 	0.81180 0.18390 0.50000 -0.07500
C 	C 	0.37700 0.61300 0.50000 0.39900
C 	C 	0.31180 0.68390 0.50000 -0.10800
C 	C 	0.12300 0.88700 0.50000 0.37300
C 	C 	0.18820 0.81610 0.50000 -0.08500
C 	C 	0.62300 0.38700 0.50000 0.40200
C 	C 	0.68820 0.31610 0.50000 -0.06500
C 	C 	0.00000 0.08140 0.07900 0.22100
C 	C 	0.50000 0.58140 0.07900 -0.03000
C 	C 	-0.00000 0.91860 0.07900 0.14900
C 	C 	0.50000 0.41860 0.07900 -0.03100
C 	C 	-0.00000 0.08140 0.92100 0.22100
C 	C 	0.50000 0.58140 0.92100 -0.03000
C 	C 	-0.00000 0.91860 0.92100 0.14900
C 	C 	0.50000 0.41860 0.92100 -0.03100
