data_crystal

_cell_length_a 13.43070
_cell_length_b 17.09640
_cell_length_c 9.59480
_cell_angle_alpha 90.00000
_cell_angle_beta  90.00000
_cell_angle_gamma 90.00000

_symmetry_space_group_name_	'P 1'
_symmetry_space_group_name_H-M	'P 1'

loop_
_symmetry_equiv_pos_as_xyz
  x,y,z

loop_
_atom_site_label
_atom_site_type_symbol
_atom_site_fract_x
_atom_site_fract_y
_atom_site_fract_z
_atom_site_charge
O 	O 	0.60290 0.58371 0.38480 -0.46500
C 	C 	0.72150 0.71690 0.62680 -0.01000
H 	H 	0.70210 0.69380 0.71260 0.05900
H 	H 	0.44030 0.39150 0.11550 -0.01800
C 	C 	0.41120 0.45830 0.08060 -0.03500
H 	H 	0.35010 0.48410 0.11520 0.01400
H 	H 	0.41140 0.40370 0.11520 0.05700
O 	O 	0.10290 0.08371 0.38480 -0.50600
C 	C 	0.22150 0.21690 0.62680 -0.03300
H 	H 	0.20210 0.19380 0.71260 0.04700
H 	H 	0.94030 0.89150 0.11550 -1.17700
C 	C 	0.91120 0.95830 0.08060 -0.33000
H 	H 	0.85010 0.98410 0.11520 0.20300
H 	H 	0.91140 0.90370 0.11520 1.33200
O 	O 	0.39710 0.41629 0.38480 -0.48000
C 	C 	0.27850 0.28310 0.62680 -0.01300
H 	H 	0.29790 0.30620 0.71260 0.03600
H 	H 	0.55970 0.60850 0.11550 0.07300
C 	C 	0.58880 0.54170 0.08060 -0.01000
H 	H 	0.64990 0.51590 0.11520 0.02700
H 	H 	0.58860 0.59630 0.11520 -0.02900
O 	O 	0.89710 0.91629 0.38480 -0.39300
C 	C 	0.77850 0.78310 0.62680 0.00800
H 	H 	0.79790 0.80620 0.71260 0.04600
H 	H 	0.05970 0.10850 0.11550 0.47000
C 	C 	0.08880 0.04170 0.08060 0.12500
H 	H 	0.14990 0.01590 0.11520 -0.17300
H 	H 	0.08860 0.09630 0.11520 -0.48600
O 	O 	0.39710 0.58371 0.61520 -0.48000
C 	C 	0.27850 0.71690 0.37320 -0.01200
H 	H 	0.29790 0.69380 0.28740 0.03700
H 	H 	0.55970 0.39150 0.88450 0.07200
C 	C 	0.58880 0.45830 0.91940 -0.00800
H 	H 	0.64990 0.48410 0.88480 0.02500
H 	H 	0.58860 0.40370 0.88480 -0.03000
O 	O 	0.89710 0.08371 0.61520 -0.40900
C 	C 	0.77850 0.21690 0.37320 0.00700
H 	H 	0.79790 0.19380 0.28740 0.04500
H 	H 	0.05970 0.89150 0.88450 0.60200
C 	C 	0.08880 0.95830 0.91940 0.07400
H 	H 	0.14990 0.98410 0.88480 0.19500
H 	H 	0.08860 0.90370 0.88480 -0.60800
O 	O 	0.60290 0.41629 0.61520 -0.46500
C 	C 	0.72150 0.28310 0.37320 -0.01100
H 	H 	0.70210 0.30620 0.28740 0.05800
H 	H 	0.44030 0.60850 0.88450 -0.01700
C 	C 	0.41120 0.54170 0.91940 -0.03600
H 	H 	0.35010 0.51590 0.88480 0.01600
H 	H 	0.41140 0.59630 0.88480 0.05700
O 	O 	0.10290 0.91629 0.61520 -0.48400
C 	C 	0.22150 0.78310 0.37320 -0.03100
H 	H 	0.20210 0.80620 0.28740 0.04800
H 	H 	0.94030 0.10850 0.88450 -1.30100
C 	C 	0.91120 0.04170 0.91940 -0.30400
H 	H 	0.85010 0.01590 0.88480 -0.09300
H 	H 	0.91140 0.09630 0.88480 1.45500
O 	O 	0.39710 0.41629 0.61520 -0.48000
C 	C 	0.27850 0.28310 0.37320 -0.01300
H 	H 	0.29790 0.30620 0.28740 0.03600
H 	H 	0.55970 0.60850 0.88450 0.07300
C 	C 	0.58880 0.54170 0.91940 -0.01000
H 	H 	0.64990 0.51590 0.88480 0.02700
H 	H 	0.58860 0.59630 0.88480 -0.02900
O 	O 	0.89710 0.91629 0.61520 -0.39300
C 	C 	0.77850 0.78310 0.37320 0.00800
H 	H 	0.79790 0.80620 0.28740 0.04600
H 	H 	0.05970 0.10850 0.88450 0.47000
C 	C 	0.08880 0.04170 0.91940 0.12500
H 	H 	0.14990 0.01590 0.88480 -0.17300
H 	H 	0.08860 0.09630 0.88480 -0.48600
O 	O 	0.60290 0.58371 0.61520 -0.46400
C 	C 	0.72150 0.71690 0.37320 -0.01000
H 	H 	0.70210 0.69380 0.28740 0.05900
H 	H 	0.44030 0.39150 0.88450 -0.01800
C 	C 	0.41120 0.45830 0.91940 -0.03500
H 	H 	0.35010 0.48410 0.88480 0.01400
H 	H 	0.41140 0.40370 0.88480 0.05700
O 	O 	0.10290 0.08371 0.61520 -0.50600
C 	C 	0.22150 0.21690 0.37320 -0.03300
H 	H 	0.20210 0.19380 0.28740 0.04700
H 	H 	0.94030 0.89150 0.88450 -1.17700
C 	C 	0.91120 0.95830 0.91940 -0.33000
H 	H 	0.85010 0.98410 0.88480 0.20300
H 	H 	0.91140 0.90370 0.88480 1.33200
O 	O 	0.60290 0.41629 0.38480 -0.46500
C 	C 	0.72150 0.28310 0.62680 -0.01100
H 	H 	0.70210 0.30620 0.71260 0.05800
H 	H 	0.44030 0.60850 0.11550 -0.01700
C 	C 	0.41120 0.54170 0.08060 -0.03600
H 	H 	0.35010 0.51590 0.11520 0.01600
H 	H 	0.41140 0.59630 0.11520 0.05700
O 	O 	0.10290 0.91629 0.38480 -0.48400
C 	C 	0.22150 0.78310 0.62680 -0.03100
H 	H 	0.20210 0.80620 0.71260 0.04800
H 	H 	0.94030 0.10850 0.11550 -1.30100
C 	C 	0.91120 0.04170 0.08060 -0.30400
H 	H 	0.85010 0.01590 0.11520 -0.09300
H 	H 	0.91140 0.09630 0.11520 1.45500
O 	O 	0.39710 0.58371 0.38480 -0.48000
C 	C 	0.27850 0.71690 0.62680 -0.01200
H 	H 	0.29790 0.69380 0.71260 0.03700
H 	H 	0.55970 0.39150 0.11550 0.07200
C 	C 	0.58880 0.45830 0.08060 -0.00800
H 	H 	0.64990 0.48410 0.11520 0.02500
H 	H 	0.58860 0.40370 0.11520 -0.03000
O 	O 	0.89710 0.08371 0.38480 -0.40900
C 	C 	0.77850 0.21690 0.62680 0.00700
H 	H 	0.79790 0.19380 0.71260 0.04500
H 	H 	0.05970 0.89150 0.11550 0.60200
C 	C 	0.08880 0.95830 0.08060 0.07400
H 	H 	0.14990 0.98410 0.11520 0.19500
H 	H 	0.08860 0.90370 0.11520 -0.60800
Zn	Zn	0.50000 0.50000 0.34806 1.21700
N 	N 	0.50000 0.50000 0.13430 -0.19500
Zn	Zn	-0.00000 0.00000 0.34806 1.14300
N 	N 	0.00000 0.00000 0.13430 -0.30000
Zn	Zn	0.50000 0.50000 0.65194 1.21700
N 	N 	0.50000 0.50000 0.86570 -0.19500
Zn	Zn	0.00000 0.00000 0.65194 1.14300
N 	N 	0.00000 0.00000 0.86570 -0.30000
C 	C 	0.62770 0.61080 0.50000 0.40500
C 	C 	0.69150 0.68280 0.50000 -0.06900
C 	C 	0.12770 0.11080 0.50000 0.38100
C 	C 	0.19150 0.18280 0.50000 -0.09200
C 	C 	0.37230 0.38920 0.50000 0.39900
C 	C 	0.30850 0.31720 0.50000 -0.10100
C 	C 	0.87230 0.88920 0.50000 0.40200
C 	C 	0.80850 0.81720 0.50000 -0.07100
C 	C 	0.37230 0.61080 0.50000 0.40000
C 	C 	0.30850 0.68280 0.50000 -0.10000
C 	C 	0.87230 0.11080 0.50000 0.40200
C 	C 	0.80850 0.18280 0.50000 -0.07400
C 	C 	0.62770 0.38920 0.50000 0.40400
C 	C 	0.69150 0.31720 0.50000 -0.07000
C 	C 	0.12770 0.88920 0.50000 0.38100
C 	C 	0.19150 0.81720 0.50000 -0.08800
C 	C 	0.50000 0.41940 0.08090 -0.03300
C 	C 	0.00000 0.91940 0.08090 0.08300
C 	C 	0.50000 0.58060 0.08090 -0.03200
C 	C 	0.00000 0.08060 0.08090 0.12100
C 	C 	0.50000 0.41940 0.91910 -0.03300
C 	C 	-0.00000 0.91940 0.91910 0.08300
C 	C 	0.50000 0.58060 0.91910 -0.03200
C 	C 	-0.00000 0.08060 0.91910 0.12100
