data_crystal

_cell_length_a 4.70830
_cell_length_b 10.98000
_cell_length_c 31.01100
_cell_angle_alpha 90.00000
_cell_angle_beta  90.00000
_cell_angle_gamma 96.14500

_symmetry_space_group_name_	'P 1'
_symmetry_space_group_name_H-M	'P 1'

loop_
_symmetry_equiv_pos_as_xyz
  x,y,z

loop_
_atom_site_label
_atom_site_type_symbol
_atom_site_fract_x
_atom_site_fract_y
_atom_site_fract_z
_atom_site_charge
Cu	Cu	0.51873 0.39726 0.80617 0.98300
Cu	Cu	0.48127 0.10274 0.30617 0.98200
Cu	Cu	0.48127 0.60274 0.19383 0.98300
Cu	Cu	0.51873 0.89726 0.69383 0.98200
H 	H 	0.63000 0.46100 0.70800 0.05700
H 	H 	0.45000 0.36400 0.64600 0.04200
H 	H 	0.77000 0.29700 0.86940 -0.02100
H 	H 	0.45580 0.61070 0.87800 -0.01500
H 	H 	0.65620 0.63660 0.94660 0.13200
H 	H 	0.95860 0.32070 0.93760 0.12800
H 	H 	0.37000 0.03900 0.20800 0.05600
H 	H 	0.55000 0.13600 0.14600 0.04200
H 	H 	0.23000 0.20300 0.36940 -0.02100
H 	H 	0.54420 0.88930 0.37800 -0.01600
H 	H 	0.34380 0.86340 0.44660 0.13200
H 	H 	0.04140 0.17930 0.43760 0.12800
H 	H 	0.37000 0.53900 0.29200 0.05700
H 	H 	0.55000 0.63600 0.35400 0.04200
H 	H 	0.23000 0.70300 0.13060 -0.02100
H 	H 	0.54420 0.38930 0.12200 -0.01500
H 	H 	0.34380 0.36340 0.05340 0.13200
H 	H 	0.04140 0.67930 0.06240 0.12800
H 	H 	0.63000 0.96100 0.79200 0.05600
H 	H 	0.45000 0.86400 0.85400 0.04200
H 	H 	0.77000 0.79700 0.63060 -0.02100
H 	H 	0.45580 0.11070 0.62200 -0.01600
H 	H 	0.65620 0.13660 0.55340 0.13200
H 	H 	0.95860 0.82070 0.56240 0.12800
C 	C 	0.21650 0.17700 0.79470 0.24500
C 	C 	0.26740 0.22940 0.74930 -0.00400
C 	C 	0.50950 0.38670 0.70980 0.02100
C 	C 	0.39750 0.32860 0.67330 0.02700
C 	C 	0.15520 0.17530 0.71210 0.02000
C 	C 	0.96830 0.05720 0.70840 0.30100
C 	C 	0.74634 0.36942 0.88553 0.13300
C 	C 	0.56497 0.55038 0.88955 0.19400
C 	C 	0.67621 0.56402 0.93070 -0.26400
C 	C 	0.85281 0.38183 0.92582 -0.25700
C 	C 	0.81099 0.47591 0.94812 0.23900
C 	C 	0.78350 0.32300 0.29470 0.24500
C 	C 	0.73260 0.27060 0.24930 -0.00400
C 	C 	0.49050 0.11330 0.20980 0.02000
C 	C 	0.60250 0.17140 0.17330 0.02600
C 	C 	0.84480 0.32470 0.21210 0.02100
C 	C 	0.03170 0.44280 0.20840 0.29800
C 	C 	0.25366 0.13058 0.38553 0.13300
C 	C 	0.43503 0.94962 0.38955 0.19600
C 	C 	0.32379 0.93598 0.43070 -0.26300
C 	C 	0.14719 0.11817 0.42582 -0.25600
C 	C 	0.18901 0.02409 0.44812 0.23800
C 	C 	0.78350 0.82300 0.20530 0.24500
C 	C 	0.73260 0.77060 0.25070 -0.00400
C 	C 	0.49050 0.61330 0.29020 0.02100
C 	C 	0.60250 0.67140 0.32670 0.02700
C 	C 	0.84480 0.82470 0.28790 0.02000
C 	C 	0.03170 0.94280 0.29160 0.30100
C 	C 	0.25366 0.63058 0.11447 0.13300
C 	C 	0.43503 0.44962 0.11045 0.19400
C 	C 	0.32379 0.43598 0.06930 -0.26400
C 	C 	0.14719 0.61817 0.07418 -0.25700
C 	C 	0.18901 0.52409 0.05188 0.23900
C 	C 	0.21650 0.67700 0.70530 0.24500
C 	C 	0.26740 0.72940 0.75070 -0.00400
C 	C 	0.50950 0.88670 0.79020 0.02000
C 	C 	0.39750 0.82860 0.82670 0.02600
C 	C 	0.15520 0.67530 0.78790 0.02100
C 	C 	0.96830 0.55720 0.79160 0.29800
C 	C 	0.74634 0.86942 0.61447 0.13300
C 	C 	0.56497 0.05038 0.61045 0.19600
C 	C 	0.67621 0.06402 0.56930 -0.26300
C 	C 	0.85281 0.88183 0.57418 -0.25600
C 	C 	0.81099 0.97591 0.55188 0.23800
N 	N 	0.43950 0.33400 0.74810 -0.17500
N 	N 	0.22330 0.22640 0.67430 -0.09500
N 	N 	0.60688 0.46060 0.86788 -0.23400
N 	N 	0.87775 0.47905 0.99583 -0.10100
N 	N 	0.56050 0.16600 0.24810 -0.17500
N 	N 	0.77670 0.27360 0.17430 -0.09500
N 	N 	0.39312 0.03940 0.36788 -0.23600
N 	N 	0.12225 0.02095 0.49583 -0.10100
N 	N 	0.56050 0.66600 0.25190 -0.17500
N 	N 	0.77670 0.77360 0.32570 -0.09500
N 	N 	0.39312 0.53940 0.13212 -0.23400
N 	N 	0.12225 0.52095 0.00417 -0.10100
N 	N 	0.43950 0.83400 0.75190 -0.17500
N 	N 	0.22330 0.72640 0.82570 -0.09500
N 	N 	0.60688 0.96060 0.63212 -0.23600
N 	N 	0.87775 0.97905 0.50417 -0.10100
O 	O 	0.31340 0.24805 0.82424 -0.36300
O 	O 	0.04382 0.06731 0.79999 -0.18700
O 	O 	0.68242 0.01007 0.70859 -0.47800
O 	O 	0.12691 0.97811 0.70316 -0.32500
O 	O 	0.68660 0.25195 0.32424 -0.36300
O 	O 	0.95618 0.43269 0.29999 -0.18800
O 	O 	0.31758 0.48993 0.20859 -0.47900
O 	O 	0.87309 0.52189 0.20316 -0.32300
O 	O 	0.68660 0.75195 0.17576 -0.36300
O 	O 	0.95618 0.93269 0.20001 -0.18700
O 	O 	0.31758 0.98993 0.29141 -0.47800
O 	O 	0.87309 0.02189 0.29684 -0.32500
O 	O 	0.31340 0.74805 0.67576 -0.36300
O 	O 	0.04382 0.56731 0.70001 -0.18800
O 	O 	0.68242 0.51007 0.79141 -0.47900
O 	O 	0.12691 0.47811 0.79684 -0.32300
