data_crystal

_cell_length_a 4.71300
_cell_length_b 11.10100
_cell_length_c 26.79700
_cell_angle_alpha 90.00000
_cell_angle_beta  90.00000
_cell_angle_gamma 96.52000

_symmetry_space_group_name_	'P 1'
_symmetry_space_group_name_H-M	'P 1'

loop_
_symmetry_equiv_pos_as_xyz
  x,y,z

loop_
_atom_site_label
_atom_site_type_symbol
_atom_site_fract_x
_atom_site_fract_y
_atom_site_fract_z
_atom_site_charge
Cu	Cu	0.38800 0.12000 0.81940 0.95400
Cu	Cu	0.61200 0.38000 0.31940 0.95500
Cu	Cu	0.61200 0.88000 0.18060 0.95400
Cu	Cu	0.38800 0.62000 0.68060 0.95500
H 	H 	0.21400 0.03630 0.70870 0.06700
H 	H 	0.37590 0.13530 0.63740 0.04300
H 	H 	0.07990 0.20930 0.89520 0.03500
H 	H 	0.40860 0.89810 0.89170 0.03800
H 	H 	0.39280 0.76160 0.96210 0.05400
H 	H 	0.86470 0.27690 0.96450 0.05800
H 	H 	0.78600 0.46370 0.20870 0.06800
H 	H 	0.62410 0.36470 0.13740 0.04400
H 	H 	0.92010 0.29070 0.39520 0.03600
H 	H 	0.59140 0.60190 0.39170 0.03800
H 	H 	0.60720 0.73840 0.46210 0.05400
H 	H 	0.13530 0.22310 0.46450 0.05800
H 	H 	0.78600 0.96370 0.29130 0.06700
H 	H 	0.62410 0.86470 0.36260 0.04300
H 	H 	0.92010 0.79070 0.10480 0.03500
H 	H 	0.59140 0.10190 0.10830 0.03800
H 	H 	0.60720 0.23840 0.03790 0.05400
H 	H 	0.13530 0.72310 0.03550 0.05800
H 	H 	0.21400 0.53630 0.79130 0.06800
H 	H 	0.37590 0.63530 0.86260 0.04400
H 	H 	0.07990 0.70930 0.60480 0.03600
H 	H 	0.40860 0.39810 0.60830 0.03800
H 	H 	0.39280 0.26160 0.53790 0.05400
H 	H 	0.86470 0.77690 0.53550 0.05800
C 	C 	0.65090 0.32080 0.80250 0.36700
C 	C 	0.58630 0.26870 0.75240 -0.04800
C 	C 	0.33460 0.11090 0.71000 0.03300
C 	C 	0.43340 0.16970 0.66880 0.02100
C 	C 	0.68520 0.32350 0.71040 -0.00800
C 	C 	0.86840 0.44230 0.70500 0.35400
C 	C 	0.11300 0.13610 0.91140 -0.00400
C 	C 	0.30590 0.95330 0.90940 0.00700
C 	C 	0.21450 0.92490 0.95580 0.01800
C 	C 	0.01390 0.11490 0.95790 0.01800
C 	C 	0.06310 0.00780 0.98120 -0.00500
C 	C 	0.27290 0.81560 0.97640 -0.05100
C 	C 	0.86630 0.20090 0.98070 -0.05000
C 	C 	0.34910 0.17920 0.30250 0.36800
C 	C 	0.41370 0.23130 0.25240 -0.04800
C 	C 	0.66540 0.38910 0.21000 0.03300
C 	C 	0.56660 0.33030 0.16880 0.02100
C 	C 	0.31480 0.17650 0.21040 -0.00700
C 	C 	0.13160 0.05770 0.20500 0.35100
C 	C 	0.88700 0.36390 0.41140 -0.00500
C 	C 	0.69410 0.54670 0.40940 0.00600
C 	C 	0.78550 0.57510 0.45580 0.01600
C 	C 	0.98610 0.38510 0.45790 0.02000
C 	C 	0.93690 0.49220 0.48120 -0.00500
C 	C 	0.72710 0.68440 0.47640 -0.04900
C 	C 	0.13370 0.29910 0.48070 -0.05300
C 	C 	0.34910 0.67920 0.19750 0.36700
C 	C 	0.41370 0.73130 0.24760 -0.04800
C 	C 	0.66540 0.88910 0.29000 0.03300
C 	C 	0.56660 0.83030 0.33120 0.02100
C 	C 	0.31480 0.67650 0.28960 -0.00800
C 	C 	0.13160 0.55770 0.29500 0.35400
C 	C 	0.88700 0.86390 0.08860 -0.00400
C 	C 	0.69410 0.04670 0.09060 0.00700
C 	C 	0.78550 0.07510 0.04420 0.01800
C 	C 	0.98610 0.88510 0.04210 0.01800
C 	C 	0.93690 0.99220 0.01880 -0.00500
C 	C 	0.72710 0.18440 0.02360 -0.05100
C 	C 	0.13370 0.79910 0.01930 -0.05000
C 	C 	0.65090 0.82080 0.69750 0.36800
C 	C 	0.58630 0.76870 0.74760 -0.04800
C 	C 	0.33460 0.61090 0.79000 0.03300
C 	C 	0.43340 0.66970 0.83120 0.02100
C 	C 	0.68520 0.82350 0.78960 -0.00700
C 	C 	0.86840 0.94230 0.79500 0.35100
C 	C 	0.11300 0.63610 0.58860 -0.00500
C 	C 	0.30590 0.45330 0.59060 0.00600
C 	C 	0.21450 0.42490 0.54420 0.01600
C 	C 	0.01390 0.61490 0.54210 0.02000
C 	C 	0.06310 0.50780 0.51880 -0.00500
C 	C 	0.27290 0.31560 0.52360 -0.04900
C 	C 	0.86630 0.70090 0.51930 -0.05300
N 	N 	0.41600 0.16350 0.75220 -0.17800
N 	N 	0.60580 0.27250 0.66880 -0.10100
N 	N 	0.25670 0.05700 0.88740 -0.18300
N 	N 	0.58400 0.33650 0.25220 -0.17800
N 	N 	0.39420 0.22750 0.16880 -0.10100
N 	N 	0.74330 0.44300 0.38740 -0.18200
N 	N 	0.58400 0.83650 0.24780 -0.17800
N 	N 	0.39420 0.72750 0.33120 -0.10100
N 	N 	0.74330 0.94300 0.11260 -0.18300
N 	N 	0.41600 0.66350 0.74780 -0.17800
N 	N 	0.60580 0.77250 0.83120 -0.10100
N 	N 	0.25670 0.55700 0.61260 -0.18200
O 	O 	0.53300 0.25830 0.83520 -0.46500
O 	O 	0.78900 0.42040 0.80660 -0.26100
O 	O 	0.11900 0.48800 0.71200 -0.35200
O 	O 	0.75500 0.53410 0.69430 -0.36300
O 	O 	0.46700 0.24170 0.33520 -0.46500
O 	O 	0.21100 0.07960 0.30660 -0.26100
O 	O 	0.88100 0.01200 0.21200 -0.35000
O 	O 	0.24500 0.96590 0.19430 -0.36200
O 	O 	0.46700 0.74170 0.16480 -0.46500
O 	O 	0.21100 0.57960 0.19340 -0.26100
O 	O 	0.88100 0.51200 0.28800 -0.35200
O 	O 	0.24500 0.46590 0.30570 -0.36300
O 	O 	0.53300 0.75830 0.66480 -0.46500
O 	O 	0.78900 0.92040 0.69340 -0.26100
O 	O 	0.11900 0.98800 0.78800 -0.35000
O 	O 	0.75500 0.03410 0.80570 -0.36200
