data_crystal

_cell_length_a 31.35180
_cell_length_b 18.10100
_cell_length_c 18.10100
_cell_angle_alpha 90.00000
_cell_angle_beta  125.26000
_cell_angle_gamma 90.00000

_symmetry_space_group_name_	'P 1'
_symmetry_space_group_name_H-M	'P 1'

loop_
_symmetry_equiv_pos_as_xyz
  x,y,z

loop_
_atom_site_label
_atom_site_type_symbol
_atom_site_fract_x
_atom_site_fract_y
_atom_site_fract_z
_atom_site_charge
Zn	Zn	0.29362 0.41267 0.29365 1.22800
O 	O 	0.21780 0.41870 0.07180 -0.47700
O 	O 	0.28220 0.35290 0.19990 -0.45800
O 	O 	0.21690 0.41810 0.36380 -0.47800
O 	O 	0.28250 0.35280 0.36440 -0.47500
O 	O 	0.36450 0.43470 0.36580 -0.46600
C 	C 	0.24840 0.36730 0.11290 0.31100
C 	C 	0.25180 0.30010 0.05390 0.06000
C 	C 	0.21690 0.30990 0.95510 -0.13800
H 	H 	0.19640 0.35340 0.92990 0.40900
C 	C 	0.28560 0.24110 0.09680 -0.10800
H 	H 	0.30920 0.23840 0.16080 0.36200
C 	C 	0.25030 0.36720 0.38380 0.32100
Br	Br	0.17030 0.39240 0.89330 -0.04000
C 	C 	0.18010 0.37490 0.90650 -0.34400
Br	Br	0.33640 0.23220 0.23320 0.05300
C 	C 	0.32580 0.23440 0.20450 -0.37500
Zn	Zn	0.20638 0.91267 0.70635 1.23800
O 	O 	0.28220 0.91870 0.92820 -0.45000
O 	O 	0.21780 0.85290 0.80010 -0.44700
O 	O 	0.28310 0.91810 0.63620 -0.44700
O 	O 	0.21750 0.85280 0.63560 -0.46300
O 	O 	0.13550 0.93470 0.63420 -0.41000
C 	C 	0.25160 0.86730 0.88710 0.31500
C 	C 	0.24820 0.80010 0.94610 0.05800
C 	C 	0.28310 0.80990 0.04490 -0.11500
H 	H 	0.30360 0.85340 0.07010 0.38100
C 	C 	0.21440 0.74110 0.90320 -0.10100
H 	H 	0.19080 0.73840 0.83920 0.35200
C 	C 	0.24970 0.86720 0.61620 0.33100
Br	Br	0.32970 0.89240 0.10670 -0.01300
C 	C 	0.31990 0.87490 0.09350 -0.32300
Br	Br	0.16360 0.73220 0.76680 0.06300
C 	C 	0.17420 0.73440 0.79550 -0.36300
Zn	Zn	0.20638 0.08733 0.70635 1.22600
O 	O 	0.28220 0.08130 0.92820 -0.48400
O 	O 	0.21780 0.14710 0.80010 -0.45800
O 	O 	0.28310 0.08190 0.63620 -0.48700
O 	O 	0.21750 0.14720 0.63560 -0.47600
O 	O 	0.13550 0.06530 0.63420 -0.45900
C 	C 	0.25160 0.13270 0.88710 0.30700
C 	C 	0.24820 0.19990 0.94610 0.07300
C 	C 	0.28310 0.19010 0.04490 -0.16700
H 	H 	0.30360 0.14660 0.07010 0.43400
C 	C 	0.21440 0.25890 0.90320 -0.12800
H 	H 	0.19080 0.26160 0.83920 0.36700
C 	C 	0.24970 0.13280 0.61620 0.32000
Br	Br	0.32970 0.10760 0.10670 -0.06200
C 	C 	0.31990 0.12510 0.09350 -0.35800
Br	Br	0.16360 0.26780 0.76680 0.04900
C 	C 	0.17420 0.26560 0.79550 -0.36900
Zn	Zn	0.29362 0.58733 0.29365 1.22900
O 	O 	0.21780 0.58130 0.07180 -0.47400
O 	O 	0.28220 0.64710 0.19990 -0.45300
O 	O 	0.21690 0.58190 0.36380 -0.47500
O 	O 	0.28250 0.64720 0.36440 -0.46900
O 	O 	0.36450 0.56530 0.36580 -0.46300
C 	C 	0.24840 0.63270 0.11290 0.30900
C 	C 	0.25180 0.69990 0.05390 0.07600
C 	C 	0.21690 0.69010 0.95510 -0.15500
H 	H 	0.19640 0.64660 0.92990 0.41500
C 	C 	0.28560 0.75890 0.09680 -0.13000
H 	H 	0.30920 0.76160 0.16080 0.36100
C 	C 	0.25030 0.63280 0.38380 0.32800
Br	Br	0.17030 0.60760 0.89330 -0.04300
C 	C 	0.18010 0.62510 0.90650 -0.34000
Br	Br	0.33640 0.76780 0.23320 0.05600
C 	C 	0.32580 0.76560 0.20450 -0.35600
Zn	Zn	0.20623 0.50000 0.11874 1.23300
Zn	Zn	0.20653 0.50000 0.29383 1.22600
O 	O 	0.25110 0.50000 0.25140 -0.95600
O 	O 	0.13560 0.50000 0.06980 -0.48100
O 	O 	0.13560 0.50000 0.19970 -0.46500
C 	C 	0.11610 0.50000 0.11200 0.33200
C 	C 	0.38480 0.50000 0.38400 0.31700
Zn	Zn	0.29377 0.00000 0.88126 1.22300
Zn	Zn	0.29347 0.00000 0.70617 1.21600
O 	O 	0.24890 0.00000 0.74860 -0.97900
O 	O 	0.36440 0.00000 0.93020 -0.49400
O 	O 	0.36440 -0.00000 0.80030 -0.48000
C 	C 	0.38390 0.00000 0.88800 0.32200
C 	C 	0.11520 -0.00000 0.61600 0.24900
Zn	Zn	0.79362 0.91267 0.29365 1.23800
O 	O 	0.71780 0.91870 0.07180 -0.45000
O 	O 	0.78220 0.85290 0.19990 -0.44700
O 	O 	0.71690 0.91810 0.36380 -0.44700
O 	O 	0.78250 0.85280 0.36440 -0.46300
O 	O 	0.86450 0.93470 0.36580 -0.41000
C 	C 	0.74840 0.86730 0.11290 0.31500
C 	C 	0.75180 0.80010 0.05390 0.05800
C 	C 	0.71690 0.80990 0.95510 -0.11500
H 	H 	0.69640 0.85340 0.92990 0.38100
C 	C 	0.78560 0.74110 0.09680 -0.10100
H 	H 	0.80920 0.73840 0.16080 0.35200
C 	C 	0.75030 0.86720 0.38380 0.33100
Br	Br	0.67030 0.89240 0.89330 -0.01300
C 	C 	0.68010 0.87490 0.90650 -0.32300
Br	Br	0.83640 0.73220 0.23320 0.06300
C 	C 	0.82580 0.73440 0.20450 -0.36300
Zn	Zn	0.70638 0.41267 0.70635 1.22900
O 	O 	0.78220 0.41870 0.92820 -0.47600
O 	O 	0.71780 0.35290 0.80010 -0.45700
O 	O 	0.78310 0.41810 0.63620 -0.47700
O 	O 	0.71750 0.35280 0.63560 -0.47500
O 	O 	0.63550 0.43470 0.63420 -0.46600
C 	C 	0.75160 0.36730 0.88710 0.31100
C 	C 	0.74820 0.30010 0.94610 0.06000
C 	C 	0.78310 0.30990 0.04490 -0.13800
H 	H 	0.80360 0.35340 0.07010 0.40900
C 	C 	0.71440 0.24110 0.90320 -0.10800
H 	H 	0.69080 0.23840 0.83920 0.36200
C 	C 	0.74970 0.36720 0.61620 0.32100
Br	Br	0.82970 0.39240 0.10670 -0.04000
C 	C 	0.81990 0.37490 0.09350 -0.34400
Br	Br	0.66360 0.23220 0.76680 0.05300
C 	C 	0.67420 0.23440 0.79550 -0.37500
Zn	Zn	0.70638 0.58733 0.70635 1.22900
O 	O 	0.78220 0.58130 0.92820 -0.47400
O 	O 	0.71780 0.64710 0.80010 -0.45300
O 	O 	0.78310 0.58190 0.63620 -0.47500
O 	O 	0.71750 0.64720 0.63560 -0.46900
O 	O 	0.63550 0.56530 0.63420 -0.46300
C 	C 	0.75160 0.63270 0.88710 0.30900
C 	C 	0.74820 0.69990 0.94610 0.07600
C 	C 	0.78310 0.69010 0.04490 -0.15500
H 	H 	0.80360 0.64660 0.07010 0.41500
C 	C 	0.71440 0.75890 0.90320 -0.13000
H 	H 	0.69080 0.76160 0.83920 0.36100
C 	C 	0.74970 0.63280 0.61620 0.32800
Br	Br	0.82970 0.60760 0.10670 -0.04300
C 	C 	0.81990 0.62510 0.09350 -0.34000
Br	Br	0.66360 0.76780 0.76680 0.05600
C 	C 	0.67420 0.76560 0.79550 -0.35600
Zn	Zn	0.79362 0.08733 0.29365 1.22600
O 	O 	0.71780 0.08130 0.07180 -0.48400
O 	O 	0.78220 0.14710 0.19990 -0.45800
O 	O 	0.71690 0.08190 0.36380 -0.48700
O 	O 	0.78250 0.14720 0.36440 -0.47600
O 	O 	0.86450 0.06530 0.36580 -0.45900
C 	C 	0.74840 0.13270 0.11290 0.30700
C 	C 	0.75180 0.19990 0.05390 0.07300
C 	C 	0.71690 0.19010 0.95510 -0.16700
H 	H 	0.69640 0.14660 0.92990 0.43400
C 	C 	0.78560 0.25890 0.09680 -0.12800
H 	H 	0.80920 0.26160 0.16080 0.36700
C 	C 	0.75030 0.13280 0.38380 0.32000
Br	Br	0.67030 0.10760 0.89330 -0.06200
C 	C 	0.68010 0.12510 0.90650 -0.35800
Br	Br	0.83640 0.26780 0.23320 0.04900
C 	C 	0.82580 0.26560 0.20450 -0.36900
Zn	Zn	0.70623 0.00000 0.11874 1.22300
Zn	Zn	0.70653 0.00000 0.29383 1.21600
O 	O 	0.75110 0.00000 0.25140 -0.97900
O 	O 	0.63560 0.00000 0.06980 -0.49400
O 	O 	0.63560 0.00000 0.19970 -0.48000
C 	C 	0.61610 0.00000 0.11200 0.32200
C 	C 	0.88480 0.00000 0.38400 0.24900
Zn	Zn	0.79377 0.50000 0.88126 1.23300
Zn	Zn	0.79347 0.50000 0.70617 1.22600
O 	O 	0.74890 0.50000 0.74860 -0.95600
O 	O 	0.86440 0.50000 0.93020 -0.48100
O 	O 	0.86440 0.50000 0.80030 -0.46500
C 	C 	0.88390 0.50000 0.88800 0.33200
C 	C 	0.61520 0.50000 0.61600 0.31700
