data_crystal

_cell_length_a 10.27300
_cell_length_b 11.31800
_cell_length_c 16.46100
_cell_angle_alpha 90.00000
_cell_angle_beta  100.06400
_cell_angle_gamma 90.00000

_symmetry_space_group_name_	'P 1'
_symmetry_space_group_name_H-M	'P 1'

loop_
_symmetry_equiv_pos_as_xyz
  x,y,z

loop_
_atom_site_label
_atom_site_type_symbol
_atom_site_fract_x
_atom_site_fract_y
_atom_site_fract_z
_atom_site_charge
In	In	0.73797 0.19724 0.07669 1.97900
Br	Br	0.71171 0.36718 0.96834 -0.40000
O 	O 	0.10560 0.79980 0.33910 -0.42900
O 	O 	0.57220 0.66220 0.45800 -0.43100
O 	O 	0.76670 0.05520 0.16710 -0.58200
O 	O 	0.04310 0.67380 0.42550 -0.42800
O 	O 	0.41980 0.75210 0.36470 -0.52800
C 	C 	0.68000 0.97900 0.17550 0.48600
O 	O 	0.57480 0.96030 0.12750 -0.42300
C 	C 	0.61200 0.85020 0.28640 0.08300
H 	H 	0.52410 0.86850 0.26610 0.05500
C 	C 	0.84360 0.87170 0.28100 0.07200
H 	H 	0.91110 0.90870 0.25960 0.06500
O 	O 	0.67150 0.07410 0.98600 -0.53400
C 	C 	0.01500 0.75220 0.37010 0.32100
C 	C 	0.53780 0.72430 0.39500 0.40200
C 	C 	0.71270 0.89950 0.25030 -0.11900
C 	C 	0.64400 0.77370 0.35260 -0.10500
C 	C 	0.77560 0.73970 0.37920 0.06100
H 	H 	0.79650 0.68400 0.42100 0.05800
C 	C 	0.87390 0.78930 0.34320 -0.08600
In	In	0.26203 0.69724 0.42331 1.99300
Br	Br	0.28829 0.86718 0.53166 -0.41900
O 	O 	0.89440 0.29980 0.16090 -0.45000
O 	O 	0.42780 0.16220 0.04200 -0.46900
O 	O 	0.23330 0.55520 0.33290 -0.50700
O 	O 	0.95690 0.17380 0.07450 -0.46700
O 	O 	0.58020 0.25210 0.13530 -0.55100
C 	C 	0.32000 0.47900 0.32450 0.40700
O 	O 	0.42520 0.46030 0.37250 -0.42400
C 	C 	0.38800 0.35020 0.21360 0.07300
H 	H 	0.47590 0.36850 0.23390 0.04700
C 	C 	0.15640 0.37170 0.21900 0.06000
H 	H 	0.08890 0.40870 0.24040 0.05500
O 	O 	0.32850 0.57410 0.51400 -0.55900
C 	C 	0.98500 0.25220 0.12990 0.31600
C 	C 	0.46220 0.22430 0.10500 0.39900
C 	C 	0.28730 0.39950 0.24970 -0.11000
C 	C 	0.35600 0.27370 0.14740 -0.12100
C 	C 	0.22440 0.23970 0.12080 0.06000
H 	H 	0.20350 0.18400 0.07900 0.03800
C 	C 	0.12610 0.28930 0.15680 -0.09600
In	In	0.26203 0.80276 0.92331 2.00400
Br	Br	0.28829 0.63282 0.03166 -0.50200
O 	O 	0.89440 0.20020 0.66090 -0.44100
O 	O 	0.42780 0.33780 0.54200 -0.43500
O 	O 	0.23330 0.94480 0.83290 -0.43600
O 	O 	0.95690 0.32620 0.57450 -0.43000
O 	O 	0.58020 0.24790 0.63530 -0.53600
C 	C 	0.32000 0.02100 0.82450 0.33300
O 	O 	0.42520 0.03970 0.87250 -0.39800
C 	C 	0.38800 0.14980 0.71360 0.05300
H 	H 	0.47590 0.13150 0.73390 0.05300
C 	C 	0.15640 0.12830 0.71900 0.03900
H 	H 	0.08890 0.09130 0.74040 0.05500
O 	O 	0.32850 0.92590 0.01400 -0.55600
C 	C 	0.98500 0.24780 0.62990 0.31300
C 	C 	0.46220 0.27570 0.60500 0.39500
C 	C 	0.28730 0.10050 0.74970 -0.08500
C 	C 	0.35600 0.22630 0.64740 -0.10000
C 	C 	0.22440 0.26030 0.62080 0.04600
H 	H 	0.20350 0.31600 0.57900 0.06000
C 	C 	0.12610 0.21070 0.65680 -0.07700
In	In	0.73797 0.30276 0.57669 1.99300
Br	Br	0.71171 0.13282 0.46834 -0.49100
O 	O 	0.10560 0.70020 0.83910 -0.42100
O 	O 	0.57220 0.83780 0.95800 -0.38400
O 	O 	0.76670 0.44480 0.66710 -0.50300
O 	O 	0.04310 0.82620 0.92550 -0.39500
O 	O 	0.41980 0.74790 0.86470 -0.51300
C 	C 	0.68000 0.52100 0.67550 0.40400
O 	O 	0.57480 0.53970 0.62750 -0.41700
C 	C 	0.61200 0.64980 0.78640 0.05900
H 	H 	0.52410 0.63150 0.76610 0.06000
C 	C 	0.84360 0.62830 0.78100 0.04600
H 	H 	0.91110 0.59130 0.75960 0.06700
O 	O 	0.67150 0.42590 0.48600 -0.56200
C 	C 	0.01500 0.74780 0.87010 0.31000
C 	C 	0.53780 0.77570 0.89500 0.39300
C 	C 	0.71270 0.60050 0.75030 -0.09000
C 	C 	0.64400 0.72630 0.85260 -0.08100
C 	C 	0.77560 0.76030 0.87920 0.04200
H 	H 	0.79650 0.81600 0.92100 0.08100
C 	C 	0.87390 0.71070 0.84320 -0.05800
Co	Co	0.50000 0.00000 -0.00000 1.12700
Co	Co	0.50000 0.50000 0.50000 1.18600
