data_crystal

_cell_length_a 19.33290
_cell_length_b 19.33290
_cell_length_c 19.33290
_cell_angle_alpha 90.00000
_cell_angle_beta  90.00000
_cell_angle_gamma 90.00000

_symmetry_space_group_name_	'P 1'
_symmetry_space_group_name_H-M	'P 1'

loop_
_symmetry_equiv_pos_as_xyz
  x,y,z

loop_
_atom_site_label
_atom_site_type_symbol
_atom_site_fract_x
_atom_site_fract_y
_atom_site_fract_z
_atom_site_charge
N 	N 	0.57400 0.07970 0.12970 -0.22300
C 	C 	0.63700 0.08460 0.15990 0.06200
H 	H 	0.65130 0.05580 0.19560 -0.06700
N 	N 	0.92600 0.42030 0.12970 -0.22100
C 	C 	0.86300 0.41540 0.15990 0.06200
H 	H 	0.84870 0.44420 0.19560 -0.06600
N 	N 	0.92600 0.07970 0.37030 -0.22100
C 	C 	0.86300 0.08460 0.34010 0.06100
H 	H 	0.84870 0.05580 0.30440 -0.06700
N 	N 	0.57400 0.42030 0.37030 -0.22400
C 	C 	0.63700 0.41540 0.34010 0.06100
H 	H 	0.65130 0.44420 0.30440 -0.06700
N 	N 	0.12970 0.57400 0.07970 -0.22400
C 	C 	0.15990 0.63700 0.08460 0.06100
H 	H 	0.19560 0.65130 0.05580 -0.06800
N 	N 	0.12970 0.92600 0.42030 -0.22200
C 	C 	0.15990 0.86300 0.41540 0.06100
H 	H 	0.19560 0.84870 0.44420 -0.06700
N 	N 	0.37030 0.92600 0.07970 -0.22100
C 	C 	0.34010 0.86300 0.08460 0.06100
H 	H 	0.30440 0.84870 0.05580 -0.06700
N 	N 	0.37030 0.57400 0.42030 -0.22400
C 	C 	0.34010 0.63700 0.41540 0.06100
H 	H 	0.30440 0.65130 0.44420 -0.06700
N 	N 	0.07970 0.12970 0.57400 -0.22400
C 	C 	0.08460 0.15990 0.63700 0.06100
H 	H 	0.05580 0.19560 0.65130 -0.06800
N 	N 	0.42030 0.12970 0.92600 -0.22200
C 	C 	0.41540 0.15990 0.86300 0.06100
H 	H 	0.44420 0.19560 0.84870 -0.06700
N 	N 	0.07970 0.37030 0.92600 -0.22100
C 	C 	0.08460 0.34010 0.86300 0.06100
H 	H 	0.05580 0.30440 0.84870 -0.06700
N 	N 	0.42030 0.37030 0.57400 -0.22400
C 	C 	0.41540 0.34010 0.63700 0.06100
H 	H 	0.44420 0.30440 0.65130 -0.06700
N 	N 	0.42030 0.92600 0.12970 -0.22200
C 	C 	0.41540 0.86300 0.15990 0.06100
H 	H 	0.44420 0.84870 0.19560 -0.06700
N 	N 	0.07970 0.57400 0.12970 -0.22400
C 	C 	0.08460 0.63700 0.15990 0.06100
H 	H 	0.05580 0.65130 0.19560 -0.06800
N 	N 	0.42030 0.57400 0.37030 -0.22400
C 	C 	0.41540 0.63700 0.34010 0.06100
H 	H 	0.44420 0.65130 0.30440 -0.06700
N 	N 	0.07970 0.92600 0.37030 -0.22100
C 	C 	0.08460 0.86300 0.34010 0.06100
H 	H 	0.05580 0.84870 0.30440 -0.06700
N 	N 	0.92600 0.37030 0.07970 -0.22100
C 	C 	0.86300 0.34010 0.08460 0.06100
H 	H 	0.84870 0.30440 0.05580 -0.06700
N 	N 	0.57400 0.37030 0.42030 -0.22400
C 	C 	0.63700 0.34010 0.41540 0.06100
H 	H 	0.65130 0.30440 0.44420 -0.06700
N 	N 	0.57400 0.12970 0.07970 -0.22400
C 	C 	0.63700 0.15990 0.08460 0.06100
H 	H 	0.65130 0.19560 0.05580 -0.06800
N 	N 	0.92600 0.12970 0.42030 -0.22200
C 	C 	0.86300 0.15990 0.41540 0.06100
H 	H 	0.84870 0.19560 0.44420 -0.06700
N 	N 	0.37030 0.42030 0.57400 -0.22400
C 	C 	0.34010 0.41540 0.63700 0.06100
H 	H 	0.30440 0.44420 0.65130 -0.06700
N 	N 	0.37030 0.07970 0.92600 -0.22100
C 	C 	0.34010 0.08460 0.86300 0.06100
H 	H 	0.30440 0.05580 0.84870 -0.06700
N 	N 	0.12970 0.42030 0.92600 -0.22200
C 	C 	0.15990 0.41540 0.86300 0.06100
H 	H 	0.19560 0.44420 0.84870 -0.06700
N 	N 	0.12970 0.07970 0.57400 -0.22400
C 	C 	0.15990 0.08460 0.63700 0.06100
H 	H 	0.19560 0.05580 0.65130 -0.06800
Ag	Ag	0.49472 0.00528 0.13646 0.40500
Ag	Ag	0.00528 0.49472 0.13646 0.40500
Ag	Ag	0.00528 0.00528 0.36354 0.40200
Ag	Ag	0.49472 0.49472 0.36354 0.40700
Ag	Ag	0.13646 0.49472 0.00528 0.40500
Ag	Ag	0.13646 0.00528 0.49472 0.40500
Ag	Ag	0.36354 0.00528 0.00528 0.40200
Ag	Ag	0.36354 0.49472 0.49472 0.40700
Ag	Ag	0.00528 0.13646 0.49472 0.40500
Ag	Ag	0.49472 0.13646 0.00528 0.40500
Ag	Ag	0.00528 0.36354 0.00528 0.40200
Ag	Ag	0.49472 0.36354 0.49472 0.40700
Ag	Ag	0.76922 0.17434 0.17434 0.42500
N 	N 	0.67600 0.13390 0.13390 -0.24000
N 	N 	0.85560 0.22640 0.22640 -0.20900
C 	C 	0.92130 0.21300 0.21300 0.09600
H 	H 	0.93670 0.18070 0.18070 -0.10800
Ag	Ag	0.73078 0.32566 0.17434 0.42500
N 	N 	0.82400 0.36610 0.13390 -0.24000
N 	N 	0.64440 0.27360 0.22640 -0.20900
C 	C 	0.57870 0.28700 0.21300 0.09600
H 	H 	0.56330 0.31930 0.18070 -0.11000
Ag	Ag	0.73078 0.17434 0.32566 0.42500
N 	N 	0.82400 0.13390 0.36610 -0.24000
N 	N 	0.64440 0.22640 0.27360 -0.20900
C 	C 	0.57870 0.21300 0.28700 0.09600
H 	H 	0.56330 0.18070 0.31930 -0.11000
Ag	Ag	0.76922 0.32566 0.32566 0.42500
N 	N 	0.67600 0.36610 0.36610 -0.24100
N 	N 	0.85560 0.27360 0.27360 -0.20900
C 	C 	0.92130 0.28700 0.28700 0.09600
H 	H 	0.93670 0.31930 0.31930 -0.10900
Ag	Ag	0.17434 0.76922 0.17434 0.42500
N 	N 	0.13390 0.67600 0.13390 -0.24000
N 	N 	0.22640 0.85560 0.22640 -0.20900
C 	C 	0.21300 0.92130 0.21300 0.09600
H 	H 	0.18070 0.93670 0.18070 -0.10800
Ag	Ag	0.17434 0.73078 0.32566 0.42500
N 	N 	0.13390 0.82400 0.36610 -0.24000
N 	N 	0.22640 0.64440 0.27360 -0.20900
C 	C 	0.21300 0.57870 0.28700 0.09600
H 	H 	0.18070 0.56330 0.31930 -0.11000
Ag	Ag	0.32566 0.73078 0.17434 0.42500
N 	N 	0.36610 0.82400 0.13390 -0.24000
N 	N 	0.27360 0.64440 0.22640 -0.20900
C 	C 	0.28700 0.57870 0.21300 0.09600
H 	H 	0.31930 0.56330 0.18070 -0.11000
Ag	Ag	0.32566 0.76922 0.32566 0.42500
N 	N 	0.36610 0.67600 0.36610 -0.24100
N 	N 	0.27360 0.85560 0.27360 -0.20900
C 	C 	0.28700 0.92130 0.28700 0.09600
H 	H 	0.31930 0.93670 0.31930 -0.10900
Ag	Ag	0.17434 0.17434 0.76922 0.42500
N 	N 	0.13390 0.13390 0.67600 -0.24000
N 	N 	0.22640 0.22640 0.85560 -0.20900
C 	C 	0.21300 0.21300 0.92130 0.09600
H 	H 	0.18070 0.18070 0.93670 -0.10800
Ag	Ag	0.32566 0.17434 0.73078 0.42500
N 	N 	0.36610 0.13390 0.82400 -0.24000
N 	N 	0.27360 0.22640 0.64440 -0.20900
C 	C 	0.28700 0.21300 0.57870 0.09600
H 	H 	0.31930 0.18070 0.56330 -0.11000
Ag	Ag	0.17434 0.32566 0.73078 0.42500
N 	N 	0.13390 0.36610 0.82400 -0.24000
N 	N 	0.22640 0.27360 0.64440 -0.20900
C 	C 	0.21300 0.28700 0.57870 0.09600
H 	H 	0.18070 0.31930 0.56330 -0.11000
Ag	Ag	0.32566 0.32566 0.76922 0.42500
N 	N 	0.36610 0.36610 0.67600 -0.24100
N 	N 	0.27360 0.27360 0.85560 -0.20900
C 	C 	0.28700 0.28700 0.92130 0.09600
H 	H 	0.31930 0.31930 0.93670 -0.10900
Ag	Ag	0.06260 0.22320 0.27680 0.23700
Ag	Ag	0.43740 0.27680 0.27680 0.23900
Ag	Ag	0.43740 0.22320 0.22320 0.23900
Ag	Ag	0.06260 0.27680 0.22320 0.23700
Ag	Ag	0.27680 0.06260 0.22320 0.23700
Ag	Ag	0.27680 0.43740 0.27680 0.23900
Ag	Ag	0.22320 0.43740 0.22320 0.23900
Ag	Ag	0.22320 0.06260 0.27680 0.23700
Ag	Ag	0.22320 0.27680 0.06260 0.23700
Ag	Ag	0.27680 0.27680 0.43740 0.23900
Ag	Ag	0.22320 0.22320 0.43740 0.23900
Ag	Ag	0.27680 0.22320 0.06260 0.23700
N 	N 	0.96030 0.25000 0.25000 -0.29400
N 	N 	0.53970 0.25000 0.25000 -0.29600
N 	N 	0.25000 0.96030 0.25000 -0.29400
N 	N 	0.25000 0.53970 0.25000 -0.29600
N 	N 	0.25000 0.25000 0.96030 -0.29400
N 	N 	0.25000 0.25000 0.53970 -0.29600
N 	N 	0.57970 0.07400 0.87030 -0.22200
C 	C 	0.58460 0.13700 0.84010 0.06100
H 	H 	0.55580 0.15130 0.80440 -0.06700
N 	N 	0.92030 0.42600 0.87030 -0.22400
C 	C 	0.91540 0.36300 0.84010 0.06100
H 	H 	0.94420 0.34870 0.80440 -0.06800
N 	N 	0.57970 0.42600 0.62970 -0.22400
C 	C 	0.58460 0.36300 0.65990 0.06100
H 	H 	0.55580 0.34870 0.69560 -0.06700
N 	N 	0.92030 0.07400 0.62970 -0.22100
C 	C 	0.91540 0.13700 0.65990 0.06100
H 	H 	0.94420 0.15130 0.69560 -0.06700
N 	N 	0.07400 0.62970 0.92030 -0.22100
C 	C 	0.13700 0.65990 0.91540 0.06100
H 	H 	0.15130 0.69560 0.94420 -0.06700
N 	N 	0.42600 0.62970 0.57970 -0.22400
C 	C 	0.36300 0.65990 0.58460 0.06100
H 	H 	0.34870 0.69560 0.55580 -0.06700
N 	N 	0.42600 0.87030 0.92030 -0.22400
C 	C 	0.36300 0.84010 0.91540 0.06100
H 	H 	0.34870 0.80440 0.94420 -0.06800
N 	N 	0.07400 0.87030 0.57970 -0.22200
C 	C 	0.13700 0.84010 0.58460 0.06100
H 	H 	0.15130 0.80440 0.55580 -0.06700
N 	N 	0.62970 0.57970 0.42600 -0.22400
C 	C 	0.65990 0.58460 0.36300 0.06100
H 	H 	0.69560 0.55580 0.34870 -0.06700
N 	N 	0.62970 0.92030 0.07400 -0.22100
C 	C 	0.65990 0.91540 0.13700 0.06100
H 	H 	0.69560 0.94420 0.15130 -0.06700
N 	N 	0.87030 0.57970 0.07400 -0.22200
C 	C 	0.84010 0.58460 0.13700 0.06100
H 	H 	0.80440 0.55580 0.15130 -0.06700
N 	N 	0.87030 0.92030 0.42600 -0.22400
C 	C 	0.84010 0.91540 0.36300 0.06100
H 	H 	0.80440 0.94420 0.34870 -0.06800
N 	N 	0.42600 0.92030 0.87030 -0.22400
C 	C 	0.36300 0.91540 0.84010 0.06100
H 	H 	0.34870 0.94420 0.80440 -0.06800
N 	N 	0.07400 0.57970 0.87030 -0.22200
C 	C 	0.13700 0.58460 0.84010 0.06100
H 	H 	0.15130 0.55580 0.80440 -0.06700
N 	N 	0.07400 0.92030 0.62970 -0.22100
C 	C 	0.13700 0.91540 0.65990 0.06100
H 	H 	0.15130 0.94420 0.69560 -0.06700
N 	N 	0.42600 0.57970 0.62970 -0.22400
C 	C 	0.36300 0.58460 0.65990 0.06100
H 	H 	0.34870 0.55580 0.69560 -0.06700
N 	N 	0.87030 0.42600 0.92030 -0.22400
C 	C 	0.84010 0.36300 0.91540 0.06100
H 	H 	0.80440 0.34870 0.94420 -0.06800
N 	N 	0.87030 0.07400 0.57970 -0.22200
C 	C 	0.84010 0.13700 0.58460 0.06100
H 	H 	0.80440 0.15130 0.55580 -0.06700
N 	N 	0.62970 0.07400 0.92030 -0.22100
C 	C 	0.65990 0.13700 0.91540 0.06100
H 	H 	0.69560 0.15130 0.94420 -0.06700
N 	N 	0.62970 0.42600 0.57970 -0.22400
C 	C 	0.65990 0.36300 0.58460 0.06100
H 	H 	0.69560 0.34870 0.55580 -0.06700
N 	N 	0.92030 0.87030 0.42600 -0.22400
C 	C 	0.91540 0.84010 0.36300 0.06100
H 	H 	0.94420 0.80440 0.34870 -0.06800
N 	N 	0.57970 0.87030 0.07400 -0.22200
C 	C 	0.58460 0.84010 0.13700 0.06100
H 	H 	0.55580 0.80440 0.15130 -0.06700
N 	N 	0.92030 0.62970 0.07400 -0.22100
C 	C 	0.91540 0.65990 0.13700 0.06100
H 	H 	0.94420 0.69560 0.15130 -0.06700
N 	N 	0.57970 0.62970 0.42600 -0.22400
C 	C 	0.58460 0.65990 0.36300 0.06100
H 	H 	0.55580 0.69560 0.34870 -0.06700
Ag	Ag	0.50528 0.99472 0.86354 0.40500
Ag	Ag	0.99472 0.50528 0.86354 0.40500
Ag	Ag	0.50528 0.50528 0.63646 0.40700
Ag	Ag	0.99472 0.99472 0.63646 0.40200
Ag	Ag	0.99472 0.63646 0.99472 0.40200
Ag	Ag	0.50528 0.63646 0.50528 0.40700
Ag	Ag	0.50528 0.86354 0.99472 0.40500
Ag	Ag	0.99472 0.86354 0.50528 0.40500
Ag	Ag	0.63646 0.50528 0.50528 0.40700
Ag	Ag	0.63646 0.99472 0.99472 0.40200
Ag	Ag	0.86354 0.50528 0.99472 0.40500
Ag	Ag	0.86354 0.99472 0.50528 0.40500
Ag	Ag	0.67434 0.26922 0.82566 0.42500
N 	N 	0.63390 0.17600 0.86610 -0.24000
N 	N 	0.72640 0.35560 0.77360 -0.20900
C 	C 	0.71300 0.42130 0.78700 0.09600
H 	H 	0.68070 0.43670 0.81930 -0.11000
Ag	Ag	0.82566 0.23078 0.82566 0.42500
N 	N 	0.86610 0.32400 0.86610 -0.24000
N 	N 	0.77360 0.14440 0.77360 -0.20900
C 	C 	0.78700 0.07870 0.78700 0.09600
H 	H 	0.81930 0.06330 0.81930 -0.10800
Ag	Ag	0.67434 0.23078 0.67434 0.42500
N 	N 	0.63390 0.32400 0.63390 -0.24100
N 	N 	0.72640 0.14440 0.72640 -0.20900
C 	C 	0.71300 0.07870 0.71300 0.09600
H 	H 	0.68070 0.06330 0.68070 -0.10900
Ag	Ag	0.82566 0.26922 0.67434 0.42500
N 	N 	0.86610 0.17600 0.63390 -0.24000
N 	N 	0.77360 0.35560 0.72640 -0.20900
C 	C 	0.78700 0.42130 0.71300 0.09600
H 	H 	0.81930 0.43670 0.68070 -0.11000
Ag	Ag	0.26922 0.67434 0.82566 0.42500
N 	N 	0.17600 0.63390 0.86610 -0.24000
N 	N 	0.35560 0.72640 0.77360 -0.20900
C 	C 	0.42130 0.71300 0.78700 0.09600
H 	H 	0.43670 0.68070 0.81930 -0.11000
Ag	Ag	0.23078 0.67434 0.67434 0.42500
N 	N 	0.32400 0.63390 0.63390 -0.24100
N 	N 	0.14440 0.72640 0.72640 -0.20900
C 	C 	0.07870 0.71300 0.71300 0.09600
H 	H 	0.06330 0.68070 0.68070 -0.10900
Ag	Ag	0.23078 0.82566 0.82566 0.42500
N 	N 	0.32400 0.86610 0.86610 -0.24000
N 	N 	0.14440 0.77360 0.77360 -0.20900
C 	C 	0.07870 0.78700 0.78700 0.09600
H 	H 	0.06330 0.81930 0.81930 -0.10800
Ag	Ag	0.26922 0.82566 0.67434 0.42500
N 	N 	0.17600 0.86610 0.63390 -0.24000
N 	N 	0.35560 0.77360 0.72640 -0.20900
C 	C 	0.42130 0.78700 0.71300 0.09600
H 	H 	0.43670 0.81930 0.68070 -0.11000
Ag	Ag	0.67434 0.67434 0.23078 0.42500
N 	N 	0.63390 0.63390 0.32400 -0.24100
N 	N 	0.72640 0.72640 0.14440 -0.20900
C 	C 	0.71300 0.71300 0.07870 0.09600
H 	H 	0.68070 0.68070 0.06330 -0.10900
Ag	Ag	0.67434 0.82566 0.26922 0.42500
N 	N 	0.63390 0.86610 0.17600 -0.24000
N 	N 	0.72640 0.77360 0.35560 -0.20900
C 	C 	0.71300 0.78700 0.42130 0.09600
H 	H 	0.68070 0.81930 0.43670 -0.11000
Ag	Ag	0.82566 0.67434 0.26922 0.42500
N 	N 	0.86610 0.63390 0.17600 -0.24000
N 	N 	0.77360 0.72640 0.35560 -0.20900
C 	C 	0.78700 0.71300 0.42130 0.09600
H 	H 	0.81930 0.68070 0.43670 -0.11000
Ag	Ag	0.82566 0.82566 0.23078 0.42500
N 	N 	0.86610 0.86610 0.32400 -0.24000
N 	N 	0.77360 0.77360 0.14440 -0.20900
C 	C 	0.78700 0.78700 0.07870 0.09600
H 	H 	0.81930 0.81930 0.06330 -0.10800
Ag	Ag	0.72320 0.56260 0.72320 0.23900
Ag	Ag	0.77680 0.93740 0.72320 0.23700
Ag	Ag	0.72320 0.93740 0.77680 0.23700
Ag	Ag	0.77680 0.56260 0.77680 0.23900
Ag	Ag	0.56260 0.77680 0.77680 0.23900
Ag	Ag	0.93740 0.77680 0.72320 0.23700
Ag	Ag	0.93740 0.72320 0.77680 0.23700
Ag	Ag	0.56260 0.72320 0.72320 0.23900
Ag	Ag	0.77680 0.72320 0.93740 0.23700
Ag	Ag	0.77680 0.77680 0.56260 0.23900
Ag	Ag	0.72320 0.72320 0.56260 0.23900
Ag	Ag	0.72320 0.77680 0.93740 0.23700
N 	N 	0.75000 0.46030 0.75000 -0.29600
N 	N 	0.75000 0.03970 0.75000 -0.29400
N 	N 	0.46030 0.75000 0.75000 -0.29600
N 	N 	0.03970 0.75000 0.75000 -0.29400
N 	N 	0.75000 0.75000 0.03970 -0.29400
N 	N 	0.75000 0.75000 0.46030 -0.29600
