data_crystal

_cell_length_a 18.85750
_cell_length_b 21.81470
_cell_length_c 12.88370
_cell_angle_alpha 90.00000
_cell_angle_beta  90.00000
_cell_angle_gamma 90.00000

_symmetry_space_group_name_	'P 1'
_symmetry_space_group_name_H-M	'P 1'

loop_
_symmetry_equiv_pos_as_xyz
  x,y,z

loop_
_atom_site_label
_atom_site_type_symbol
_atom_site_fract_x
_atom_site_fract_y
_atom_site_fract_z
_atom_site_charge
O 	O 	0.41258 0.66582 0.73960 -0.59400
O 	O 	0.30651 0.67736 0.66730 -0.61100
O 	O 	0.43080 0.31685 0.35610 -0.55300
O 	O 	0.32030 0.31798 0.29160 -0.56400
O 	O 	0.06260 0.68480 0.64150 -0.60300
O 	O 	0.15890 0.67233 0.54750 -0.55400
C 	C 	0.37060 0.58630 0.63110 -0.18400
C 	C 	0.43340 0.55300 0.64610 0.06700
H 	H 	0.46960 0.56940 0.68910 0.00500
C 	C 	0.44290 0.49810 0.60050 -0.12400
H 	H 	0.48470 0.47530 0.61530 0.06900
C 	C 	0.39240 0.47380 0.53150 0.02600
C 	C 	0.40310 0.41820 0.47700 -0.01100
H 	H 	0.44510 0.39520 0.48920 0.03400
C 	C 	0.35440 0.39670 0.40730 -0.14300
C 	C 	0.29120 0.43000 0.38990 0.03800
H 	H 	0.25690 0.41460 0.34260 0.02100
C 	C 	0.27900 0.48410 0.44040 -0.09400
H 	H 	0.23630 0.50600 0.42730 0.05800
C 	C 	0.32930 0.50830 0.51240 -0.00000
C 	C 	0.31940 0.56420 0.56510 0.01400
H 	H 	0.27690 0.58690 0.55490 0.02300
C 	C 	0.36270 0.64810 0.68360 0.52100
C 	C 	0.37000 0.33880 0.34610 0.50100
C 	C 	0.06950 0.59690 0.53450 -0.16100
C 	C 	0.00960 0.57170 0.57760 0.00400
H 	H 	0.98610 0.59260 0.63230 0.02600
C 	C 	0.98260 0.51510 0.54200 0.01300
C 	C 	0.07840 0.51280 0.41420 -0.10600
H 	H 	0.10200 0.49330 0.35790 0.06300
C 	C 	0.10390 0.56710 0.45140 0.04900
H 	H 	0.14500 0.58490 0.42120 0.01400
C 	C 	0.09830 0.65550 0.57720 0.48600
O 	O 	0.08742 0.33418 0.23960 -0.59200
O 	O 	0.19349 0.32264 0.16730 -0.61000
O 	O 	0.06920 0.68315 0.85610 -0.54900
O 	O 	0.17970 0.68202 0.79160 -0.56300
O 	O 	0.43740 0.31520 0.14150 -0.60500
O 	O 	0.34110 0.32767 0.04750 -0.55400
C 	C 	0.12940 0.41370 0.13110 -0.18400
C 	C 	0.06660 0.44700 0.14610 0.06700
H 	H 	0.03040 0.43060 0.18910 0.00600
C 	C 	0.05710 0.50190 0.10050 -0.12200
H 	H 	0.01530 0.52470 0.11530 0.06800
C 	C 	0.10760 0.52620 0.03150 0.02300
C 	C 	0.09690 0.58180 0.97700 -0.00700
H 	H 	0.05490 0.60480 0.98920 0.03400
C 	C 	0.14560 0.60330 0.90730 -0.14300
C 	C 	0.20880 0.57000 0.88990 0.03700
H 	H 	0.24310 0.58540 0.84260 0.02100
C 	C 	0.22100 0.51590 0.94040 -0.09000
H 	H 	0.26370 0.49400 0.92730 0.05700
C 	C 	0.17070 0.49170 0.01240 -0.00200
C 	C 	0.18060 0.43580 0.06510 0.01400
H 	H 	0.22310 0.41310 0.05490 0.02300
C 	C 	0.13730 0.35190 0.18360 0.52100
C 	C 	0.13000 0.66120 0.84610 0.50100
C 	C 	0.43050 0.40310 0.03450 -0.16100
C 	C 	0.49040 0.42830 0.07760 -0.00000
H 	H 	0.51390 0.40740 0.13230 0.02800
C 	C 	0.51740 0.48490 0.04200 0.01400
C 	C 	0.42160 0.48720 0.91420 -0.10700
H 	H 	0.39800 0.50670 0.85790 0.06400
C 	C 	0.39610 0.43290 0.95140 0.05000
H 	H 	0.35500 0.41510 0.92120 0.01500
C 	C 	0.40170 0.34450 0.07720 0.48700
O 	O 	0.58742 0.16582 0.26040 -0.59200
O 	O 	0.69349 0.17736 0.33270 -0.60900
O 	O 	0.56920 0.81685 0.64390 -0.55200
O 	O 	0.67970 0.81798 0.70840 -0.56400
O 	O 	0.93740 0.18480 0.35850 -0.60200
O 	O 	0.84110 0.17233 0.45250 -0.55300
C 	C 	0.62940 0.08630 0.36890 -0.18200
C 	C 	0.56660 0.05300 0.35390 0.06700
H 	H 	0.53040 0.06940 0.31090 0.00600
C 	C 	0.55710 0.99810 0.39950 -0.12200
H 	H 	0.51530 0.97530 0.38470 0.06800
C 	C 	0.60760 0.97380 0.46850 0.02200
C 	C 	0.59690 0.91820 0.52300 -0.00800
H 	H 	0.55490 0.89520 0.51080 0.03300
C 	C 	0.64560 0.89670 0.59270 -0.14700
C 	C 	0.70880 0.93000 0.61010 0.04300
H 	H 	0.74310 0.91460 0.65740 0.01900
C 	C 	0.72100 0.98410 0.55960 -0.10400
H 	H 	0.76370 0.00600 0.57270 0.06200
C 	C 	0.67070 0.00830 0.48760 0.00700
C 	C 	0.68060 0.06420 0.43490 0.01000
H 	H 	0.72310 0.08690 0.44510 0.02500
C 	C 	0.63730 0.14810 0.31640 0.52100
C 	C 	0.63000 0.83880 0.65390 0.50200
C 	C 	0.93050 0.09690 0.46550 -0.16300
C 	C 	0.99040 0.07170 0.42240 0.01600
H 	H 	0.01390 0.09260 0.36770 0.02000
C 	C 	0.01740 0.01510 0.45800 0.00300
C 	C 	0.92160 0.01280 0.58580 -0.09200
H 	H 	0.89800 0.99330 0.64210 0.05600
C 	C 	0.89610 0.06710 0.54860 0.04400
H 	H 	0.85500 0.08490 0.57880 0.01600
C 	C 	0.90170 0.15550 0.42280 0.48700
O 	O 	0.91258 0.83418 0.76040 -0.59200
O 	O 	0.80651 0.82264 0.83270 -0.61000
O 	O 	0.93080 0.18315 0.14390 -0.54800
O 	O 	0.82030 0.18202 0.20840 -0.56300
O 	O 	0.56260 0.81520 0.85850 -0.60500
O 	O 	0.65890 0.82767 0.95250 -0.55400
C 	C 	0.87060 0.91370 0.86890 -0.18400
C 	C 	0.93340 0.94700 0.85390 0.06300
H 	H 	0.96960 0.93060 0.81090 0.00600
C 	C 	0.94290 0.00190 0.89950 -0.12000
H 	H 	0.98470 0.02470 0.88470 0.06800
C 	C 	0.89240 0.02620 0.96850 0.02800
C 	C 	0.90310 0.08180 0.02300 -0.01000
H 	H 	0.94510 0.10480 0.01080 0.03600
C 	C 	0.85440 0.10330 0.09270 -0.13900
C 	C 	0.79120 0.07000 0.11010 0.03000
H 	H 	0.75690 0.08540 0.15740 0.02400
C 	C 	0.77900 0.01590 0.05960 -0.07800
H 	H 	0.73630 0.99400 0.07270 0.05200
C 	C 	0.82930 0.99170 0.98760 -0.01200
C 	C 	0.81940 0.93580 0.93490 0.01800
H 	H 	0.77690 0.91310 0.94510 0.02100
C 	C 	0.86270 0.85190 0.81640 0.52100
C 	C 	0.87000 0.16120 0.15390 0.49900
C 	C 	0.56950 0.90310 0.96550 -0.16200
C 	C 	0.50960 0.92830 0.92240 -0.00100
H 	H 	0.48610 0.90740 0.86770 0.02800
C 	C 	0.48260 0.98490 0.95800 0.01400
C 	C 	0.57840 0.98720 0.08580 -0.10900
H 	H 	0.60200 0.00670 0.14210 0.06500
C 	C 	0.60390 0.93290 0.04860 0.05100
H 	H 	0.64500 0.91510 0.07880 0.01400
C 	C 	0.59830 0.84450 0.92280 0.48700
O 	O 	0.58742 0.33418 0.26040 -0.59300
O 	O 	0.69349 0.32264 0.33270 -0.61000
O 	O 	0.56920 0.68315 0.64390 -0.55200
O 	O 	0.67970 0.68202 0.70840 -0.56300
O 	O 	0.93740 0.31520 0.35850 -0.60200
O 	O 	0.84110 0.32767 0.45250 -0.55300
C 	C 	0.62940 0.41370 0.36890 -0.18300
C 	C 	0.56660 0.44700 0.35390 0.06800
H 	H 	0.53040 0.43060 0.31090 0.00600
C 	C 	0.55710 0.50190 0.39950 -0.12300
H 	H 	0.51530 0.52470 0.38470 0.06900
C 	C 	0.60760 0.52620 0.46850 0.02600
C 	C 	0.59690 0.58180 0.52300 -0.01100
H 	H 	0.55490 0.60480 0.51080 0.03400
C 	C 	0.64560 0.60330 0.59270 -0.14300
C 	C 	0.70880 0.57000 0.61010 0.03800
H 	H 	0.74310 0.58540 0.65740 0.02100
C 	C 	0.72100 0.51590 0.55960 -0.09400
H 	H 	0.76370 0.49400 0.57270 0.05800
C 	C 	0.67070 0.49170 0.48760 -0.00000
C 	C 	0.68060 0.43580 0.43490 0.01400
H 	H 	0.72310 0.41310 0.44510 0.02300
C 	C 	0.63730 0.35190 0.31640 0.52100
C 	C 	0.63000 0.66120 0.65390 0.50100
C 	C 	0.93050 0.40310 0.46550 -0.16100
C 	C 	0.99040 0.42830 0.42240 0.00400
H 	H 	0.01390 0.40740 0.36770 0.02600
C 	C 	0.01740 0.48490 0.45800 0.01300
C 	C 	0.92160 0.48720 0.58580 -0.10600
H 	H 	0.89800 0.50670 0.64210 0.06300
C 	C 	0.89610 0.43290 0.54860 0.04900
H 	H 	0.85500 0.41510 0.57880 0.01400
C 	C 	0.90170 0.34450 0.42280 0.48600
O 	O 	0.91258 0.66582 0.76040 -0.59200
O 	O 	0.80651 0.67736 0.83270 -0.61000
O 	O 	0.93080 0.31685 0.14390 -0.54900
O 	O 	0.82030 0.31798 0.20840 -0.56300
O 	O 	0.56260 0.68480 0.85850 -0.60500
O 	O 	0.65890 0.67233 0.95250 -0.55400
C 	C 	0.87060 0.58630 0.86890 -0.18400
C 	C 	0.93340 0.55300 0.85390 0.06700
H 	H 	0.96960 0.56940 0.81090 0.00600
C 	C 	0.94290 0.49810 0.89950 -0.12200
H 	H 	0.98470 0.47530 0.88470 0.06800
C 	C 	0.89240 0.47380 0.96850 0.02300
C 	C 	0.90310 0.41820 0.02300 -0.00700
H 	H 	0.94510 0.39520 0.01080 0.03400
C 	C 	0.85440 0.39670 0.09270 -0.14300
C 	C 	0.79120 0.43000 0.11010 0.03700
H 	H 	0.75690 0.41460 0.15740 0.02100
C 	C 	0.77900 0.48410 0.05960 -0.09000
H 	H 	0.73630 0.50600 0.07270 0.05700
C 	C 	0.82930 0.50830 0.98760 -0.00200
C 	C 	0.81940 0.56420 0.93490 0.01400
H 	H 	0.77690 0.58690 0.94510 0.02300
C 	C 	0.86270 0.64810 0.81640 0.52100
C 	C 	0.87000 0.33880 0.15390 0.50100
C 	C 	0.56950 0.59690 0.96550 -0.16100
C 	C 	0.50960 0.57170 0.92240 -0.00000
H 	H 	0.48610 0.59260 0.86770 0.02800
C 	C 	0.48260 0.51510 0.95800 0.01400
C 	C 	0.57840 0.51280 0.08580 -0.10700
H 	H 	0.60200 0.49330 0.14210 0.06400
C 	C 	0.60390 0.56710 0.04860 0.05000
H 	H 	0.64500 0.58490 0.07880 0.01500
C 	C 	0.59830 0.65550 0.92280 0.48700
O 	O 	0.41258 0.83418 0.73960 -0.59200
O 	O 	0.30651 0.82264 0.66730 -0.60900
O 	O 	0.43080 0.18315 0.35610 -0.55200
O 	O 	0.32030 0.18202 0.29160 -0.56400
O 	O 	0.06260 0.81520 0.64150 -0.60200
O 	O 	0.15890 0.82767 0.54750 -0.55300
C 	C 	0.37060 0.91370 0.63110 -0.18200
C 	C 	0.43340 0.94700 0.64610 0.06700
H 	H 	0.46960 0.93060 0.68910 0.00600
C 	C 	0.44290 0.00190 0.60050 -0.12200
H 	H 	0.48470 0.02470 0.61530 0.06800
C 	C 	0.39240 0.02620 0.53150 0.02200
C 	C 	0.40310 0.08180 0.47700 -0.00800
H 	H 	0.44510 0.10480 0.48920 0.03300
C 	C 	0.35440 0.10330 0.40730 -0.14700
C 	C 	0.29120 0.07000 0.38990 0.04300
H 	H 	0.25690 0.08540 0.34260 0.01900
C 	C 	0.27900 0.01590 0.44040 -0.10400
H 	H 	0.23630 0.99400 0.42730 0.06200
C 	C 	0.32930 0.99170 0.51240 0.00700
C 	C 	0.31940 0.93580 0.56510 0.01000
H 	H 	0.27690 0.91310 0.55490 0.02500
C 	C 	0.36270 0.85190 0.68360 0.52100
C 	C 	0.37000 0.16120 0.34610 0.50200
C 	C 	0.06950 0.90310 0.53450 -0.16300
C 	C 	0.00960 0.92830 0.57760 0.01600
H 	H 	0.98610 0.90740 0.63230 0.02000
C 	C 	0.98260 0.98490 0.54200 0.00300
C 	C 	0.07840 0.98720 0.41420 -0.09200
H 	H 	0.10200 0.00670 0.35790 0.05600
C 	C 	0.10390 0.93290 0.45140 0.04400
H 	H 	0.14500 0.91510 0.42120 0.01600
C 	C 	0.09830 0.84450 0.57720 0.48700
O 	O 	0.08742 0.16582 0.23960 -0.59200
O 	O 	0.19349 0.17736 0.16730 -0.61000
O 	O 	0.06920 0.81685 0.85610 -0.54800
O 	O 	0.17970 0.81798 0.79160 -0.56300
O 	O 	0.43740 0.18480 0.14150 -0.60500
O 	O 	0.34110 0.17233 0.04750 -0.55400
C 	C 	0.12940 0.08630 0.13110 -0.18400
C 	C 	0.06660 0.05300 0.14610 0.06300
H 	H 	0.03040 0.06940 0.18910 0.00600
C 	C 	0.05710 0.99810 0.10050 -0.12000
H 	H 	0.01530 0.97530 0.11530 0.06800
C 	C 	0.10760 0.97380 0.03150 0.02800
C 	C 	0.09690 0.91820 0.97700 -0.01000
H 	H 	0.05490 0.89520 0.98920 0.03600
C 	C 	0.14560 0.89670 0.90730 -0.13900
C 	C 	0.20880 0.93000 0.88990 0.03000
H 	H 	0.24310 0.91460 0.84260 0.02400
C 	C 	0.22100 0.98410 0.94040 -0.07800
H 	H 	0.26370 0.00600 0.92730 0.05200
C 	C 	0.17070 0.00830 0.01240 -0.01200
C 	C 	0.18060 0.06420 0.06510 0.01800
H 	H 	0.22310 0.08690 0.05490 0.02100
C 	C 	0.13730 0.14810 0.18360 0.52100
C 	C 	0.13000 0.83880 0.84610 0.49900
C 	C 	0.43050 0.09690 0.03450 -0.16200
C 	C 	0.49040 0.07170 0.07760 -0.00100
H 	H 	0.51390 0.09260 0.13230 0.02800
C 	C 	0.51740 0.01510 0.04200 0.01400
C 	C 	0.42160 0.01280 0.91420 -0.10900
H 	H 	0.39800 0.99330 0.85790 0.06500
C 	C 	0.39610 0.06710 0.95140 0.05100
H 	H 	0.35500 0.08490 0.92120 0.01400
C 	C 	0.40170 0.15550 0.07720 0.48700
Nd	Nd	0.49467 0.75000 0.74718 2.21700
Nd	Nd	0.21465 0.75000 0.65527 2.31300
Nd	Nd	0.00533 0.25000 0.24718 2.20700
Nd	Nd	0.28535 0.25000 0.15527 2.31200
Nd	Nd	0.50533 0.25000 0.25282 2.21700
Nd	Nd	0.78535 0.25000 0.34473 2.31300
Nd	Nd	0.99467 0.75000 0.75282 2.20700
Nd	Nd	0.71465 0.75000 0.84473 2.31200
