data_crystal

_cell_length_a 11.95770
_cell_length_b 12.22160
_cell_length_c 13.50340
_cell_angle_alpha 102.53500
_cell_angle_beta  98.85700
_cell_angle_gamma 107.29300

_symmetry_space_group_name_	'P 1'
_symmetry_space_group_name_H-M	'P 1'

loop_
_symmetry_equiv_pos_as_xyz
  x,y,z

loop_
_atom_site_label
_atom_site_type_symbol
_atom_site_fract_x
_atom_site_fract_y
_atom_site_fract_z
_atom_site_charge
Nd	Nd	0.67572 0.52189 0.04646 2.04000
O 	O 	0.70740 0.73840 0.09160 -0.52000
O 	O 	0.51970 0.63320 0.01140 -0.59500
O 	O 	0.83960 0.59230 0.20900 -0.46800
O 	O 	0.72960 0.40270 0.16410 -0.41500
O 	O 	0.63190 0.54600 0.87100 0.43500
O 	O 	0.43140 0.48150 0.81680 -1.69000
O 	O 	0.38450 0.51480 0.14440 -0.95400
O 	O 	0.58450 0.56510 0.19240 1.07200
C 	C 	0.60300 0.73220 0.05040 0.40200
C 	C 	0.45560 0.94540 0.97260 0.01200
C 	C 	0.47780 0.83850 0.98120 -0.01500
H 	H 	0.42020 0.76310 0.94190 0.03700
C 	C 	0.57990 0.84360 0.04450 -0.13500
C 	C 	0.66900 0.95490 0.09910 0.02700
H 	H 	0.74200 0.95820 0.14110 0.01900
C 	C 	0.65010 0.05790 0.09170 -0.10300
H 	H 	0.70920 0.13260 0.13050 0.05800
C 	C 	0.80980 0.49140 0.22680 0.31800
C 	C 	0.01760 0.55730 0.49250 0.01700
C 	C 	0.95710 0.57000 0.39790 -0.04700
H 	H 	0.97950 0.64600 0.38490 0.04700
C 	C 	0.87040 0.47850 0.32740 -0.07300
C 	C 	0.83440 0.36390 0.34640 -0.00300
H 	H 	0.77260 0.29850 0.29630 0.03800
C 	C 	0.88880 0.34820 0.43620 -0.08600
H 	H 	0.86260 0.27280 0.44990 0.05100
C 	C 	0.53640 0.51600 0.80220 -0.54300
C 	C 	0.48420 0.54000 0.21190 1.16500
C 	C 	0.54700 0.52600 0.69500 -0.07100
C 	C 	0.66100 0.55400 0.66680 0.40000
H 	H 	0.73180 0.56860 0.71940 -0.14900
C 	C 	0.67200 0.56500 0.57500 0.11700
H 	H 	0.75110 0.58660 0.56080 -0.04000
C 	C 	0.56980 0.54600 0.49410 -0.46500
C 	C 	0.57400 0.55100 0.39110 -0.40600
H 	H 	0.65060 0.56740 0.37230 0.18300
C 	C 	0.47550 0.53700 0.31960 -0.05900
C 	C 	0.36050 0.51450 0.34650 -0.39000
H 	H 	0.29020 0.50410 0.29530 0.15500
C 	C 	0.35100 0.50300 0.44380 -0.20300
H 	H 	0.27330 0.48400 0.46000 0.09200
C 	C 	0.45250 0.52000 0.52040 0.44100
C 	C 	0.44660 0.51300 0.62270 0.41200
H 	H 	0.37010 0.49460 0.64100 -0.10800
Nd	Nd	0.32428 0.47811 0.95354 2.04000
O 	O 	0.29260 0.26160 0.90840 -0.52000
O 	O 	0.48030 0.36680 0.98860 -0.59500
O 	O 	0.16040 0.40770 0.79100 -0.46800
O 	O 	0.27040 0.59730 0.83590 -0.41500
O 	O 	0.36810 0.45400 0.12900 0.43500
O 	O 	0.56860 0.51850 0.18320 -1.69000
O 	O 	0.61550 0.48520 0.85560 -0.95400
O 	O 	0.41550 0.43490 0.80760 1.07200
C 	C 	0.39700 0.26780 0.94960 0.40200
C 	C 	0.54440 0.05460 0.02740 0.01200
C 	C 	0.52220 0.16150 0.01880 -0.01500
H 	H 	0.57980 0.23690 0.05810 0.03700
C 	C 	0.42010 0.15640 0.95550 -0.13500
C 	C 	0.33100 0.04510 0.90090 0.02700
H 	H 	0.25800 0.04180 0.85890 0.01900
C 	C 	0.34990 0.94210 0.90830 -0.10300
H 	H 	0.29080 0.86740 0.86950 0.05800
C 	C 	0.19020 0.50860 0.77320 0.31800
C 	C 	0.98240 0.44270 0.50750 0.01700
C 	C 	0.04290 0.43000 0.60210 -0.04700
H 	H 	0.02050 0.35400 0.61510 0.04700
C 	C 	0.12960 0.52150 0.67260 -0.07300
C 	C 	0.16560 0.63610 0.65360 -0.00300
H 	H 	0.22740 0.70150 0.70370 0.03800
C 	C 	0.11120 0.65180 0.56380 -0.08600
H 	H 	0.13740 0.72720 0.55010 0.05100
C 	C 	0.46360 0.48400 0.19780 -0.54300
C 	C 	0.51580 0.46000 0.78810 1.16500
C 	C 	0.45300 0.47400 0.30500 -0.07100
C 	C 	0.33900 0.44600 0.33320 0.40000
H 	H 	0.26820 0.43140 0.28060 -0.14900
C 	C 	0.32800 0.43500 0.42500 0.11700
H 	H 	0.24890 0.41340 0.43920 -0.04000
C 	C 	0.43020 0.45400 0.50590 -0.46500
C 	C 	0.42600 0.44900 0.60890 -0.40600
H 	H 	0.34940 0.43260 0.62770 0.18300
C 	C 	0.52450 0.46300 0.68040 -0.05900
C 	C 	0.63950 0.48550 0.65350 -0.39000
H 	H 	0.70980 0.49590 0.70470 0.15500
C 	C 	0.64900 0.49700 0.55620 -0.20300
H 	H 	0.72670 0.51600 0.54000 0.09200
C 	C 	0.54750 0.48000 0.47960 0.44100
C 	C 	0.55340 0.48700 0.37730 0.41200
H 	H 	0.62990 0.50540 0.35900 -0.10800
