data_crystal

_cell_length_a 13.85100
_cell_length_b 13.85100
_cell_length_c 58.35800
_cell_angle_alpha 90.00000
_cell_angle_beta  90.00000
_cell_angle_gamma 120.00000

_symmetry_space_group_name_	'P 1'
_symmetry_space_group_name_H-M	'P 1'

loop_
_symmetry_equiv_pos_as_xyz
  x,y,z

loop_
_atom_site_label
_atom_site_type_symbol
_atom_site_fract_x
_atom_site_fract_y
_atom_site_fract_z
_atom_site_charge
C 	C 	0.24660 0.15980 0.01775 0.00700
H 	H 	0.26000 0.21160 0.00630 0.02200
C 	C 	0.32360 0.16840 0.03312 0.00000
H 	H 	0.39780 0.22450 0.03410 0.03200
C 	C 	0.16370 0.01720 0.03898 0.06100
H 	H 	0.10950 0.95000 0.04530 0.02200
C 	C 	0.31430 0.04870 0.06586 0.10300
C 	C 	0.41740 0.12000 0.07442 -0.04800
H 	H 	0.46150 0.19070 0.06820 0.04900
N 	N 	0.14730 0.06550 0.02125 -0.23400
N 	N 	0.26900 0.07680 0.04698 -0.13000
N 	N 	0.24930 0.95060 0.07399 -0.08000
C 	C 	0.91327 0.49313 0.35108 -0.01800
H 	H 	0.92667 0.54493 0.33963 0.03700
C 	C 	0.99027 0.50173 0.36645 0.05500
H 	H 	0.06447 0.55783 0.36743 0.00100
C 	C 	0.83037 0.35053 0.37231 0.10800
H 	H 	0.77617 0.28333 0.37863 -0.00300
C 	C 	0.98097 0.38203 0.39919 0.18100
C 	C 	0.08407 0.45333 0.40775 -0.14700
H 	H 	0.12817 0.52403 0.40153 0.08100
N 	N 	0.81397 0.39883 0.35458 -0.23200
N 	N 	0.93567 0.41013 0.38031 -0.15300
N 	N 	0.91597 0.28393 0.40732 -0.10300
C 	C 	0.57993 0.82647 0.68442 0.00800
H 	H 	0.59333 0.87827 0.67297 0.02700
C 	C 	0.65693 0.83507 0.69979 0.00600
H 	H 	0.73113 0.89117 0.70077 0.03700
C 	C 	0.49703 0.68387 0.70565 0.10600
H 	H 	0.44283 0.61667 0.71197 -0.00100
C 	C 	0.64763 0.71537 0.73253 0.14300
C 	C 	0.75073 0.78667 0.74109 -0.08600
H 	H 	0.79483 0.85737 0.73487 0.06900
N 	N 	0.48063 0.73217 0.68792 -0.23600
N 	N 	0.60233 0.74347 0.71365 -0.14000
N 	N 	0.58263 0.61727 0.74066 -0.09600
C 	C 	0.84020 0.08680 0.01775 0.00500
H 	H 	0.78840 0.04840 0.00630 0.01900
C 	C 	0.83160 0.15520 0.03312 0.00600
H 	H 	0.77550 0.17330 0.03410 0.02900
C 	C 	0.98280 0.14650 0.03898 0.14500
H 	H 	0.05000 0.15950 0.04530 -0.03000
C 	C 	0.95130 0.26560 0.06586 0.17500
C 	C 	0.88000 0.29740 0.07442 -0.12700
H 	H 	0.80930 0.27080 0.06820 0.07700
N 	N 	0.93450 0.08180 0.02125 -0.24000
N 	N 	0.92320 0.19220 0.04698 -0.15100
N 	N 	0.04940 0.29870 0.07399 -0.11400
C 	C 	0.50687 0.42013 0.35108 0.00600
H 	H 	0.45507 0.38173 0.33963 0.02300
C 	C 	0.49827 0.48853 0.36645 0.00500
H 	H 	0.44217 0.50663 0.36743 0.03100
C 	C 	0.64947 0.47983 0.37231 0.10500
H 	H 	0.71667 0.49283 0.37863 0.00000
C 	C 	0.61797 0.59893 0.39919 0.14100
C 	C 	0.54667 0.63073 0.40775 -0.08600
H 	H 	0.47597 0.60413 0.40153 0.06300
N 	N 	0.60117 0.41513 0.35458 -0.23600
N 	N 	0.58987 0.52553 0.38031 -0.14000
N 	N 	0.71607 0.63203 0.40732 -0.09400
C 	C 	0.17353 0.75347 0.68442 0.00600
H 	H 	0.12173 0.71507 0.67297 0.02200
C 	C 	0.16493 0.82187 0.69979 0.00400
H 	H 	0.10883 0.83997 0.70077 0.03100
C 	C 	0.31613 0.81317 0.70565 0.10400
H 	H 	0.38333 0.82617 0.71197 0.00100
C 	C 	0.28463 0.93227 0.73253 0.12500
C 	C 	0.21333 0.96407 0.74109 -0.03600
H 	H 	0.14263 0.93747 0.73487 0.04700
N 	N 	0.26783 0.74847 0.68792 -0.23600
N 	N 	0.25653 0.85887 0.71365 -0.13700
N 	N 	0.38273 0.96537 0.74066 -0.08300
C 	C 	0.91320 0.75340 0.01775 0.00700
H 	H 	0.95160 0.74000 0.00630 0.03100
C 	C 	0.84480 0.67640 0.03312 0.00800
H 	H 	0.82670 0.60220 0.03410 0.03300
C 	C 	0.85350 0.83630 0.03898 0.10800
H 	H 	0.84050 0.89050 0.04530 0.00500
C 	C 	0.73440 0.68570 0.06586 0.14300
C 	C 	0.70260 0.58260 0.07442 -0.08800
H 	H 	0.72920 0.53850 0.06820 0.06500
N 	N 	0.91820 0.85270 0.02125 -0.22600
N 	N 	0.80780 0.73100 0.04698 -0.14000
N 	N 	0.70130 0.75070 0.07399 -0.09400
C 	C 	0.57987 0.08673 0.35108 0.02900
H 	H 	0.61827 0.07333 0.33963 0.01200
C 	C 	0.51147 0.00973 0.36645 -0.04600
H 	H 	0.49337 0.93553 0.36743 0.06200
C 	C 	0.52017 0.16963 0.37231 0.10200
H 	H 	0.50717 0.22383 0.37863 -0.00100
C 	C 	0.40107 0.01903 0.39919 0.10000
C 	C 	0.36927 0.91593 0.40775 -0.03000
H 	H 	0.39587 0.87183 0.40153 0.04700
N 	N 	0.58487 0.18603 0.35458 -0.23900
N 	N 	0.47447 0.06433 0.38031 -0.12900
N 	N 	0.36797 0.08403 0.40732 -0.09100
C 	C 	0.24653 0.42007 0.68442 0.00400
H 	H 	0.28493 0.40667 0.67297 0.02300
C 	C 	0.17813 0.34307 0.69979 0.00400
H 	H 	0.16003 0.26887 0.70077 0.02600
C 	C 	0.18683 0.50297 0.70565 0.10400
H 	H 	0.17383 0.55717 0.71197 -0.00300
C 	C 	0.06773 0.35237 0.73253 0.15300
C 	C 	0.03593 0.24927 0.74109 -0.14000
H 	H 	0.06253 0.20517 0.73487 0.07500
N 	N 	0.25153 0.51937 0.68792 -0.23600
N 	N 	0.14113 0.39767 0.71365 -0.14400
N 	N 	0.03463 0.41737 0.74066 -0.10900
C 	C 	0.15980 0.24660 0.48225 0.00600
H 	H 	0.21160 0.26000 0.49370 0.02200
C 	C 	0.16840 0.32360 0.46688 0.00000
H 	H 	0.22450 0.39780 0.46590 0.03200
C 	C 	0.01720 0.16370 0.46102 0.06100
H 	H 	0.95000 0.10950 0.45470 0.02200
C 	C 	0.04870 0.31430 0.43414 0.10300
C 	C 	0.12000 0.41740 0.42558 -0.04800
H 	H 	0.19070 0.46150 0.43180 0.04900
N 	N 	0.06550 0.14730 0.47875 -0.23400
N 	N 	0.07680 0.26900 0.45302 -0.13000
N 	N 	0.95060 0.24930 0.42601 -0.08000
C 	C 	0.82647 0.57993 0.81558 0.00800
H 	H 	0.87827 0.59333 0.82703 0.02700
C 	C 	0.83507 0.65693 0.80021 0.00600
H 	H 	0.89117 0.73113 0.79923 0.03700
C 	C 	0.68387 0.49703 0.79435 0.10600
H 	H 	0.61667 0.44283 0.78803 -0.00100
C 	C 	0.71537 0.64763 0.76747 0.14300
C 	C 	0.78667 0.75073 0.75891 -0.08600
H 	H 	0.85737 0.79483 0.76513 0.06900
N 	N 	0.73217 0.48063 0.81208 -0.23600
N 	N 	0.74347 0.60233 0.78635 -0.14000
N 	N 	0.61727 0.58263 0.75934 -0.09600
C 	C 	0.49313 0.91327 0.14892 -0.01800
H 	H 	0.54493 0.92667 0.16037 0.03700
C 	C 	0.50173 0.99027 0.13355 0.05500
H 	H 	0.55783 0.06447 0.13257 0.00100
C 	C 	0.35053 0.83037 0.12769 0.10800
H 	H 	0.28333 0.77617 0.12137 -0.00300
C 	C 	0.38203 0.98097 0.10081 0.18100
C 	C 	0.45333 0.08407 0.09225 -0.14700
H 	H 	0.52403 0.12817 0.09847 0.08100
N 	N 	0.39883 0.81397 0.14542 -0.23200
N 	N 	0.41013 0.93567 0.11969 -0.15300
N 	N 	0.28393 0.91597 0.09268 -0.10300
C 	C 	0.08680 0.84020 0.48225 0.00500
H 	H 	0.04840 0.78840 0.49370 0.01900
C 	C 	0.15520 0.83160 0.46688 0.00600
H 	H 	0.17330 0.77550 0.46590 0.02900
C 	C 	0.14650 0.98280 0.46102 0.14500
H 	H 	0.15950 0.05000 0.45470 -0.02900
C 	C 	0.26560 0.95130 0.43414 0.17500
C 	C 	0.29740 0.88000 0.42558 -0.12700
H 	H 	0.27080 0.80930 0.43180 0.07700
N 	N 	0.08180 0.93450 0.47875 -0.24000
N 	N 	0.19220 0.92320 0.45302 -0.15100
N 	N 	0.29870 0.04940 0.42601 -0.11400
C 	C 	0.75347 0.17353 0.81558 0.00600
H 	H 	0.71507 0.12173 0.82703 0.02200
C 	C 	0.82187 0.16493 0.80021 0.00400
H 	H 	0.83997 0.10883 0.79923 0.03100
C 	C 	0.81317 0.31613 0.79435 0.10400
H 	H 	0.82617 0.38333 0.78803 0.00100
C 	C 	0.93227 0.28463 0.76747 0.12500
C 	C 	0.96407 0.21333 0.75891 -0.03600
H 	H 	0.93747 0.14263 0.76513 0.04700
N 	N 	0.74847 0.26783 0.81208 -0.23600
N 	N 	0.85887 0.25653 0.78635 -0.13700
N 	N 	0.96537 0.38273 0.75934 -0.08300
C 	C 	0.42013 0.50687 0.14892 0.00600
H 	H 	0.38173 0.45507 0.16037 0.02300
C 	C 	0.48853 0.49827 0.13355 0.00500
H 	H 	0.50663 0.44217 0.13257 0.03100
C 	C 	0.47983 0.64947 0.12769 0.10500
H 	H 	0.49283 0.71667 0.12137 0.00000
C 	C 	0.59893 0.61797 0.10081 0.14100
C 	C 	0.63073 0.54667 0.09225 -0.08600
H 	H 	0.60413 0.47597 0.09847 0.06300
N 	N 	0.41513 0.60117 0.14542 -0.23600
N 	N 	0.52553 0.58987 0.11969 -0.14000
N 	N 	0.63203 0.71607 0.09268 -0.09400
C 	C 	0.75340 0.91320 0.48225 0.00700
H 	H 	0.74000 0.95160 0.49370 0.03100
C 	C 	0.67640 0.84480 0.46688 0.00800
H 	H 	0.60220 0.82670 0.46590 0.03300
C 	C 	0.83630 0.85350 0.46102 0.10800
H 	H 	0.89050 0.84050 0.45470 0.00500
C 	C 	0.68570 0.73440 0.43414 0.14300
C 	C 	0.58260 0.70260 0.42558 -0.08800
H 	H 	0.53850 0.72920 0.43180 0.06500
N 	N 	0.85270 0.91820 0.47875 -0.22600
N 	N 	0.73100 0.80780 0.45302 -0.14000
N 	N 	0.75070 0.70130 0.42601 -0.09400
C 	C 	0.42007 0.24653 0.81558 0.00400
H 	H 	0.40667 0.28493 0.82703 0.02300
C 	C 	0.34307 0.17813 0.80021 0.00400
H 	H 	0.26887 0.16003 0.79923 0.02600
C 	C 	0.50297 0.18683 0.79435 0.10400
H 	H 	0.55717 0.17383 0.78803 -0.00300
C 	C 	0.35237 0.06773 0.76747 0.15300
C 	C 	0.24927 0.03593 0.75891 -0.14000
H 	H 	0.20517 0.06253 0.76513 0.07500
N 	N 	0.51937 0.25153 0.81208 -0.23600
N 	N 	0.39767 0.14113 0.78635 -0.14400
N 	N 	0.41737 0.03463 0.75934 -0.10900
C 	C 	0.08673 0.57987 0.14892 0.02900
H 	H 	0.07333 0.61827 0.16037 0.01200
C 	C 	0.00973 0.51147 0.13355 -0.04600
H 	H 	0.93553 0.49337 0.13257 0.06200
C 	C 	0.16963 0.52017 0.12769 0.10200
H 	H 	0.22383 0.50717 0.12137 -0.00100
C 	C 	0.01903 0.40107 0.10081 0.10000
C 	C 	0.91593 0.36927 0.09225 -0.03000
H 	H 	0.87183 0.39587 0.09847 0.04700
N 	N 	0.18603 0.58487 0.14542 -0.23900
N 	N 	0.06433 0.47447 0.11969 -0.12900
N 	N 	0.08403 0.36797 0.09268 -0.09100
C 	C 	0.75340 0.84020 0.98225 0.00600
H 	H 	0.74000 0.78840 0.99370 0.02600
C 	C 	0.67640 0.83160 0.96688 0.00900
H 	H 	0.60220 0.77550 0.96590 0.03100
C 	C 	0.83630 0.98280 0.96102 0.14300
H 	H 	0.89050 0.05000 0.95470 -0.02000
C 	C 	0.68570 0.95130 0.93414 0.17500
C 	C 	0.58260 0.88000 0.92558 -0.12500
H 	H 	0.53850 0.80930 0.93180 0.07800
N 	N 	0.85270 0.93450 0.97875 -0.23300
N 	N 	0.73100 0.92320 0.95302 -0.14900
N 	N 	0.75070 0.04940 0.92601 -0.11100
C 	C 	0.42007 0.17353 0.31558 0.00400
H 	H 	0.40667 0.12173 0.32703 0.02100
C 	C 	0.34307 0.16493 0.30021 0.00300
H 	H 	0.26887 0.10883 0.29923 0.02600
C 	C 	0.50297 0.31613 0.29435 0.10400
H 	H 	0.55717 0.38333 0.28803 -0.00100
C 	C 	0.35237 0.28463 0.26747 0.13800
C 	C 	0.24927 0.21333 0.25891 -0.08900
H 	H 	0.20517 0.14263 0.26513 0.05800
N 	N 	0.51937 0.26783 0.31208 -0.23600
N 	N 	0.39767 0.25653 0.28635 -0.14100
N 	N 	0.41737 0.38273 0.25934 -0.09600
C 	C 	0.08673 0.50687 0.64892 0.02900
H 	H 	0.07333 0.45507 0.66037 0.01100
C 	C 	0.00973 0.49827 0.63355 -0.04600
H 	H 	0.93553 0.44217 0.63257 0.06200
C 	C 	0.16963 0.64947 0.62769 0.10200
H 	H 	0.22383 0.71667 0.62137 0.00100
C 	C 	0.01903 0.61797 0.60081 0.10200
C 	C 	0.91593 0.54667 0.59225 -0.03100
H 	H 	0.87183 0.47597 0.59847 0.04800
N 	N 	0.18603 0.60117 0.64542 -0.23900
N 	N 	0.06433 0.58987 0.61969 -0.12800
N 	N 	0.08403 0.71607 0.59268 -0.08900
C 	C 	0.15980 0.91320 0.98225 0.00700
H 	H 	0.21160 0.95160 0.99370 0.03000
C 	C 	0.16840 0.84480 0.96688 0.00400
H 	H 	0.22450 0.82670 0.96590 0.03400
C 	C 	0.01720 0.85350 0.96102 0.06900
H 	H 	0.95000 0.84050 0.95470 0.02500
C 	C 	0.04870 0.73440 0.93414 0.10800
C 	C 	0.12000 0.70260 0.92558 -0.05000
H 	H 	0.19070 0.72920 0.93180 0.05100
N 	N 	0.06550 0.91820 0.97875 -0.22700
N 	N 	0.07680 0.80780 0.95302 -0.13100
N 	N 	0.95060 0.70130 0.92601 -0.07900
C 	C 	0.82647 0.24653 0.31558 0.00600
H 	H 	0.87827 0.28493 0.32703 0.02600
C 	C 	0.83507 0.17813 0.30021 0.00600
H 	H 	0.89117 0.16003 0.29923 0.03200
C 	C 	0.68387 0.18683 0.29435 0.10500
H 	H 	0.61667 0.17383 0.28803 -0.00300
C 	C 	0.71537 0.06773 0.26747 0.15400
C 	C 	0.78667 0.03593 0.25891 -0.13500
H 	H 	0.85737 0.06253 0.26513 0.08000
N 	N 	0.73217 0.25153 0.31208 -0.23600
N 	N 	0.74347 0.14113 0.28635 -0.14300
N 	N 	0.61727 0.03463 0.25934 -0.10800
C 	C 	0.49313 0.57987 0.64892 0.00600
H 	H 	0.54493 0.61827 0.66037 0.02500
C 	C 	0.50173 0.51147 0.63355 0.00500
H 	H 	0.55783 0.49337 0.63257 0.03200
C 	C 	0.35053 0.52017 0.62769 0.10400
H 	H 	0.28333 0.50717 0.62137 -0.00200
C 	C 	0.38203 0.40107 0.60081 0.14000
C 	C 	0.45333 0.36927 0.59225 -0.08900
H 	H 	0.52403 0.39587 0.59847 0.06400
N 	N 	0.39883 0.58487 0.64542 -0.23600
N 	N 	0.41013 0.47447 0.61969 -0.14100
N 	N 	0.28393 0.36797 0.59268 -0.09800
C 	C 	0.08680 0.24660 0.98225 0.00400
H 	H 	0.04840 0.26000 0.99370 0.01700
C 	C 	0.15520 0.32360 0.96688 0.00100
H 	H 	0.17330 0.39780 0.96590 0.03000
C 	C 	0.14650 0.16370 0.96102 0.10200
H 	H 	0.15950 0.10950 0.95470 -0.00700
C 	C 	0.26560 0.31430 0.93414 0.13800
C 	C 	0.29740 0.41740 0.92558 -0.08700
H 	H 	0.27080 0.46150 0.93180 0.06200
N 	N 	0.08180 0.14730 0.97875 -0.24100
N 	N 	0.19220 0.26900 0.95302 -0.14100
N 	N 	0.29870 0.24930 0.92601 -0.09800
C 	C 	0.75347 0.57993 0.31558 0.00800
H 	H 	0.71507 0.59333 0.32703 0.02500
C 	C 	0.82187 0.65693 0.30021 0.00500
H 	H 	0.83997 0.73113 0.29923 0.03600
C 	C 	0.81317 0.49703 0.29435 0.10500
H 	H 	0.82617 0.44283 0.28803 0.00000
C 	C 	0.93227 0.64763 0.26747 0.12900
C 	C 	0.96407 0.75073 0.25891 -0.03900
H 	H 	0.93747 0.79483 0.26513 0.05400
N 	N 	0.74847 0.48063 0.31208 -0.23600
N 	N 	0.85887 0.60233 0.28635 -0.13700
N 	N 	0.96537 0.58263 0.25934 -0.08400
C 	C 	0.42013 0.91327 0.64892 -0.01800
H 	H 	0.38173 0.92667 0.66037 0.03600
C 	C 	0.48853 0.99027 0.63355 0.05600
H 	H 	0.50663 0.06447 0.63257 0.00000
C 	C 	0.47983 0.83037 0.62769 0.10800
H 	H 	0.49283 0.77617 0.62137 -0.00200
C 	C 	0.59893 0.98097 0.60081 0.18000
C 	C 	0.63073 0.08407 0.59225 -0.14300
H 	H 	0.60413 0.12817 0.59847 0.08000
N 	N 	0.41513 0.81397 0.64542 -0.23200
N 	N 	0.52553 0.93567 0.61969 -0.15200
N 	N 	0.63203 0.91597 0.59268 -0.10100
C 	C 	0.84020 0.75340 0.51775 0.00600
H 	H 	0.78840 0.74000 0.50630 0.02600
C 	C 	0.83160 0.67640 0.53312 0.00900
H 	H 	0.77550 0.60220 0.53410 0.03100
C 	C 	0.98280 0.83630 0.53898 0.14300
H 	H 	0.05000 0.89050 0.54530 -0.02000
C 	C 	0.95130 0.68570 0.56586 0.17500
C 	C 	0.88000 0.58260 0.57442 -0.12500
H 	H 	0.80930 0.53850 0.56820 0.07800
N 	N 	0.93450 0.85270 0.52125 -0.23300
N 	N 	0.92320 0.73100 0.54698 -0.14900
N 	N 	0.04940 0.75070 0.57399 -0.11100
C 	C 	0.50687 0.08673 0.85108 0.02900
H 	H 	0.45507 0.07333 0.83963 0.01100
C 	C 	0.49827 0.00973 0.86645 -0.04600
H 	H 	0.44217 0.93553 0.86743 0.06200
C 	C 	0.64947 0.16963 0.87231 0.10200
H 	H 	0.71667 0.22383 0.87863 0.00100
C 	C 	0.61797 0.01903 0.89919 0.10200
C 	C 	0.54667 0.91593 0.90775 -0.03100
H 	H 	0.47597 0.87183 0.90153 0.04800
N 	N 	0.60117 0.18603 0.85458 -0.23900
N 	N 	0.58987 0.06433 0.88031 -0.12800
N 	N 	0.71607 0.08403 0.90732 -0.08900
C 	C 	0.17353 0.42007 0.18442 0.00400
H 	H 	0.12173 0.40667 0.17297 0.02100
C 	C 	0.16493 0.34307 0.19979 0.00300
H 	H 	0.10883 0.26887 0.20077 0.02600
C 	C 	0.31613 0.50297 0.20565 0.10400
H 	H 	0.38333 0.55717 0.21197 -0.00100
C 	C 	0.28463 0.35237 0.23253 0.13800
C 	C 	0.21333 0.24927 0.24109 -0.08900
H 	H 	0.14263 0.20517 0.23487 0.05800
N 	N 	0.26783 0.51937 0.18792 -0.23600
N 	N 	0.25653 0.39767 0.21365 -0.14100
N 	N 	0.38273 0.41737 0.24066 -0.09600
C 	C 	0.91320 0.15980 0.51775 0.00700
H 	H 	0.95160 0.21160 0.50630 0.03000
C 	C 	0.84480 0.16840 0.53312 0.00400
H 	H 	0.82670 0.22450 0.53410 0.03400
C 	C 	0.85350 0.01720 0.53898 0.06900
H 	H 	0.84050 0.95000 0.54530 0.02500
C 	C 	0.73440 0.04870 0.56586 0.10800
C 	C 	0.70260 0.12000 0.57442 -0.05000
H 	H 	0.72920 0.19070 0.56820 0.05100
N 	N 	0.91820 0.06550 0.52125 -0.22700
N 	N 	0.80780 0.07680 0.54698 -0.13100
N 	N 	0.70130 0.95060 0.57399 -0.07900
C 	C 	0.57987 0.49313 0.85108 0.00600
H 	H 	0.61827 0.54493 0.83963 0.02500
C 	C 	0.51147 0.50173 0.86645 0.00500
H 	H 	0.49337 0.55783 0.86743 0.03200
C 	C 	0.52017 0.35053 0.87231 0.10400
H 	H 	0.50717 0.28333 0.87863 -0.00200
C 	C 	0.40107 0.38203 0.89919 0.14000
C 	C 	0.36927 0.45333 0.90775 -0.08900
H 	H 	0.39587 0.52403 0.90153 0.06400
N 	N 	0.58487 0.39883 0.85458 -0.23600
N 	N 	0.47447 0.41013 0.88031 -0.14100
N 	N 	0.36797 0.28393 0.90732 -0.09800
C 	C 	0.24653 0.82647 0.18442 0.00600
H 	H 	0.28493 0.87827 0.17297 0.02600
C 	C 	0.17813 0.83507 0.19979 0.00600
H 	H 	0.16003 0.89117 0.20077 0.03200
C 	C 	0.18683 0.68387 0.20565 0.10500
H 	H 	0.17383 0.61667 0.21197 -0.00300
C 	C 	0.06773 0.71537 0.23253 0.15400
C 	C 	0.03593 0.78667 0.24109 -0.13500
H 	H 	0.06253 0.85737 0.23487 0.08000
N 	N 	0.25153 0.73217 0.18792 -0.23600
N 	N 	0.14113 0.74347 0.21365 -0.14300
N 	N 	0.03463 0.61727 0.24066 -0.10800
C 	C 	0.24660 0.08680 0.51775 0.00400
H 	H 	0.26000 0.04840 0.50630 0.01700
C 	C 	0.32360 0.15520 0.53312 0.00100
H 	H 	0.39780 0.17330 0.53410 0.03000
C 	C 	0.16370 0.14650 0.53898 0.10200
H 	H 	0.10950 0.15950 0.54530 -0.00700
C 	C 	0.31430 0.26560 0.56586 0.13800
C 	C 	0.41740 0.29740 0.57442 -0.08700
H 	H 	0.46150 0.27080 0.56820 0.06200
N 	N 	0.14730 0.08180 0.52125 -0.24100
N 	N 	0.26900 0.19220 0.54698 -0.14100
N 	N 	0.24930 0.29870 0.57399 -0.09800
C 	C 	0.91327 0.42013 0.85108 -0.01800
H 	H 	0.92667 0.38173 0.83963 0.03600
C 	C 	0.99027 0.48853 0.86645 0.05600
H 	H 	0.06447 0.50663 0.86743 0.00000
C 	C 	0.83037 0.47983 0.87231 0.10800
H 	H 	0.77617 0.49283 0.87863 -0.00200
C 	C 	0.98097 0.59893 0.89919 0.18000
C 	C 	0.08407 0.63073 0.90775 -0.14300
H 	H 	0.12817 0.60413 0.90153 0.08000
N 	N 	0.81397 0.41513 0.85458 -0.23200
N 	N 	0.93567 0.52553 0.88031 -0.15200
N 	N 	0.91597 0.63203 0.90732 -0.10100
C 	C 	0.57993 0.75347 0.18442 0.00800
H 	H 	0.59333 0.71507 0.17297 0.02500
C 	C 	0.65693 0.82187 0.19979 0.00500
H 	H 	0.73113 0.83997 0.20077 0.03600
C 	C 	0.49703 0.81317 0.20565 0.10500
H 	H 	0.44283 0.82617 0.21197 0.00000
C 	C 	0.64763 0.93227 0.23253 0.12900
C 	C 	0.75073 0.96407 0.24109 -0.03900
H 	H 	0.79483 0.93747 0.23487 0.05400
N 	N 	0.48063 0.74847 0.18792 -0.23600
N 	N 	0.60233 0.85887 0.21365 -0.13700
N 	N 	0.58263 0.96537 0.24066 -0.08400
Co	Co	-0.00000 0.00000 -0.00000 1.09900
Co	Co	0.66667 0.33333 0.33333 1.11600
Co	Co	0.33333 0.66667 0.66667 1.11600
Co	Co	0.00000 0.00000 0.50000 1.09900
Co	Co	0.66667 0.33333 0.83333 1.11600
Co	Co	0.33333 0.66667 0.16667 1.11600
