data_crystal

_cell_length_a 17.93700
_cell_length_b 6.42990
_cell_length_c 4.49360
_cell_angle_alpha 90.00000
_cell_angle_beta  90.00000
_cell_angle_gamma 90.00000

_symmetry_space_group_name_	'P 1'
_symmetry_space_group_name_H-M	'P 1'

loop_
_symmetry_equiv_pos_as_xyz
  x,y,z

loop_
_atom_site_label
_atom_site_type_symbol
_atom_site_fract_x
_atom_site_fract_y
_atom_site_fract_z
_atom_site_charge
O 	O 	0.41760 0.95430 0.70400 -0.39000
O 	O 	0.08240 0.54570 0.70400 -0.50100
O 	O 	0.58240 0.45430 0.29600 -0.62600
O 	O 	0.91760 0.04570 0.29600 -0.64800
O 	O 	0.58240 0.04570 0.29600 -0.69300
O 	O 	0.91760 0.45430 0.29600 -0.58200
O 	O 	0.41760 0.54570 0.70400 -0.48000
O 	O 	0.08240 0.95430 0.70400 -0.41100
Ni	Ni	0.50000 0.00000 -0.00000 0.90600
Ni	Ni	-0.00000 0.50000 -0.00000 0.90700
Ni	Ni	0.50000 0.50000 -0.00000 0.96500
Ni	Ni	-0.00000 0.00000 -0.00000 0.84700
Ni	Ni	0.59170 0.75000 0.36900 1.05800
P 	P 	0.41060 0.75000 0.51300 0.41500
O 	O 	0.56870 0.75000 0.82300 -0.40500
O 	O 	0.47290 0.75000 0.26200 -0.63700
C 	C 	0.32270 0.75000 0.34200 -0.22200
Ni	Ni	0.90830 0.75000 0.36900 1.07700
P 	P 	0.08940 0.75000 0.51300 0.41100
O 	O 	0.93130 0.75000 0.82300 -0.34600
O 	O 	0.02710 0.75000 0.26200 -0.69100
C 	C 	0.17730 0.75000 0.34200 -0.21900
Ni	Ni	0.40830 0.25000 0.63100 1.04900
P 	P 	0.58940 0.25000 0.48700 0.38900
O 	O 	0.43130 0.25000 0.17700 -0.74200
O 	O 	0.52710 0.25000 0.73800 -0.50600
C 	C 	0.67730 0.25000 0.65800 -0.06400
Ni	Ni	0.09170 0.25000 0.63100 1.03400
P 	P 	0.91060 0.25000 0.48700 0.39200
O 	O 	0.06870 0.25000 0.17700 -0.77500
O 	O 	0.97290 0.25000 0.73800 -0.41400
C 	C 	0.82270 0.25000 0.65800 -0.06400
C 	C 	0.25000 0.75000 0.53700 0.08200
C 	C 	0.75000 0.25000 0.46300 -0.11600
