data_crystal

_cell_length_a 10.27400
_cell_length_b 10.27400
_cell_length_c 11.59430
_cell_angle_alpha 80.55460
_cell_angle_beta  80.55460
_cell_angle_gamma 85.03810

_symmetry_space_group_name_	'P 1'
_symmetry_space_group_name_H-M	'P 1'

loop_
_symmetry_equiv_pos_as_xyz
  x,y,z

loop_
_atom_site_label
_atom_site_type_symbol
_atom_site_fract_x
_atom_site_fract_y
_atom_site_fract_z
_atom_site_charge
Cd	Cd	0.85937 0.47968 0.42132 1.23000
Cd	Cd	0.52032 0.14063 0.07868 1.22900
Cd	Cd	0.14063 0.52032 0.57868 1.23000
Cd	Cd	0.47968 0.85937 0.92132 1.22900
Cd	Cd	0.77411 0.22589 0.25000 1.21400
Cd	Cd	0.22589 0.77411 0.75000 1.21400
H 	H 	0.58550 0.65210 0.34490 0.05900
H 	H 	0.50170 0.68350 0.46420 0.07900
H 	H 	0.47100 0.46600 0.35430 0.06400
H 	H 	0.36990 0.58910 0.36130 0.06100
H 	H 	0.34790 0.41450 0.15510 0.05900
H 	H 	0.31650 0.49830 0.03580 0.07900
H 	H 	0.53400 0.52900 0.14570 0.06300
H 	H 	0.41090 0.63010 0.13870 0.06100
H 	H 	0.41450 0.34790 0.65510 0.05900
H 	H 	0.49830 0.31650 0.53580 0.07900
H 	H 	0.52900 0.53400 0.64570 0.06400
H 	H 	0.63010 0.41090 0.63870 0.06100
H 	H 	0.65210 0.58550 0.84490 0.05900
H 	H 	0.68350 0.50170 0.96420 0.07900
H 	H 	0.46600 0.47100 0.85430 0.06300
H 	H 	0.58910 0.36990 0.86130 0.06100
C 	C 	0.54010 0.61270 0.42100 -0.01400
C 	C 	0.43330 0.53250 0.40280 -0.00000
C 	C 	0.38730 0.45990 0.07900 -0.01500
C 	C 	0.46750 0.56670 0.09720 0.00200
C 	C 	0.45990 0.38730 0.57900 -0.01400
C 	C 	0.56670 0.46750 0.59720 -0.00000
C 	C 	0.61270 0.54010 0.92100 -0.01500
C 	C 	0.53250 0.43330 0.90280 0.00200
Cl	Cl	0.80316 0.47706 0.20972 -0.60300
Cl	Cl	0.76786 0.18570 0.03346 -0.60600
Cl	Cl	0.88945 0.51041 0.63572 -0.60300
Cl	Cl	0.52294 0.19684 0.29028 -0.60400
Cl	Cl	0.81430 0.23214 0.46654 -0.60200
Cl	Cl	0.48959 0.11055 0.86428 -0.60000
Cl	Cl	0.19684 0.52294 0.79028 -0.60300
Cl	Cl	0.23214 0.81430 0.96654 -0.60600
Cl	Cl	0.11055 0.48959 0.36428 -0.60300
Cl	Cl	0.47706 0.80316 0.70972 -0.60400
Cl	Cl	0.18570 0.76786 0.53346 -0.60200
Cl	Cl	0.51041 0.88945 0.13572 -0.60000
O 	O 	0.63313 0.53129 0.48590 -0.27600
O 	O 	0.46871 0.36687 0.01410 -0.27700
O 	O 	0.36687 0.46871 0.51410 -0.27600
O 	O 	0.53129 0.63313 0.98590 -0.27700
