data_crystal

_cell_length_a 9.05820
_cell_length_b 9.05820
_cell_length_c 12.56600
_cell_angle_alpha 90.00000
_cell_angle_beta  90.00000
_cell_angle_gamma 90.00000

_symmetry_space_group_name_	'P 1'
_symmetry_space_group_name_H-M	'P 1'

loop_
_symmetry_equiv_pos_as_xyz
  x,y,z

loop_
_atom_site_label
_atom_site_type_symbol
_atom_site_fract_x
_atom_site_fract_y
_atom_site_fract_z
_atom_site_charge
C 	C 	0.75760 0.54170 0.12020 0.46200
O 	O 	0.88560 0.59800 0.13789 -0.27600
O 	O 	0.68510 0.59680 0.03874 -0.34500
O 	O 	0.70320 0.44040 0.17585 -0.28000
C 	C 	0.24240 0.45830 0.12020 0.47200
O 	O 	0.11440 0.40200 0.13789 -0.41100
O 	O 	0.31490 0.40320 0.03874 -0.39800
O 	O 	0.29680 0.55960 0.17585 -0.29600
C 	C 	0.54170 0.24240 0.87980 0.46700
O 	O 	0.59800 0.11440 0.86211 -0.35300
O 	O 	0.59680 0.31490 0.96126 -0.28100
O 	O 	0.44040 0.29680 0.82415 -0.27600
C 	C 	0.45830 0.75760 0.87980 0.45300
O 	O 	0.40200 0.88560 0.86211 -0.26200
O 	O 	0.40320 0.68510 0.96126 -0.27000
O 	O 	0.55960 0.70320 0.82415 -0.22700
C 	C 	0.25760 0.95830 0.62020 0.63300
O 	O 	0.38560 0.90200 0.63789 -0.32700
O 	O 	0.18510 0.90320 0.53874 -0.34200
O 	O 	0.20320 0.05960 0.67585 -0.43600
C 	C 	0.74240 0.04170 0.62020 0.29500
O 	O 	0.61440 0.09800 0.63789 -0.32200
O 	O 	0.81490 0.09680 0.53874 -0.27400
O 	O 	0.79680 0.94040 0.67585 -0.08300
C 	C 	0.04170 0.25760 0.37980 0.30200
O 	O 	0.09800 0.38560 0.36211 -0.33800
O 	O 	0.09680 0.18510 0.46126 -0.35500
O 	O 	0.94040 0.20320 0.32415 -0.16500
C 	C 	0.95830 0.74240 0.37980 0.61800
O 	O 	0.90200 0.61440 0.36211 -0.31400
O 	O 	0.90320 0.81490 0.46126 -0.26600
O 	O 	0.05960 0.79680 0.32415 -0.37600
Cu	Cu	-0.00000 0.50000 0.25000 0.90100
Cu	Cu	0.50000 0.00000 0.75000 0.90300
Cu	Cu	0.50000 0.50000 -0.00000 0.92100
Cu	Cu	0.00000 0.00000 0.50000 0.84600
