data_crystal

_cell_length_a 8.96640
_cell_length_b 8.96640
_cell_length_c 12.35480
_cell_angle_alpha 90.00000
_cell_angle_beta  90.00000
_cell_angle_gamma 90.00000

_symmetry_space_group_name_	'P 1'
_symmetry_space_group_name_H-M	'P 1'

loop_
_symmetry_equiv_pos_as_xyz
  x,y,z

loop_
_atom_site_label
_atom_site_type_symbol
_atom_site_fract_x
_atom_site_fract_y
_atom_site_fract_z
_atom_site_charge
C 	C 	0.76050 0.54420 0.11900 0.46800
O 	O 	0.88670 0.60270 0.13710 -0.28000
O 	O 	0.68530 0.60040 0.03690 -0.34600
O 	O 	0.70650 0.44060 0.17520 -0.28200
C 	C 	0.23950 0.45580 0.11900 0.48000
O 	O 	0.11330 0.39730 0.13710 -0.41900
O 	O 	0.31470 0.39960 0.03690 -0.40000
O 	O 	0.29350 0.55940 0.17520 -0.29900
C 	C 	0.54420 0.23950 0.88100 0.47300
O 	O 	0.60270 0.11330 0.86290 -0.35800
O 	O 	0.60040 0.31470 0.96310 -0.27900
O 	O 	0.44060 0.29350 0.82480 -0.27800
C 	C 	0.45580 0.76050 0.88100 0.45800
O 	O 	0.39730 0.88670 0.86290 -0.26500
O 	O 	0.39960 0.68530 0.96310 -0.26900
O 	O 	0.55940 0.70650 0.82480 -0.22800
C 	C 	0.26050 0.95580 0.61900 0.64200
O 	O 	0.38670 0.89730 0.63710 -0.33500
O 	O 	0.18530 0.89960 0.53690 -0.34300
O 	O 	0.20650 0.05940 0.67520 -0.43900
C 	C 	0.73950 0.04420 0.61900 0.29700
O 	O 	0.61330 0.10270 0.63710 -0.32400
O 	O 	0.81470 0.10040 0.53690 -0.27200
O 	O 	0.79350 0.94060 0.67520 -0.08300
C 	C 	0.04420 0.26050 0.38100 0.30500
O 	O 	0.10270 0.38670 0.36290 -0.34000
O 	O 	0.10040 0.18530 0.46310 -0.35500
O 	O 	0.94060 0.20650 0.32480 -0.16500
C 	C 	0.95580 0.73950 0.38100 0.62700
O 	O 	0.89730 0.61330 0.36290 -0.32200
O 	O 	0.89960 0.81470 0.46310 -0.26500
O 	O 	0.05940 0.79350 0.32480 -0.38000
Cu	Cu	-0.00000 0.50000 0.25000 0.90300
Cu	Cu	0.50000 -0.00000 0.75000 0.90500
Cu	Cu	0.50000 0.50000 -0.00000 0.92200
Cu	Cu	0.00000 0.00000 0.50000 0.84600
