data_crystal

_cell_length_a 8.86450
_cell_length_b 8.86450
_cell_length_c 12.11910
_cell_angle_alpha 90.00000
_cell_angle_beta  90.00000
_cell_angle_gamma 90.00000

_symmetry_space_group_name_	'P 1'
_symmetry_space_group_name_H-M	'P 1'

loop_
_symmetry_equiv_pos_as_xyz
  x,y,z

loop_
_atom_site_label
_atom_site_type_symbol
_atom_site_fract_x
_atom_site_fract_y
_atom_site_fract_z
_atom_site_charge
C 	C 	0.76470 0.54490 0.11740 0.47200
O 	O 	0.88900 0.60810 0.13440 -0.28000
O 	O 	0.68430 0.60230 0.03380 -0.34600
O 	O 	0.71310 0.44170 0.17520 -0.29000
C 	C 	0.23530 0.45510 0.11740 0.48500
O 	O 	0.11100 0.39190 0.13440 -0.42300
O 	O 	0.31570 0.39770 0.03380 -0.40000
O 	O 	0.28690 0.55830 0.17520 -0.30800
C 	C 	0.54490 0.23530 0.88260 0.47800
O 	O 	0.60810 0.11100 0.86560 -0.35900
O 	O 	0.60230 0.31570 0.96620 -0.27500
O 	O 	0.44170 0.28690 0.82480 -0.28500
C 	C 	0.45510 0.76470 0.88260 0.46300
O 	O 	0.39190 0.88900 0.86560 -0.26500
O 	O 	0.39770 0.68430 0.96620 -0.26500
O 	O 	0.55830 0.71310 0.82480 -0.23400
C 	C 	0.26470 0.95510 0.61740 0.65600
O 	O 	0.38900 0.89190 0.63440 -0.34100
O 	O 	0.18430 0.89770 0.53380 -0.34100
O 	O 	0.21310 0.05830 0.67520 -0.45100
C 	C 	0.73530 0.04490 0.61740 0.29300
O 	O 	0.61100 0.10810 0.63440 -0.32000
O 	O 	0.81570 0.10230 0.53380 -0.26900
O 	O 	0.78690 0.94170 0.67520 -0.08600
C 	C 	0.04490 0.26470 0.38260 0.30200
O 	O 	0.10810 0.38900 0.36560 -0.33600
O 	O 	0.10230 0.18430 0.46620 -0.35300
O 	O 	0.94170 0.21310 0.32480 -0.16700
C 	C 	0.95510 0.73530 0.38260 0.64000
O 	O 	0.89190 0.61100 0.36560 -0.32700
O 	O 	0.89770 0.81570 0.46620 -0.26200
O 	O 	0.05830 0.78690 0.32480 -0.39400
Cu	Cu	-0.00000 0.50000 0.25000 0.90300
Cu	Cu	0.50000 0.00000 0.75000 0.90600
Cu	Cu	0.50000 0.50000 -0.00000 0.92800
Cu	Cu	-0.00000 0.00000 0.50000 0.85100
