data_crystal

_cell_length_a 8.80480
_cell_length_b 8.80480
_cell_length_c 12.03100
_cell_angle_alpha 90.00000
_cell_angle_beta  90.00000
_cell_angle_gamma 90.00000

_symmetry_space_group_name_	'P 1'
_symmetry_space_group_name_H-M	'P 1'

loop_
_symmetry_equiv_pos_as_xyz
  x,y,z

loop_
_atom_site_label
_atom_site_type_symbol
_atom_site_fract_x
_atom_site_fract_y
_atom_site_fract_z
_atom_site_charge
C 	C 	0.76550 0.54520 0.11590 0.45500
O 	O 	0.89050 0.61350 0.13380 -0.26700
O 	O 	0.68500 0.60600 0.03240 -0.34000
O 	O 	0.71450 0.44140 0.17420 -0.28800
C 	C 	0.23450 0.45480 0.11590 0.46600
O 	O 	0.10950 0.38650 0.13380 -0.41200
O 	O 	0.31500 0.39400 0.03240 -0.39500
O 	O 	0.28550 0.55860 0.17420 -0.30700
C 	C 	0.54520 0.23450 0.88410 0.46000
O 	O 	0.61350 0.10950 0.86620 -0.34700
O 	O 	0.60600 0.31500 0.96760 -0.26800
O 	O 	0.44140 0.28550 0.82580 -0.28400
C 	C 	0.45480 0.76550 0.88410 0.44900
O 	O 	0.38650 0.89050 0.86620 -0.25400
O 	O 	0.39400 0.68500 0.96760 -0.26000
O 	O 	0.55860 0.71450 0.82580 -0.23300
C 	C 	0.26550 0.95480 0.61590 0.64000
O 	O 	0.39050 0.88650 0.63380 -0.32900
O 	O 	0.18500 0.89400 0.53240 -0.33700
O 	O 	0.21450 0.05860 0.67420 -0.45000
C 	C 	0.73450 0.04520 0.61590 0.27500
O 	O 	0.60950 0.11350 0.63380 -0.30800
O 	O 	0.81500 0.10600 0.53240 -0.26300
O 	O 	0.78550 0.94140 0.67420 -0.08500
C 	C 	0.04520 0.26550 0.38410 0.28400
O 	O 	0.11350 0.39050 0.36620 -0.32500
O 	O 	0.10600 0.18500 0.46760 -0.34600
O 	O 	0.94140 0.21450 0.32580 -0.16400
C 	C 	0.95480 0.73450 0.38410 0.62500
O 	O 	0.88650 0.60950 0.36620 -0.31600
O 	O 	0.89400 0.81500 0.46760 -0.25800
O 	O 	0.05860 0.78550 0.32580 -0.39300
Cu	Cu	0.00000 0.50000 0.25000 0.90000
Cu	Cu	0.50000 0.00000 0.75000 0.90200
Cu	Cu	0.50000 0.50000 -0.00000 0.92500
Cu	Cu	0.00000 0.00000 0.50000 0.84800
