data_crystal

_cell_length_a 9.03680
_cell_length_b 9.03680
_cell_length_c 12.53640
_cell_angle_alpha 90.00000
_cell_angle_beta  90.00000
_cell_angle_gamma 90.00000

_symmetry_space_group_name_	'P 1'
_symmetry_space_group_name_H-M	'P 1'

loop_
_symmetry_equiv_pos_as_xyz
  x,y,z

loop_
_atom_site_label
_atom_site_type_symbol
_atom_site_fract_x
_atom_site_fract_y
_atom_site_fract_z
_atom_site_charge
O 	O 	0.18536 0.90330 0.96126 -0.30400
C 	C 	0.25580 0.95960 0.88057 0.63300
O 	O 	0.20290 0.05940 0.82449 -0.42900
O 	O 	0.38560 0.90183 0.86202 -0.30800
O 	O 	0.81464 0.09670 0.96126 -0.23200
C 	C 	0.74420 0.04040 0.88057 0.29800
O 	O 	0.79710 0.94060 0.82449 -0.08300
O 	O 	0.61440 0.09817 0.86202 -0.30400
O 	O 	0.90330 0.81464 0.03874 -0.30900
C 	C 	0.95960 0.74420 0.11943 0.62800
O 	O 	0.05940 0.79710 0.17551 -0.38900
O 	O 	0.90183 0.61440 0.13798 -0.32400
O 	O 	0.09670 0.18536 0.03874 -0.39200
C 	C 	0.04040 0.25580 0.11943 0.30900
O 	O 	0.94060 0.20290 0.17551 -0.17600
O 	O 	0.09817 0.38560 0.13798 -0.34900
O 	O 	0.68536 0.59670 0.46126 -0.31000
C 	C 	0.75580 0.54040 0.38057 0.46800
O 	O 	0.70290 0.44060 0.32449 -0.27700
O 	O 	0.88560 0.59817 0.36202 -0.25700
O 	O 	0.31464 0.40330 0.46126 -0.36300
C 	C 	0.24420 0.45960 0.38057 0.47700
O 	O 	0.29710 0.55940 0.32449 -0.29200
O 	O 	0.11440 0.40183 0.36202 -0.39000
O 	O 	0.40330 0.68536 0.53874 -0.33000
C 	C 	0.45960 0.75580 0.61943 0.46500
O 	O 	0.55940 0.70290 0.67551 -0.24700
O 	O 	0.40183 0.88560 0.63798 -0.27600
O 	O 	0.59670 0.31464 0.53874 -0.34000
C 	C 	0.54040 0.24420 0.61943 0.47700
O 	O 	0.44060 0.29710 0.67551 -0.29500
O 	O 	0.59817 0.11440 0.63798 -0.36500
Cu	Cu	-0.00000 0.00000 -0.00000 0.81600
Cu	Cu	0.50000 0.50000 0.50000 0.96100
Cu	Cu	0.50000 0.00000 0.75000 0.90600
Cu	Cu	0.00000 0.50000 0.25000 0.90300
