data_crystal

_cell_length_a 14.32280
_cell_length_b 14.32280
_cell_length_c 14.32280
_cell_angle_alpha 90.00000
_cell_angle_beta  90.00000
_cell_angle_gamma 90.00000

_symmetry_space_group_name_	'P 1'
_symmetry_space_group_name_H-M	'P 1'

loop_
_symmetry_equiv_pos_as_xyz
  x,y,z

loop_
_atom_site_label
_atom_site_type_symbol
_atom_site_fract_x
_atom_site_fract_y
_atom_site_fract_z
_atom_site_charge
Cu	Cu	0.50000 0.00000 0.25000 0.91600
Cu	Cu	0.50000 0.00000 0.75000 0.91900
Cu	Cu	0.25000 0.50000 -0.00000 0.91600
Cu	Cu	0.75000 0.50000 -0.00000 0.92000
Cu	Cu	0.00000 0.25000 0.50000 0.91700
Cu	Cu	0.00000 0.75000 0.50000 0.92000
Cu	Cu	0.50000 0.25000 -0.00000 0.91700
Cu	Cu	0.00000 0.50000 0.75000 0.92000
Cu	Cu	0.00000 0.50000 0.25000 0.91700
Cu	Cu	0.50000 0.75000 -0.00000 0.92000
Cu	Cu	0.25000 0.00000 0.50000 0.91700
Cu	Cu	0.75000 0.00000 0.50000 0.92000
O 	O 	0.50000 0.85960 0.25010 -0.26400
O 	O 	0.00000 0.35960 0.75010 -0.37200
O 	O 	0.50000 0.14040 0.25010 -0.34700
O 	O 	0.00000 0.64040 0.75010 -0.35300
O 	O 	0.50000 0.85960 0.74990 -0.24600
O 	O 	0.00000 0.35960 0.24990 -0.40400
O 	O 	0.50000 0.14040 0.74990 -0.32800
O 	O 	0.00000 0.64040 0.24990 -0.38500
O 	O 	0.25010 0.50000 0.85960 -0.26400
O 	O 	0.75010 0.00000 0.35960 -0.37200
O 	O 	0.25010 0.50000 0.14040 -0.34700
O 	O 	0.75010 0.00000 0.64040 -0.35300
O 	O 	0.74990 0.50000 0.85960 -0.24600
O 	O 	0.24990 0.00000 0.35960 -0.40400
O 	O 	0.74990 0.50000 0.14040 -0.32800
O 	O 	0.24990 0.00000 0.64040 -0.38500
O 	O 	0.85960 0.25010 0.50000 -0.26400
O 	O 	0.35960 0.75010 -0.00000 -0.37200
O 	O 	0.14040 0.25010 0.50000 -0.34700
O 	O 	0.64040 0.75010 -0.00000 -0.35300
O 	O 	0.85960 0.74990 0.50000 -0.24600
O 	O 	0.35960 0.24990 -0.00000 -0.40400
O 	O 	0.14040 0.74990 0.50000 -0.32800
O 	O 	0.64040 0.24990 -0.00000 -0.38500
O 	O 	0.85960 0.50000 0.74990 -0.24600
O 	O 	0.35960 0.00000 0.24990 -0.40400
O 	O 	0.14040 0.50000 0.74990 -0.32800
O 	O 	0.64040 0.00000 0.24990 -0.38500
O 	O 	0.85960 0.50000 0.25010 -0.26400
O 	O 	0.35960 0.00000 0.75010 -0.37200
O 	O 	0.14040 0.50000 0.25010 -0.34700
O 	O 	0.64040 0.00000 0.75010 -0.35300
O 	O 	0.50000 0.25010 0.14040 -0.34700
O 	O 	0.00000 0.75010 0.64040 -0.35300
O 	O 	0.50000 0.25010 0.85960 -0.26400
O 	O 	0.00000 0.75010 0.35960 -0.37200
O 	O 	0.50000 0.74990 0.14040 -0.32800
O 	O 	0.00000 0.24990 0.64040 -0.38500
O 	O 	0.50000 0.74990 0.85960 -0.24600
O 	O 	0.00000 0.24990 0.35960 -0.40400
O 	O 	0.25010 0.85960 0.50000 -0.26400
O 	O 	0.75010 0.35960 -0.00000 -0.37200
O 	O 	0.25010 0.14040 0.50000 -0.34700
O 	O 	0.75010 0.64040 -0.00000 -0.35300
O 	O 	0.74990 0.85960 0.50000 -0.24600
O 	O 	0.24990 0.35960 -0.00000 -0.40400
O 	O 	0.74990 0.14040 0.50000 -0.32800
O 	O 	0.24990 0.64040 -0.00000 -0.38500
C 	C 	0.50000 0.83760 0.16240 0.48900
O 	O 	0.50000 0.89930 0.10070 -0.38000
C 	C 	0.00000 0.33760 0.66240 0.49600
O 	O 	0.00000 0.39930 0.60070 -0.44800
C 	C 	0.50000 0.16240 0.16240 0.50400
O 	O 	0.50000 0.10070 0.10070 -0.48200
C 	C 	0.00000 0.66240 0.66240 0.49100
O 	O 	0.00000 0.60070 0.60070 -0.44500
C 	C 	0.50000 0.83760 0.83760 0.47500
O 	O 	0.50000 0.89930 0.89930 -0.27900
C 	C 	0.00000 0.33760 0.33760 0.50000
O 	O 	0.00000 0.39930 0.39930 -0.45200
C 	C 	0.50000 0.16240 0.83760 0.48900
O 	O 	0.50000 0.10070 0.89930 -0.38000
C 	C 	0.00000 0.66240 0.33760 0.49600
O 	O 	0.00000 0.60070 0.39930 -0.44800
C 	C 	0.16240 0.50000 0.83760 0.48900
O 	O 	0.10070 0.50000 0.89930 -0.38000
C 	C 	0.66240 0.00000 0.33760 0.49600
O 	O 	0.60070 0.00000 0.39930 -0.44800
C 	C 	0.16240 0.50000 0.16240 0.50400
O 	O 	0.10070 0.50000 0.10070 -0.48200
C 	C 	0.66240 0.00000 0.66240 0.49100
O 	O 	0.60070 0.00000 0.60070 -0.44500
C 	C 	0.83760 0.50000 0.83760 0.47500
O 	O 	0.89930 0.50000 0.89930 -0.27900
C 	C 	0.33760 0.00000 0.33760 0.50000
O 	O 	0.39930 0.00000 0.39930 -0.45200
C 	C 	0.83760 0.50000 0.16240 0.48900
O 	O 	0.89930 0.50000 0.10070 -0.38000
C 	C 	0.33760 0.00000 0.66240 0.49600
O 	O 	0.39930 0.00000 0.60070 -0.44800
C 	C 	0.83760 0.16240 0.50000 0.48900
O 	O 	0.89930 0.10070 0.50000 -0.38000
C 	C 	0.33760 0.66240 -0.00000 0.49600
O 	O 	0.39930 0.60070 -0.00000 -0.44800
C 	C 	0.16240 0.16240 0.50000 0.50400
O 	O 	0.10070 0.10070 0.50000 -0.48200
C 	C 	0.66240 0.66240 -0.00000 0.49100
O 	O 	0.60070 0.60070 -0.00000 -0.44500
C 	C 	0.83760 0.83760 0.50000 0.47500
O 	O 	0.89930 0.89930 0.50000 -0.27900
C 	C 	0.33760 0.33760 -0.00000 0.50000
O 	O 	0.39930 0.39930 -0.00000 -0.45200
C 	C 	0.16240 0.83760 0.50000 0.48900
O 	O 	0.10070 0.89930 0.50000 -0.38000
C 	C 	0.66240 0.33760 -0.00000 0.49600
O 	O 	0.60070 0.39930 -0.00000 -0.44800
Li	Li	0.50000 0.00000 -0.00000 0.54000
Li	Li	0.00000 0.50000 0.50000 0.55900
Li	Li	0.00000 0.50000 -0.00000 0.54000
Li	Li	0.50000 0.00000 0.50000 0.55900
Li	Li	0.00000 0.00000 0.50000 0.54000
Li	Li	0.50000 0.50000 -0.00000 0.55900
