data_crystal

_cell_length_a 14.52750
_cell_length_b 14.52750
_cell_length_c 14.52750
_cell_angle_alpha 90.00000
_cell_angle_beta  90.00000
_cell_angle_gamma 90.00000

_symmetry_space_group_name_	'P 1'
_symmetry_space_group_name_H-M	'P 1'

loop_
_symmetry_equiv_pos_as_xyz
  x,y,z

loop_
_atom_site_label
_atom_site_type_symbol
_atom_site_fract_x
_atom_site_fract_y
_atom_site_fract_z
_atom_site_charge
Cu	Cu	0.00000 0.50000 0.75000 0.92800
Cu	Cu	-0.00000 0.50000 0.25000 0.92500
Cu	Cu	0.75000 0.00000 0.50000 0.92800
Cu	Cu	0.25000 0.00000 0.50000 0.92500
Cu	Cu	0.50000 0.75000 -0.00000 0.92800
Cu	Cu	0.50000 0.25000 -0.00000 0.92500
Cu	Cu	0.50000 0.00000 0.25000 0.92600
Cu	Cu	0.50000 0.00000 0.75000 0.92900
Cu	Cu	0.00000 0.75000 0.50000 0.92900
Cu	Cu	-0.00000 0.25000 0.50000 0.92600
Cu	Cu	0.75000 0.50000 -0.00000 0.92900
Cu	Cu	0.25000 0.50000 -0.00000 0.92600
C 	C 	0.82970 0.50000 0.82970 0.46900
O 	O 	0.89150 0.50000 0.89150 -0.22700
C 	C 	0.32970 0.00000 0.32970 0.49100
O 	O 	0.39150 0.00000 0.39150 -0.33400
C 	C 	0.17030 0.50000 0.82970 0.48100
O 	O 	0.10850 0.50000 0.89150 -0.28800
C 	C 	0.67030 0.00000 0.32970 0.48800
O 	O 	0.60850 0.00000 0.39150 -0.33200
C 	C 	0.17030 0.50000 0.17030 0.49200
O 	O 	0.10850 0.50000 0.10850 -0.34900
C 	C 	0.67030 0.00000 0.67030 0.48400
O 	O 	0.60850 0.00000 0.60850 -0.33000
C 	C 	0.82970 0.50000 0.17030 0.48100
O 	O 	0.89150 0.50000 0.10850 -0.28800
C 	C 	0.32970 0.00000 0.67030 0.48800
O 	O 	0.39150 0.00000 0.60850 -0.33200
C 	C 	0.82970 0.82970 0.50000 0.46900
O 	O 	0.89150 0.89150 0.50000 -0.22700
C 	C 	0.32970 0.32970 -0.00000 0.49100
O 	O 	0.39150 0.39150 -0.00000 -0.33400
C 	C 	0.82970 0.17030 0.50000 0.48100
O 	O 	0.89150 0.10850 0.50000 -0.28800
C 	C 	0.32970 0.67030 -0.00000 0.48800
O 	O 	0.39150 0.60850 -0.00000 -0.33200
C 	C 	0.17030 0.17030 0.50000 0.49200
O 	O 	0.10850 0.10850 0.50000 -0.34900
C 	C 	0.67030 0.67030 -0.00000 0.48400
O 	O 	0.60850 0.60850 -0.00000 -0.33000
C 	C 	0.17030 0.82970 0.50000 0.48100
O 	O 	0.10850 0.89150 0.50000 -0.28800
C 	C 	0.67030 0.32970 -0.00000 0.48800
O 	O 	0.60850 0.39150 -0.00000 -0.33200
C 	C 	0.50000 0.82970 0.82970 0.46900
O 	O 	0.50000 0.89150 0.89150 -0.22700
C 	C 	0.00000 0.32970 0.32970 0.49100
O 	O 	0.00000 0.39150 0.39150 -0.33400
C 	C 	0.50000 0.82970 0.17030 0.48100
O 	O 	0.50000 0.89150 0.10850 -0.28800
C 	C 	0.00000 0.32970 0.67030 0.48800
O 	O 	0.00000 0.39150 0.60850 -0.33200
C 	C 	0.50000 0.17030 0.17030 0.49200
O 	O 	0.50000 0.10850 0.10850 -0.34900
C 	C 	0.00000 0.67030 0.67030 0.48400
O 	O 	0.00000 0.60850 0.60850 -0.33000
C 	C 	0.50000 0.17030 0.82970 0.48100
O 	O 	0.50000 0.10850 0.89150 -0.28800
C 	C 	0.00000 0.67030 0.32970 0.48800
O 	O 	0.00000 0.60850 0.39150 -0.33200
O 	O 	0.85440 0.50000 0.74670 -0.26100
O 	O 	0.35440 0.00000 0.24670 -0.36200
O 	O 	0.14560 0.50000 0.74670 -0.31200
O 	O 	0.64560 0.00000 0.24670 -0.34900
O 	O 	0.14560 0.50000 0.25330 -0.32500
O 	O 	0.64560 0.00000 0.75330 -0.32800
O 	O 	0.85440 0.50000 0.25330 -0.27400
O 	O 	0.35440 0.00000 0.75330 -0.34000
O 	O 	0.74670 0.85440 0.50000 -0.26100
O 	O 	0.24670 0.35440 -0.00000 -0.36200
O 	O 	0.74670 0.14560 0.50000 -0.31200
O 	O 	0.24670 0.64560 -0.00000 -0.34900
O 	O 	0.25330 0.14560 0.50000 -0.32500
O 	O 	0.75330 0.64560 -0.00000 -0.32800
O 	O 	0.25330 0.85440 0.50000 -0.27400
O 	O 	0.75330 0.35440 -0.00000 -0.34000
O 	O 	0.50000 0.74670 0.85440 -0.26100
O 	O 	-0.00000 0.24670 0.35440 -0.36200
O 	O 	0.50000 0.74670 0.14560 -0.31200
O 	O 	0.00000 0.24670 0.64560 -0.34900
O 	O 	0.50000 0.25330 0.14560 -0.32500
O 	O 	0.00000 0.75330 0.64560 -0.32800
O 	O 	0.50000 0.25330 0.85440 -0.27400
O 	O 	0.00000 0.75330 0.35440 -0.34000
O 	O 	0.50000 0.85440 0.25330 -0.27400
O 	O 	-0.00000 0.35440 0.75330 -0.34000
O 	O 	0.50000 0.14560 0.25330 -0.32500
O 	O 	0.00000 0.64560 0.75330 -0.32800
O 	O 	0.50000 0.14560 0.74670 -0.31200
O 	O 	0.00000 0.64560 0.24670 -0.34900
O 	O 	0.50000 0.85440 0.74670 -0.26100
O 	O 	-0.00000 0.35440 0.24670 -0.36200
O 	O 	0.85440 0.74670 0.50000 -0.26100
O 	O 	0.35440 0.24670 -0.00000 -0.36200
O 	O 	0.14560 0.74670 0.50000 -0.31200
O 	O 	0.64560 0.24670 -0.00000 -0.34900
O 	O 	0.14560 0.25330 0.50000 -0.32500
O 	O 	0.64560 0.75330 -0.00000 -0.32800
O 	O 	0.85440 0.25330 0.50000 -0.27400
O 	O 	0.35440 0.75330 -0.00000 -0.34000
O 	O 	0.74670 0.50000 0.14560 -0.31200
O 	O 	0.24670 0.00000 0.64560 -0.34900
O 	O 	0.74670 0.50000 0.85440 -0.26100
O 	O 	0.24670 0.00000 0.35440 -0.36200
O 	O 	0.25330 0.50000 0.85440 -0.27400
O 	O 	0.75330 0.00000 0.35440 -0.34000
O 	O 	0.25330 0.50000 0.14560 -0.32500
O 	O 	0.75330 0.00000 0.64560 -0.32800
