data_crystal

_cell_length_a 17.08800
_cell_length_b 17.08800
_cell_length_c 10.74500
_cell_angle_alpha 90.00000
_cell_angle_beta  90.00000
_cell_angle_gamma 90.00000

_symmetry_space_group_name_	'P 1'
_symmetry_space_group_name_H-M	'P 1'

loop_
_symmetry_equiv_pos_as_xyz
  x,y,z

loop_
_atom_site_label
_atom_site_type_symbol
_atom_site_fract_x
_atom_site_fract_y
_atom_site_fract_z
_atom_site_charge
Mo	Mo	0.30937 0.91064 0.05836 1.23100
P 	P 	0.41751 0.88548 0.80346 0.52300
O 	O 	0.42970 0.81770 0.71450 -0.37000
O 	O 	0.35543 0.85762 0.89850 -0.28500
O 	O 	0.39992 0.95659 0.08300 -0.44400
O 	O 	0.28471 0.00056 0.91610 -0.42400
O 	O 	0.38263 0.95464 0.72760 -0.26300
O 	O 	0.32022 0.82332 0.14090 -0.46900
O 	O 	0.49317 0.91084 0.86840 -0.30400
Mo	Mo	0.80937 0.41064 0.55836 1.24900
P 	P 	0.91751 0.38548 0.30346 0.51900
O 	O 	0.92970 0.31770 0.21450 -0.31100
O 	O 	0.85543 0.35762 0.39850 -0.31000
O 	O 	0.89992 0.45659 0.58300 -0.38400
O 	O 	0.78471 0.50056 0.41610 -0.39100
O 	O 	0.88263 0.45464 0.22760 -0.29800
O 	O 	0.82022 0.32332 0.64090 -0.43000
O 	O 	0.99317 0.41084 0.36840 -0.25300
Mo	Mo	0.19063 0.08936 0.55836 1.23600
P 	P 	0.08249 0.11452 0.30346 0.51800
O 	O 	0.07030 0.18230 0.21450 -0.43500
O 	O 	0.14457 0.14238 0.39850 -0.34600
O 	O 	0.10008 0.04341 0.58300 -0.52900
O 	O 	0.21529 0.99944 0.41610 -0.34400
O 	O 	0.11737 0.04536 0.22760 -0.38300
O 	O 	0.17978 0.17668 0.64090 -0.47200
O 	O 	0.00683 0.08916 0.36840 -0.45900
Mo	Mo	0.69063 0.58936 0.05836 1.22000
P 	P 	0.58249 0.61452 0.80346 0.52200
O 	O 	0.57030 0.68230 0.71450 -0.37200
O 	O 	0.64457 0.64238 0.89850 -0.29200
O 	O 	0.60008 0.54341 0.08300 -0.48200
O 	O 	0.71529 0.49944 0.91610 -0.35900
O 	O 	0.61737 0.54536 0.72760 -0.30700
O 	O 	0.67978 0.67668 0.14090 -0.46900
O 	O 	0.50683 0.58916 0.86840 -0.33400
Mo	Mo	0.83936 0.55937 0.30836 1.24700
P 	P 	0.86452 0.66751 0.05346 0.42700
O 	O 	0.93230 0.67970 0.96450 -0.23200
O 	O 	0.89238 0.60543 0.14850 -0.29200
O 	O 	0.79341 0.64992 0.33300 -0.44900
O 	O 	0.74944 0.53471 0.16610 -0.40600
O 	O 	0.79536 0.63263 0.97760 -0.23500
O 	O 	0.92668 0.57022 0.39090 -0.37900
O 	O 	0.83916 0.74317 0.11840 -0.34100
Mo	Mo	0.33936 0.05937 0.80836 1.23600
P 	P 	0.36452 0.16751 0.55346 0.52300
O 	O 	0.43230 0.17970 0.46450 -0.38900
O 	O 	0.39238 0.10543 0.64850 -0.33900
O 	O 	0.29341 0.14992 0.83300 -0.45200
O 	O 	0.24944 0.03471 0.66610 -0.43100
O 	O 	0.29536 0.13263 0.47760 -0.32900
O 	O 	0.42668 0.07022 0.89090 -0.44900
O 	O 	0.33916 0.24317 0.61840 -0.36100
Mo	Mo	0.66064 0.44063 0.80836 1.24900
P 	P 	0.63548 0.33249 0.55346 0.52200
O 	O 	0.56770 0.32030 0.46450 -0.38100
O 	O 	0.60762 0.39457 0.64850 -0.32300
O 	O 	0.70659 0.35008 0.83300 -0.44200
O 	O 	0.75056 0.46529 0.66610 -0.38300
O 	O 	0.70464 0.36737 0.47760 -0.31200
O 	O 	0.57332 0.42978 0.89090 -0.42700
O 	O 	0.66084 0.25683 0.61840 -0.36200
Mo	Mo	0.16064 0.94063 0.30836 1.25800
P 	P 	0.13548 0.83249 0.05346 0.42700
O 	O 	0.06770 0.82030 0.96450 -0.37100
O 	O 	0.10762 0.89457 0.14850 -0.34300
O 	O 	0.20659 0.85008 0.33300 -0.46500
O 	O 	0.25056 0.96529 0.16610 -0.37900
O 	O 	0.20464 0.86737 0.97760 -0.23800
O 	O 	0.07332 0.92978 0.39090 -0.47500
O 	O 	0.16084 0.75683 0.11840 -0.38700
Mo	Mo	0.69063 0.08936 0.94164 1.26400
P 	P 	0.58249 0.11452 0.19654 0.52100
O 	O 	0.57030 0.18230 0.28550 -0.38700
O 	O 	0.64457 0.14238 0.10150 -0.35600
O 	O 	0.60008 0.04341 0.91700 -0.45500
O 	O 	0.71529 0.99944 0.08390 -0.36300
O 	O 	0.61737 0.04536 0.27240 -0.35300
O 	O 	0.67978 0.17668 0.85910 -0.44000
O 	O 	0.50683 0.08916 0.13160 -0.39600
Mo	Mo	0.19063 0.58936 0.44164 1.24600
P 	P 	0.08249 0.61452 0.69654 0.51900
O 	O 	0.07030 0.68230 0.78550 -0.41400
O 	O 	0.14457 0.64238 0.60150 -0.33200
O 	O 	0.10008 0.54341 0.41700 -0.50700
O 	O 	0.21529 0.49944 0.58390 -0.39400
O 	O 	0.11737 0.54536 0.77240 -0.31700
O 	O 	0.17978 0.67668 0.35910 -0.47600
O 	O 	0.00683 0.58916 0.63160 -0.43800
Mo	Mo	0.80937 0.91064 0.44164 1.25800
P 	P 	0.91751 0.88548 0.69654 0.52000
O 	O 	0.92970 0.81770 0.78550 -0.29000
O 	O 	0.85543 0.85762 0.60150 -0.29500
O 	O 	0.89992 0.95659 0.41700 -0.35300
O 	O 	0.78471 0.00056 0.58390 -0.44000
O 	O 	0.88263 0.95464 0.77240 -0.23100
O 	O 	0.82022 0.82332 0.35910 -0.43500
O 	O 	0.99317 0.91084 0.63160 -0.22300
Mo	Mo	0.30937 0.41064 0.94164 1.27500
P 	P 	0.41751 0.38548 0.19654 0.52100
O 	O 	0.42970 0.31770 0.28550 -0.38600
O 	O 	0.35543 0.35762 0.10150 -0.35300
O 	O 	0.39992 0.45659 0.91700 -0.42600
O 	O 	0.28471 0.50056 0.08390 -0.42600
O 	O 	0.38263 0.45464 0.27240 -0.31200
O 	O 	0.32022 0.32332 0.85910 -0.43900
O 	O 	0.49317 0.41084 0.13160 -0.37800
Mo	Mo	0.16064 0.44063 0.69164 1.24700
P 	P 	0.13548 0.33249 0.94654 0.61000
O 	O 	0.06770 0.32030 0.03550 -0.49200
O 	O 	0.10762 0.39457 0.85150 -0.35200
O 	O 	0.20659 0.35008 0.66700 -0.46800
O 	O 	0.25056 0.46529 0.83390 -0.38100
O 	O 	0.20464 0.36737 0.02240 -0.38200
O 	O 	0.07332 0.42978 0.60910 -0.50400
O 	O 	0.16084 0.25683 0.88160 -0.37600
Mo	Mo	0.66064 0.94063 0.19164 1.25900
P 	P 	0.63548 0.83249 0.44654 0.52000
O 	O 	0.56770 0.82030 0.53550 -0.36900
O 	O 	0.60762 0.89457 0.35150 -0.30700
O 	O 	0.70659 0.85008 0.16700 -0.46500
O 	O 	0.75056 0.96529 0.33390 -0.35600
O 	O 	0.70464 0.86737 0.52240 -0.29100
O 	O 	0.57332 0.92978 0.10910 -0.44200
O 	O 	0.66084 0.75683 0.38160 -0.36000
Mo	Mo	0.33936 0.55937 0.19164 1.24600
P 	P 	0.36452 0.66751 0.44654 0.52100
O 	O 	0.43230 0.67970 0.53550 -0.37800
O 	O 	0.39238 0.60543 0.35150 -0.32400
O 	O 	0.29341 0.64992 0.16700 -0.47500
O 	O 	0.24944 0.53471 0.33390 -0.40300
O 	O 	0.29536 0.63263 0.52240 -0.30800
O 	O 	0.42668 0.57022 0.10910 -0.47200
O 	O 	0.33916 0.74317 0.38160 -0.35900
Mo	Mo	0.83936 0.05937 0.69164 1.23600
P 	P 	0.86452 0.16751 0.94654 0.60700
O 	O 	0.93230 0.17970 0.03550 -0.35000
O 	O 	0.89238 0.10543 0.85150 -0.30000
O 	O 	0.79341 0.14992 0.66700 -0.45200
O 	O 	0.74944 0.03471 0.83390 -0.40800
O 	O 	0.79536 0.13263 0.02240 -0.37600
O 	O 	0.92668 0.07022 0.60910 -0.39600
O 	O 	0.83916 0.24317 0.88160 -0.32900
Co	Co	0.50000 0.75000 0.62500 1.21400
Co	Co	0.00000 0.25000 0.12500 1.12600
Co	Co	-0.00000 0.75000 0.87500 1.13600
Co	Co	0.50000 0.25000 0.37500 1.21000
Co	Co	0.50000 0.00000 -0.00000 1.15000
Co	Co	0.00000 0.50000 0.50000 1.13200
Co	Co	0.00000 0.00000 0.50000 1.09800
Co	Co	0.50000 0.50000 -0.00000 1.18300
Co	Co	0.75000 0.75000 0.25000 1.21400
Co	Co	0.75000 0.25000 0.75000 1.21600
Co	Co	0.25000 0.25000 0.75000 1.21400
Co	Co	0.25000 0.75000 0.25000 1.21100
