data_crystal

_cell_length_a 9.62710
_cell_length_b 13.11720
_cell_length_c 10.57260
_cell_angle_alpha 90.00000
_cell_angle_beta  110.08400
_cell_angle_gamma 90.00000

_symmetry_space_group_name_	'P 1'
_symmetry_space_group_name_H-M	'P 1'

loop_
_symmetry_equiv_pos_as_xyz
  x,y,z

loop_
_atom_site_label
_atom_site_type_symbol
_atom_site_fract_x
_atom_site_fract_y
_atom_site_fract_z
_atom_site_charge
Mn	Mn	0.20533 0.38397 0.36015 1.22900
Mn	Mn	0.25222 0.63431 0.54889 1.27200
C 	C 	0.43610 0.56870 0.41380 0.33900
C 	C 	0.54570 0.53490 0.34900 -0.15600
C 	C 	0.49240 0.48110 0.22980 0.02000
H 	H 	0.39140 0.46970 0.18930 -0.01200
C 	C 	0.59100 0.44400 0.17050 -0.05300
C 	C 	0.73950 0.46450 0.23130 0.03600
H 	H 	0.80570 0.43880 0.19280 0.01100
C 	C 	0.79320 0.52170 0.34770 -0.17000
C 	C 	0.69530 0.55820 0.40770 0.08300
H 	H 	0.72910 0.59750 0.48550 -0.00000
C 	C 	0.95840 0.53890 0.40550 0.44300
C 	C 	0.54310 0.38050 0.04620 0.04400
C 	C 	0.45570 0.42140 0.92330 -0.05600
H 	H 	0.42010 0.48760 0.92040 0.06100
C 	C 	0.42040 0.36570 0.80520 -0.08600
C 	C 	0.46930 0.26470 0.81170 -0.02900
H 	H 	0.44330 0.22540 0.73380 0.05200
C 	C 	0.55670 0.22290 0.93390 -0.01000
H 	H 	0.59160 0.15650 0.93690 0.04600
C 	C 	0.59180 0.27880 0.05010 -0.09800
C 	C 	0.33580 0.41230 0.67310 0.39800
C 	C 	0.68710 0.23020 0.18270 0.33800
O 	O 	0.30500 0.53380 0.36820 -0.53800
O 	O 	0.47650 0.62950 0.51230 -0.41800
O 	O 	0.29880 0.35540 0.57140 -0.48600
O 	O 	0.30890 0.50540 0.67220 -0.46800
O 	O 	0.63730 0.22940 0.27880 -0.43300
O 	O 	0.80520 0.19180 0.18590 -0.32000
O 	O 	0.03140 0.47800 0.36860 -0.54300
O 	O 	0.01040 0.61240 0.48430 -0.47800
Mn	Mn	0.79467 0.88397 0.63985 1.22000
Mn	Mn	0.74778 0.13431 0.45111 1.27400
C 	C 	0.56390 0.06870 0.58620 0.31300
C 	C 	0.45430 0.03490 0.65100 -0.06800
C 	C 	0.50760 0.98110 0.77020 -0.08300
H 	H 	0.60860 0.96970 0.81070 0.01100
C 	C 	0.40900 0.94400 0.82950 0.00500
C 	C 	0.26050 0.96450 0.76870 -0.05900
H 	H 	0.19430 0.93880 0.80720 0.03600
C 	C 	0.20680 0.02170 0.65230 -0.09300
C 	C 	0.30470 0.05820 0.59230 0.02100
H 	H 	0.27090 0.09750 0.51450 0.02300
C 	C 	0.04160 0.03890 0.59450 0.45200
C 	C 	0.45690 0.88050 0.95380 0.02000
C 	C 	0.54430 0.92140 0.07670 -0.05400
H 	H 	0.57990 0.98760 0.07960 0.04600
C 	C 	0.57960 0.86570 0.19480 -0.08100
C 	C 	0.53070 0.76470 0.18830 -0.03700
H 	H 	0.55670 0.72540 0.26620 0.05200
C 	C 	0.44330 0.72290 0.06610 -0.01400
H 	H 	0.40840 0.65650 0.06310 0.03700
C 	C 	0.40820 0.77880 0.94990 -0.09300
C 	C 	0.66420 0.91230 0.32690 0.35000
C 	C 	0.31290 0.73020 0.81730 0.33500
O 	O 	0.69500 0.03380 0.63180 -0.51100
O 	O 	0.52350 0.12950 0.48770 -0.40600
O 	O 	0.70120 0.85540 0.42860 -0.48200
O 	O 	0.69110 0.00540 0.32780 -0.42700
O 	O 	0.36270 0.72940 0.72120 -0.43700
O 	O 	0.19480 0.69180 0.81410 -0.32700
O 	O 	0.96860 0.97800 0.63140 -0.57300
O 	O 	0.98960 0.11240 0.51570 -0.46800
