data_crystal

_cell_length_a 13.50040
_cell_length_b 17.06640
_cell_length_c 9.67150
_cell_angle_alpha 90.00000
_cell_angle_beta  90.00000
_cell_angle_gamma 90.00000

_symmetry_space_group_name_	'P 1'
_symmetry_space_group_name_H-M	'P 1'

loop_
_symmetry_equiv_pos_as_xyz
  x,y,z

loop_
_atom_site_label
_atom_site_type_symbol
_atom_site_fract_x
_atom_site_fract_y
_atom_site_fract_z
_atom_site_charge
O 	O 	0.10330 0.08340 0.11510 -0.47900
C 	C 	0.21900 0.21770 0.12260 0.00200
H 	H 	0.19630 0.19710 0.20700 0.03400
C 	C 	0.04980 0.06900 0.42050 -0.27400
H 	H 	0.01620 0.11620 0.38680 -0.31000
H 	H 	0.11820 0.07020 0.38680 0.91200
H 	H 	0.13660 0.04650 0.38440 -0.88700
O 	O 	0.60330 0.58340 0.11510 -0.46100
C 	C 	0.71900 0.71770 0.12260 -0.00200
H 	H 	0.69630 0.69710 0.20700 0.04600
C 	C 	0.54980 0.56900 0.42050 -0.02500
H 	H 	0.51620 0.61620 0.38680 0.02800
H 	H 	0.61820 0.57020 0.38680 0.02700
H 	H 	0.63660 0.54650 0.38440 0.01400
O 	O 	0.89670 0.91660 0.11510 -0.42800
C 	C 	0.78100 0.78230 0.12260 -0.01300
H 	H 	0.80370 0.80290 0.20700 0.05200
C 	C 	0.95020 0.93100 0.42050 -0.02400
H 	H 	0.98380 0.88380 0.38680 0.30300
H 	H 	0.88180 0.92980 0.38680 -0.20700
H 	H 	0.86340 0.95350 0.38440 0.27700
O 	O 	0.39670 0.41660 0.11510 -0.46000
C 	C 	0.28100 0.28230 0.12260 -0.02000
H 	H 	0.30370 0.30290 0.20700 0.04700
C 	C 	0.45020 0.43100 0.42050 -0.01900
H 	H 	0.48380 0.38380 0.38680 0.00800
H 	H 	0.38180 0.42980 0.38680 0.01500
H 	H 	0.36340 0.45350 0.38440 0.02400
O 	O 	0.89670 0.08340 0.88490 -0.43800
C 	C 	0.78100 0.21770 0.87740 0.06700
H 	H 	0.80370 0.19710 0.79300 0.01700
C 	C 	0.95020 0.06900 0.57950 -0.24600
H 	H 	0.98380 0.11620 0.61320 0.42500
H 	H 	0.88180 0.07020 0.61320 0.40000
H 	H 	0.86340 0.04650 0.61560 -0.35000
O 	O 	0.39670 0.58340 0.88490 -0.40700
C 	C 	0.28100 0.71770 0.87740 0.06900
H 	H 	0.30370 0.69710 0.79300 0.03600
C 	C 	0.45020 0.56900 0.57950 -0.02600
H 	H 	0.48380 0.61620 0.61320 0.01300
H 	H 	0.38180 0.57020 0.61320 0.03800
H 	H 	0.36340 0.54650 0.61560 0.00600
O 	O 	0.10330 0.91660 0.88490 -0.35600
C 	C 	0.21900 0.78230 0.87740 0.03900
H 	H 	0.19630 0.80290 0.79300 0.05300
C 	C 	0.04980 0.93100 0.57950 0.04800
H 	H 	0.01620 0.88380 0.61320 -0.26400
H 	H 	0.11820 0.92980 0.61320 0.01700
H 	H 	0.13660 0.95350 0.61560 0.01300
O 	O 	0.60330 0.41660 0.88490 -0.40700
C 	C 	0.71900 0.28230 0.87740 0.03600
H 	H 	0.69630 0.30290 0.79300 0.03800
C 	C 	0.54980 0.43100 0.57950 -0.02100
H 	H 	0.51620 0.38380 0.61320 0.02500
H 	H 	0.61820 0.42980 0.61320 0.00800
H 	H 	0.63660 0.45350 0.61560 0.03300
O 	O 	0.89670 0.91660 0.88490 -0.37600
C 	C 	0.78100 0.78230 0.87740 0.04800
H 	H 	0.80370 0.80290 0.79300 0.04200
C 	C 	0.95020 0.93100 0.57950 -0.02600
H 	H 	0.98380 0.88380 0.61320 0.30500
H 	H 	0.88180 0.92980 0.61320 -0.20400
H 	H 	0.86340 0.95350 0.61560 0.27700
O 	O 	0.39670 0.41660 0.88490 -0.40700
C 	C 	0.28100 0.28230 0.87740 0.04200
H 	H 	0.30370 0.30290 0.79300 0.03700
C 	C 	0.45020 0.43100 0.57950 -0.02100
H 	H 	0.48380 0.38380 0.61320 0.01000
H 	H 	0.38180 0.42980 0.61320 0.01700
H 	H 	0.36340 0.45350 0.61560 0.02400
O 	O 	0.10330 0.08340 0.88490 -0.42700
C 	C 	0.21900 0.21770 0.87740 0.06200
H 	H 	0.19630 0.19710 0.79300 0.02400
C 	C 	0.04980 0.06900 0.57950 -0.27500
H 	H 	0.01620 0.11620 0.61320 -0.30900
H 	H 	0.11820 0.07020 0.61320 0.91200
H 	H 	0.13660 0.04650 0.61560 -0.88500
O 	O 	0.60330 0.58340 0.88490 -0.40700
C 	C 	0.71900 0.71770 0.87740 0.06000
H 	H 	0.69630 0.69710 0.79300 0.03700
C 	C 	0.54980 0.56900 0.57950 -0.02700
H 	H 	0.51620 0.61620 0.61320 0.02900
H 	H 	0.61820 0.57020 0.61320 0.02900
H 	H 	0.63660 0.54650 0.61560 0.01500
O 	O 	0.10330 0.91660 0.11510 -0.40800
C 	C 	0.21900 0.78230 0.12260 -0.02200
H 	H 	0.19630 0.80290 0.20700 0.06300
C 	C 	0.04980 0.93100 0.42050 0.05000
H 	H 	0.01620 0.88380 0.38680 -0.26600
H 	H 	0.11820 0.92980 0.38680 0.01400
H 	H 	0.13660 0.95350 0.38440 0.01300
O 	O 	0.60330 0.41660 0.11510 -0.46100
C 	C 	0.71900 0.28230 0.12260 -0.02600
H 	H 	0.69630 0.30290 0.20700 0.04700
C 	C 	0.54980 0.43100 0.42050 -0.01900
H 	H 	0.51620 0.38380 0.38680 0.02400
H 	H 	0.61820 0.42980 0.38680 0.00600
H 	H 	0.63660 0.45350 0.38440 0.03300
O 	O 	0.89670 0.08340 0.11510 -0.49100
C 	C 	0.78100 0.21770 0.12260 0.00600
H 	H 	0.80370 0.19710 0.20700 0.02600
C 	C 	0.95020 0.06900 0.42050 -0.24500
H 	H 	0.98380 0.11620 0.38680 0.42400
H 	H 	0.88180 0.07020 0.38680 0.39900
H 	H 	0.86340 0.04650 0.38440 -0.35200
O 	O 	0.39670 0.58340 0.11510 -0.46000
C 	C 	0.28100 0.71770 0.12260 0.00800
H 	H 	0.30370 0.69710 0.20700 0.04500
C 	C 	0.45020 0.56900 0.42050 -0.02400
H 	H 	0.48380 0.61620 0.38680 0.01200
H 	H 	0.38180 0.57020 0.38680 0.03700
H 	H 	0.36340 0.54650 0.38440 0.00600
C 	C 	0.12670 0.11070 -0.00000 0.33000
C 	C 	0.19040 0.18330 -0.00000 -0.15400
C 	C 	0.62670 0.61070 -0.00000 0.32700
C 	C 	0.69040 0.68330 -0.00000 -0.14200
C 	C 	0.87330 0.88930 -0.00000 0.31800
C 	C 	0.80960 0.81670 -0.00000 -0.12700
C 	C 	0.37330 0.38930 -0.00000 0.32200
C 	C 	0.30960 0.31670 -0.00000 -0.13400
C 	C 	0.87330 0.11070 -0.00000 0.33500
C 	C 	0.80960 0.18330 -0.00000 -0.16300
C 	C 	0.37330 0.61070 -0.00000 0.32900
C 	C 	0.30960 0.68330 -0.00000 -0.14700
C 	C 	0.12670 0.88930 -0.00000 0.31100
C 	C 	0.19040 0.81670 -0.00000 -0.11300
C 	C 	0.62670 0.38930 -0.00000 0.32000
C 	C 	0.69040 0.31670 -0.00000 -0.13100
Zn	Zn	0.00000 -0.00000 0.15238 1.18600
N 	N 	0.00000 -0.00000 0.36630 -0.22200
Zn	Zn	0.50000 0.50000 0.15238 1.20900
N 	N 	0.50000 0.50000 0.36630 -0.19600
Zn	Zn	0.00000 -0.00000 0.84762 1.19500
N 	N 	0.00000 -0.00000 0.63370 -0.22200
Zn	Zn	0.50000 0.50000 0.84762 1.21800
N 	N 	0.50000 0.50000 0.63370 -0.19500
C 	C 	0.10170 0.00000 0.41840 0.27600
C 	C 	0.60170 0.50000 0.41840 -0.03300
C 	C 	0.89830 0.00000 0.41840 0.00700
C 	C 	0.39830 0.50000 0.41840 -0.02600
C 	C 	0.89830 -0.00000 0.58160 0.00900
C 	C 	0.39830 0.50000 0.58160 -0.02400
C 	C 	0.10170 -0.00000 0.58160 0.27700
C 	C 	0.60170 0.50000 0.58160 -0.03100
