data_crystal

_cell_length_a 15.39160
_cell_length_b 15.39160
_cell_length_c 9.58800
_cell_angle_alpha 90.00000
_cell_angle_beta  90.00000
_cell_angle_gamma 90.00000

_symmetry_space_group_name_	'P 1'
_symmetry_space_group_name_H-M	'P 1'

loop_
_symmetry_equiv_pos_as_xyz
  x,y,z

loop_
_atom_site_label
_atom_site_type_symbol
_atom_site_fract_x
_atom_site_fract_y
_atom_site_fract_z
_atom_site_charge
C 	C 	0.31720 0.24300 0.42200 -0.02900
C 	C 	0.25350 0.18850 0.38300 0.02600
C 	C 	0.68280 0.75700 0.42200 -0.01100
C 	C 	0.74650 0.81150 0.38300 0.06000
C 	C 	0.75700 0.31720 0.42200 -0.01400
C 	C 	0.81150 0.25350 0.38300 0.06600
C 	C 	0.24300 0.68280 0.42200 -0.02400
C 	C 	0.18850 0.74650 0.38300 0.02200
C 	C 	0.68280 0.24300 0.57800 -0.02400
C 	C 	0.74650 0.18850 0.61700 0.02200
C 	C 	0.31720 0.75700 0.57800 -0.01400
C 	C 	0.25350 0.81150 0.61700 0.06600
C 	C 	0.24300 0.31720 0.57800 -0.02800
C 	C 	0.18850 0.25350 0.61700 0.02700
C 	C 	0.75700 0.68280 0.57800 -0.01000
C 	C 	0.81150 0.74650 0.61700 0.06000
C 	C 	0.68280 0.75700 0.57800 -0.01000
C 	C 	0.74650 0.81150 0.61700 0.06000
C 	C 	0.31720 0.24300 0.57800 -0.02800
C 	C 	0.25350 0.18850 0.61700 0.02700
C 	C 	0.24300 0.68280 0.57800 -0.02400
C 	C 	0.18850 0.74650 0.61700 0.02200
C 	C 	0.75700 0.31720 0.57800 -0.01400
C 	C 	0.81150 0.25350 0.61700 0.06600
C 	C 	0.31720 0.75700 0.42200 -0.01400
C 	C 	0.25350 0.81150 0.38300 0.06600
C 	C 	0.68280 0.24300 0.42200 -0.02400
C 	C 	0.74650 0.18850 0.38300 0.02200
C 	C 	0.75700 0.68280 0.42200 -0.01000
C 	C 	0.81150 0.74650 0.38300 0.06000
C 	C 	0.24300 0.31720 0.42200 -0.02800
C 	C 	0.18850 0.25350 0.38300 0.02700
Zn	Zn	0.00000 0.00000 0.34810 1.16900
N 	N 	0.00000 0.00000 0.13930 -0.29600
Zn	Zn	-0.00000 0.00000 0.65190 1.16900
N 	N 	0.00000 0.00000 0.86070 -0.29600
O 	O 	0.09060 0.09060 0.38520 -0.50500
O 	O 	0.90940 0.90940 0.38520 -0.37200
O 	O 	0.90940 0.09060 0.38520 -0.43500
O 	O 	0.09060 0.90940 0.38520 -0.43500
O 	O 	0.90940 0.09060 0.61480 -0.43500
O 	O 	0.09060 0.90940 0.61480 -0.43500
O 	O 	0.09060 0.09060 0.61480 -0.50500
O 	O 	0.90940 0.90940 0.61480 -0.37200
C 	C 	0.30700 0.30700 0.50000 0.04100
C 	C 	0.18190 0.18190 0.50000 -0.16100
C 	C 	0.11880 0.11880 0.50000 0.42600
C 	C 	0.69300 0.69300 0.50000 0.03100
C 	C 	0.81810 0.81810 0.50000 -0.14900
C 	C 	0.88120 0.88120 0.50000 0.42500
C 	C 	0.69300 0.30700 0.50000 0.03600
C 	C 	0.81810 0.18190 0.50000 -0.15400
C 	C 	0.88120 0.11880 0.50000 0.42500
C 	C 	0.30700 0.69300 0.50000 0.03600
C 	C 	0.18190 0.81810 0.50000 -0.15400
C 	C 	0.11880 0.88120 0.50000 0.42500
C 	C 	0.08640 0.00000 0.07800 -0.02600
C 	C 	0.91360 0.00000 0.07800 0.05800
C 	C 	-0.00000 0.08640 0.07800 -0.02600
C 	C 	0.00000 0.91360 0.07800 0.05800
C 	C 	0.91360 0.00000 0.92200 0.05800
C 	C 	0.08640 0.00000 0.92200 -0.02600
C 	C 	0.00000 0.08640 0.92200 -0.02600
C 	C 	0.00000 0.91360 0.92200 0.05800
