data_crystal

_cell_length_a 21.55540
_cell_length_b 23.93670
_cell_length_c 10.37870
_cell_angle_alpha 90.00000
_cell_angle_beta  99.83800
_cell_angle_gamma 90.00000

_symmetry_space_group_name_	'P 1'
_symmetry_space_group_name_H-M	'P 1'

loop_
_symmetry_equiv_pos_as_xyz
  x,y,z

loop_
_atom_site_label
_atom_site_type_symbol
_atom_site_fract_x
_atom_site_fract_y
_atom_site_fract_z
_atom_site_charge
U 	U 	0.50983 0.36662 0.79295 0.04600
P 	P 	0.39800 0.37160 0.46940 0.37800
P 	P 	0.30710 0.11714 0.41190 0.39400
P 	P 	0.36500 0.35076 0.92750 0.38100
P 	P 	0.32600 0.08541 0.92930 0.37600
O 	O 	0.41790 0.39030 0.34220 -0.19900
O 	O 	0.33880 0.40730 0.48280 -0.15900
O 	O 	0.44830 0.37680 0.58810 -0.15800
O 	O 	0.32290 0.09240 0.54710 -0.14700
O 	O 	0.34400 0.09050 0.31290 -0.13400
O 	O 	0.23620 0.11600 0.35720 -0.14000
O 	O 	0.39130 0.37020 0.06440 -0.15300
O 	O 	0.29820 0.37730 0.88670 -0.16300
O 	O 	0.40260 0.36450 0.81950 -0.12900
O 	O 	0.36120 0.06160 0.05750 -0.14100
O 	O 	0.25430 0.07800 0.91750 -0.20500
O 	O 	0.34780 0.06040 0.81110 -0.16300
O 	O 	0.50470 0.43860 0.82710 -0.05900
C 	C 	0.37320 0.29980 0.45310 -0.01500
C 	C 	0.41080 0.25660 0.50520 -0.03300
H 	H 	0.45170 0.26440 0.55210 0.06800
C 	C 	0.39100 0.20280 0.49110 -0.02500
H 	H 	0.41870 0.17370 0.52650 0.06700
C 	C 	0.33180 0.18920 0.42720 -0.03400
C 	C 	0.29280 0.23330 0.37220 -0.02500
H 	H 	0.25210 0.22520 0.32500 0.05700
C 	C 	0.31220 0.28730 0.38540 -0.03600
H 	H 	0.28490 0.31650 0.34910 0.06700
C 	C 	0.35440 0.27610 0.92870 -0.02800
C 	C 	0.35770 0.24500 0.81800 -0.02000
H 	H 	0.36690 0.26310 0.74190 0.06500
C 	C 	0.34760 0.18690 0.81620 -0.03400
H 	H 	0.34780 0.16610 0.73840 0.07200
C 	C 	0.33710 0.16000 0.93060 -0.02800
C 	C 	0.33730 0.19050 0.04320 -0.01200
H 	H 	0.33300 0.17210 0.12240 0.07400
C 	C 	0.34370 0.24780 0.04060 -0.00200
H 	H 	0.34080 0.26860 0.11720 0.06100
U 	U 	0.00983 0.86662 0.79295 0.05100
P 	P 	0.89800 0.87160 0.46940 0.37700
P 	P 	0.80710 0.61714 0.41190 0.39300
P 	P 	0.86500 0.85076 0.92750 0.38000
P 	P 	0.82600 0.58541 0.92930 0.37600
O 	O 	0.91790 0.89030 0.34220 -0.19800
O 	O 	0.83880 0.90730 0.48280 -0.15300
O 	O 	0.94830 0.87680 0.58810 -0.16300
O 	O 	0.82290 0.59240 0.54710 -0.14700
O 	O 	0.84400 0.59050 0.31290 -0.13400
O 	O 	0.73620 0.61600 0.35720 -0.13900
O 	O 	0.89130 0.87020 0.06440 -0.15300
O 	O 	0.79820 0.87730 0.88670 -0.16000
O 	O 	0.90260 0.86450 0.81950 -0.13200
O 	O 	0.86120 0.56160 0.05750 -0.13800
O 	O 	0.75430 0.57800 0.91750 -0.20200
O 	O 	0.84780 0.56040 0.81110 -0.16000
O 	O 	0.00470 0.93860 0.82710 -0.04400
C 	C 	0.87320 0.79980 0.45310 -0.01700
C 	C 	0.91080 0.75660 0.50520 -0.03200
H 	H 	0.95170 0.76440 0.55210 0.06300
C 	C 	0.89100 0.70280 0.49110 -0.02700
H 	H 	0.91870 0.67370 0.52650 0.06500
C 	C 	0.83180 0.68920 0.42720 -0.03400
C 	C 	0.79280 0.73330 0.37220 -0.02600
H 	H 	0.75210 0.72520 0.32500 0.05700
C 	C 	0.81220 0.78730 0.38540 -0.03600
H 	H 	0.78490 0.81650 0.34910 0.06800
C 	C 	0.85440 0.77610 0.92870 -0.03000
C 	C 	0.85770 0.74500 0.81800 -0.02000
H 	H 	0.86690 0.76310 0.74190 0.06400
C 	C 	0.84760 0.68690 0.81620 -0.03400
H 	H 	0.84780 0.66610 0.73840 0.07200
C 	C 	0.83710 0.66000 0.93060 -0.02900
C 	C 	0.83730 0.69050 0.04320 -0.01300
H 	H 	0.83300 0.67210 0.12240 0.07300
C 	C 	0.84370 0.74780 0.04060 -0.00300
H 	H 	0.84080 0.76860 0.11720 0.06000
U 	U 	0.49017 0.36662 0.20705 0.04900
P 	P 	0.60200 0.37160 0.53060 0.37700
P 	P 	0.69290 0.11714 0.58810 0.39300
P 	P 	0.63500 0.35076 0.07250 0.40100
P 	P 	0.67400 0.08541 0.07070 0.39500
O 	O 	0.58210 0.39030 0.65780 -0.20000
O 	O 	0.66120 0.40730 0.51720 -0.15900
O 	O 	0.55170 0.37680 0.41190 -0.15800
O 	O 	0.67710 0.09240 0.45290 -0.14700
O 	O 	0.65600 0.09050 0.68710 -0.13600
O 	O 	0.76380 0.11600 0.64280 -0.14100
O 	O 	0.60870 0.37020 0.93560 -0.17600
O 	O 	0.70180 0.37730 0.11330 -0.15400
O 	O 	0.59740 0.36450 0.18050 -0.12800
O 	O 	0.63880 0.06160 0.94250 -0.16500
O 	O 	0.74570 0.07800 0.08250 -0.19700
O 	O 	0.65220 0.06040 0.18890 -0.16100
O 	O 	0.49530 0.43860 0.17290 -0.05200
C 	C 	0.62680 0.29980 0.54690 -0.01500
C 	C 	0.58920 0.25660 0.49480 -0.03300
H 	H 	0.54830 0.26440 0.44790 0.06800
C 	C 	0.60900 0.20280 0.50890 -0.02500
H 	H 	0.58130 0.17370 0.47350 0.06700
C 	C 	0.66820 0.18920 0.57280 -0.03500
C 	C 	0.70720 0.23330 0.62780 -0.02600
H 	H 	0.74790 0.22520 0.67500 0.05700
C 	C 	0.68780 0.28730 0.61460 -0.03700
H 	H 	0.71510 0.31650 0.65090 0.06700
C 	C 	0.64560 0.27610 0.07130 0.00500
C 	C 	0.64230 0.24500 0.18200 -0.02300
H 	H 	0.63310 0.26310 0.25810 0.06600
C 	C 	0.65240 0.18690 0.18380 -0.03800
H 	H 	0.65220 0.16610 0.26160 0.07400
C 	C 	0.66290 0.16000 0.06940 0.00700
C 	C 	0.66270 0.19050 0.95680 -0.04700
H 	H 	0.66700 0.17210 0.87760 0.08100
C 	C 	0.65630 0.24780 0.95940 -0.03500
H 	H 	0.65920 0.26860 0.88280 0.06600
U 	U 	0.99017 0.86662 0.20705 0.04100
P 	P 	0.10200 0.87160 0.53060 0.37700
P 	P 	0.19290 0.61714 0.58810 0.39400
P 	P 	0.13500 0.85076 0.07250 0.40100
P 	P 	0.17400 0.58541 0.07070 0.39600
O 	O 	0.08210 0.89030 0.65780 -0.19300
O 	O 	0.16120 0.90730 0.51720 -0.15100
O 	O 	0.05170 0.87680 0.41190 -0.14900
O 	O 	0.17710 0.59240 0.45290 -0.14500
O 	O 	0.15600 0.59050 0.68710 -0.13300
O 	O 	0.26380 0.61600 0.64280 -0.14000
O 	O 	0.10870 0.87020 0.93560 -0.17300
O 	O 	0.20180 0.87730 0.11330 -0.15100
O 	O 	0.09740 0.86450 0.18050 -0.12200
O 	O 	0.13880 0.56160 0.94250 -0.15800
O 	O 	0.24570 0.57800 0.08250 -0.19400
O 	O 	0.15220 0.56040 0.18890 -0.15500
O 	O 	0.99530 0.93860 0.17290 -0.05100
C 	C 	0.12680 0.79980 0.54690 -0.01400
C 	C 	0.08920 0.75660 0.49480 -0.03300
H 	H 	0.04830 0.76440 0.44790 0.07200
C 	C 	0.10900 0.70280 0.50890 -0.02400
H 	H 	0.08130 0.67370 0.47350 0.07000
C 	C 	0.16820 0.68920 0.57280 -0.03400
C 	C 	0.20720 0.73330 0.62780 -0.02500
H 	H 	0.24790 0.72520 0.67500 0.05700
C 	C 	0.18780 0.78730 0.61460 -0.03700
H 	H 	0.21510 0.81650 0.65090 0.06700
C 	C 	0.14560 0.77610 0.07130 0.00500
C 	C 	0.14230 0.74500 0.18200 -0.02200
H 	H 	0.13310 0.76310 0.25810 0.06700
C 	C 	0.15240 0.68690 0.18380 -0.03800
H 	H 	0.15220 0.66610 0.26160 0.07500
C 	C 	0.16290 0.66000 0.06940 0.00800
C 	C 	0.16270 0.69050 0.95680 -0.04700
H 	H 	0.16700 0.67210 0.87760 0.08100
C 	C 	0.15630 0.74780 0.95940 -0.03400
H 	H 	0.15920 0.76860 0.88280 0.06700
U 	U 	0.49017 0.63338 0.20705 0.04900
P 	P 	0.60200 0.62840 0.53060 0.37700
P 	P 	0.69290 0.88286 0.58810 0.39400
P 	P 	0.63500 0.64924 0.07250 0.40100
P 	P 	0.67400 0.91459 0.07070 0.39600
O 	O 	0.58210 0.60970 0.65780 -0.20000
O 	O 	0.66120 0.59270 0.51720 -0.15900
O 	O 	0.55170 0.62320 0.41190 -0.15800
O 	O 	0.67710 0.90760 0.45290 -0.13800
O 	O 	0.65600 0.90950 0.68710 -0.12600
O 	O 	0.76380 0.88400 0.64280 -0.13600
O 	O 	0.60870 0.62980 0.93560 -0.17600
O 	O 	0.70180 0.62270 0.11330 -0.15400
O 	O 	0.59740 0.63550 0.18050 -0.12800
O 	O 	0.63880 0.93840 0.94250 -0.15100
O 	O 	0.74570 0.92200 0.08250 -0.18700
O 	O 	0.65220 0.93960 0.18890 -0.14600
O 	O 	0.49530 0.56140 0.17290 -0.05200
C 	C 	0.62680 0.70020 0.54690 -0.01600
C 	C 	0.58920 0.74340 0.49480 -0.03200
H 	H 	0.54830 0.73560 0.44790 0.06800
C 	C 	0.60900 0.79720 0.50890 -0.02600
H 	H 	0.58130 0.82630 0.47350 0.07000
C 	C 	0.66820 0.81080 0.57280 -0.03400
C 	C 	0.70720 0.76670 0.62780 -0.02600
H 	H 	0.74790 0.77480 0.67500 0.05700
C 	C 	0.68780 0.71270 0.61460 -0.03600
H 	H 	0.71510 0.68350 0.65090 0.06700
C 	C 	0.64560 0.72390 0.07130 0.00500
C 	C 	0.64230 0.75500 0.18200 -0.02300
H 	H 	0.63310 0.73690 0.25810 0.06600
C 	C 	0.65240 0.81310 0.18380 -0.03800
H 	H 	0.65220 0.83390 0.26160 0.07500
C 	C 	0.66290 0.84000 0.06940 0.00800
C 	C 	0.66270 0.80950 0.95680 -0.04800
H 	H 	0.66700 0.82790 0.87760 0.08100
C 	C 	0.65630 0.75220 0.95940 -0.03500
H 	H 	0.65920 0.73140 0.88280 0.06600
U 	U 	0.99017 0.13338 0.20705 0.04100
P 	P 	0.10200 0.12840 0.53060 0.37700
P 	P 	0.19290 0.38286 0.58810 0.39400
P 	P 	0.13500 0.14924 0.07250 0.40100
P 	P 	0.17400 0.41459 0.07070 0.39600
O 	O 	0.08210 0.10970 0.65780 -0.19900
O 	O 	0.16120 0.09270 0.51720 -0.16100
O 	O 	0.05170 0.12320 0.41190 -0.15300
O 	O 	0.17710 0.40760 0.45290 -0.14500
O 	O 	0.15600 0.40950 0.68710 -0.13300
O 	O 	0.26380 0.38400 0.64280 -0.14000
O 	O 	0.10870 0.12980 0.93560 -0.17600
O 	O 	0.20180 0.12270 0.11330 -0.15600
O 	O 	0.09740 0.13550 0.18050 -0.12500
O 	O 	0.13880 0.43840 0.94250 -0.15800
O 	O 	0.24570 0.42200 0.08250 -0.19400
O 	O 	0.15220 0.43960 0.18890 -0.15500
O 	O 	0.99530 0.06140 0.17290 -0.06600
C 	C 	0.12680 0.20020 0.54690 -0.01400
C 	C 	0.08920 0.24340 0.49480 -0.03300
H 	H 	0.04830 0.23560 0.44790 0.07200
C 	C 	0.10900 0.29720 0.50890 -0.02400
H 	H 	0.08130 0.32630 0.47350 0.07000
C 	C 	0.16820 0.31080 0.57280 -0.03400
C 	C 	0.20720 0.26670 0.62780 -0.02500
H 	H 	0.24790 0.27480 0.67500 0.05700
C 	C 	0.18780 0.21270 0.61460 -0.03700
H 	H 	0.21510 0.18350 0.65090 0.06700
C 	C 	0.14560 0.22390 0.07130 0.00500
C 	C 	0.14230 0.25500 0.18200 -0.02200
H 	H 	0.13310 0.23690 0.25810 0.06700
C 	C 	0.15240 0.31310 0.18380 -0.03800
H 	H 	0.15220 0.33390 0.26160 0.07500
C 	C 	0.16290 0.34000 0.06940 0.00800
C 	C 	0.16270 0.30950 0.95680 -0.04700
H 	H 	0.16700 0.32790 0.87760 0.08100
C 	C 	0.15630 0.25220 0.95940 -0.03400
H 	H 	0.15920 0.23140 0.88280 0.06700
U 	U 	0.50983 0.63338 0.79295 0.04500
P 	P 	0.39800 0.62840 0.46940 0.37700
P 	P 	0.30710 0.88286 0.41190 0.39400
P 	P 	0.36500 0.64924 0.92750 0.38100
P 	P 	0.32600 0.91459 0.92930 0.37600
O 	O 	0.41790 0.60970 0.34220 -0.19900
O 	O 	0.33880 0.59270 0.48280 -0.15900
O 	O 	0.44830 0.62320 0.58810 -0.15800
O 	O 	0.32290 0.90760 0.54710 -0.13800
O 	O 	0.34400 0.90950 0.31290 -0.12400
O 	O 	0.23620 0.88400 0.35720 -0.13500
O 	O 	0.39130 0.62980 0.06440 -0.15300
O 	O 	0.29820 0.62270 0.88670 -0.16300
O 	O 	0.40260 0.63550 0.81950 -0.12900
O 	O 	0.36120 0.93840 0.05750 -0.12700
O 	O 	0.25430 0.92200 0.91750 -0.19500
O 	O 	0.34780 0.93960 0.81110 -0.14800
O 	O 	0.50470 0.56140 0.82710 -0.05900
C 	C 	0.37320 0.70020 0.45310 -0.01500
C 	C 	0.41080 0.74340 0.50520 -0.03200
H 	H 	0.45170 0.73560 0.55210 0.06800
C 	C 	0.39100 0.79720 0.49110 -0.02600
H 	H 	0.41870 0.82630 0.52650 0.06900
C 	C 	0.33180 0.81080 0.42720 -0.03400
C 	C 	0.29280 0.76670 0.37220 -0.02600
H 	H 	0.25210 0.77480 0.32500 0.05700
C 	C 	0.31220 0.71270 0.38540 -0.03600
H 	H 	0.28490 0.68350 0.34910 0.06700
C 	C 	0.35440 0.72390 0.92870 -0.02800
C 	C 	0.35770 0.75500 0.81800 -0.01900
H 	H 	0.36690 0.73690 0.74190 0.06500
C 	C 	0.34760 0.81310 0.81620 -0.03400
H 	H 	0.34780 0.83390 0.73840 0.07300
C 	C 	0.33710 0.84000 0.93060 -0.02700
C 	C 	0.33730 0.80950 0.04320 -0.01200
H 	H 	0.33300 0.82790 0.12240 0.07400
C 	C 	0.34370 0.75220 0.04060 -0.00200
H 	H 	0.34080 0.73140 0.11720 0.06100
U 	U 	0.00983 0.13338 0.79295 0.05100
P 	P 	0.89800 0.12840 0.46940 0.37700
P 	P 	0.80710 0.38286 0.41190 0.39400
P 	P 	0.86500 0.14924 0.92750 0.38000
P 	P 	0.82600 0.41459 0.92930 0.37600
O 	O 	0.91790 0.10970 0.34220 -0.20400
O 	O 	0.83880 0.09270 0.48280 -0.16200
O 	O 	0.94830 0.12320 0.58810 -0.16700
O 	O 	0.82290 0.40760 0.54710 -0.14700
O 	O 	0.84400 0.40950 0.31290 -0.13400
O 	O 	0.73620 0.38400 0.35720 -0.13900
O 	O 	0.89130 0.12980 0.06440 -0.15600
O 	O 	0.79820 0.12270 0.88670 -0.16400
O 	O 	0.90260 0.13550 0.81950 -0.13500
O 	O 	0.86120 0.43840 0.05750 -0.13800
O 	O 	0.75430 0.42200 0.91750 -0.20200
O 	O 	0.84780 0.43960 0.81110 -0.16000
O 	O 	0.00470 0.06140 0.82710 -0.06000
C 	C 	0.87320 0.20020 0.45310 -0.01700
C 	C 	0.91080 0.24340 0.50520 -0.03200
H 	H 	0.95170 0.23560 0.55210 0.06300
C 	C 	0.89100 0.29720 0.49110 -0.02700
H 	H 	0.91870 0.32630 0.52650 0.06500
C 	C 	0.83180 0.31080 0.42720 -0.03400
C 	C 	0.79280 0.26670 0.37220 -0.02600
H 	H 	0.75210 0.27480 0.32500 0.05700
C 	C 	0.81220 0.21270 0.38540 -0.03500
H 	H 	0.78490 0.18350 0.34910 0.06700
C 	C 	0.85440 0.22390 0.92870 -0.02900
C 	C 	0.85770 0.25500 0.81800 -0.02000
H 	H 	0.86690 0.23690 0.74190 0.06400
C 	C 	0.84760 0.31310 0.81620 -0.03400
H 	H 	0.84780 0.33390 0.73840 0.07200
C 	C 	0.83710 0.34000 0.93060 -0.02900
C 	C 	0.83730 0.30950 0.04320 -0.01300
H 	H 	0.83300 0.32790 0.12240 0.07300
C 	C 	0.84370 0.25220 0.04060 -0.00300
H 	H 	0.84080 0.23140 0.11720 0.06000
U 	U 	0.32762 -0.00000 0.63185 0.06000
U 	U 	0.34215 -0.00000 0.22100 0.05300
F 	F 	0.29540 -0.00000 0.40870 -0.29500
O 	O 	0.24700 -0.00000 0.64630 -0.08400
U 	U 	0.82762 0.50000 0.63185 0.06800
U 	U 	0.84215 0.50000 0.22100 0.06300
F 	F 	0.79540 0.50000 0.40870 -0.28800
O 	O 	0.74700 0.50000 0.64630 -0.07500
U 	U 	0.67238 0.00000 0.36815 0.06100
U 	U 	0.65785 -0.00000 0.77900 0.05000
F 	F 	0.70460 -0.00000 0.59130 -0.29600
O 	O 	0.75300 -0.00000 0.35370 -0.08500
U 	U 	0.17238 0.50000 0.36815 0.07100
U 	U 	0.15785 0.50000 0.77900 0.06200
F 	F 	0.20460 0.50000 0.59130 -0.28800
O 	O 	0.25300 0.50000 0.35370 -0.07500
Cs	Cs	0.36121 0.50000 0.21283 0.75700
Cs	Cs	0.86121 -0.00000 0.21283 0.75100
Cs	Cs	0.63879 0.50000 0.78717 0.75500
Cs	Cs	0.13879 -0.00000 0.78717 0.74900
F 	F 	0.50000 0.33350 -0.00000 -0.30800
F 	F 	0.00000 0.83350 -0.00000 -0.30100
F 	F 	0.50000 0.66650 -0.00000 -0.30800
F 	F 	-0.00000 0.16650 -0.00000 -0.30100
