data_crystal

_cell_length_a 8.85700
_cell_length_b 10.02100
_cell_length_c 12.99300
_cell_angle_alpha 82.28400
_cell_angle_beta  84.14500
_cell_angle_gamma 89.89600

_symmetry_space_group_name_	'P 1'
_symmetry_space_group_name_H-M	'P 1'

loop_
_symmetry_equiv_pos_as_xyz
  x,y,z

loop_
_atom_site_label
_atom_site_type_symbol
_atom_site_fract_x
_atom_site_fract_y
_atom_site_fract_z
_atom_site_charge
S 	S 	0.95399 0.11062 0.25590 1.02700
N 	N 	0.09970 0.21030 0.92740 -0.26500
N 	N 	0.21620 0.38060 0.82550 -0.08600
N 	N 	0.91860 0.19540 0.54920 -0.24000
N 	N 	0.87280 0.35980 0.64360 -0.07900
N 	N 	0.24490 0.91570 0.99650 -0.15400
N 	N 	0.46750 0.85210 0.93120 -0.04600
O 	O 	0.02330 0.04500 0.16980 -0.64600
O 	O 	0.81820 0.03200 0.30060 -0.46100
O 	O 	0.06170 0.10660 0.33420 -0.62600
O 	O 	0.91360 0.24850 0.22150 -0.35800
C 	C 	0.44550 0.51750 0.75470 0.24300
C 	C 	0.58000 0.44950 0.73450 -0.30500
H 	H 	0.57830 0.36750 0.70860 0.13000
C 	C 	0.71730 0.50460 0.75320 0.26800
C 	C 	0.71840 0.62670 0.79290 -0.32400
H 	H 	0.81040 0.66320 0.80510 0.17700
C 	C 	0.58520 0.69510 0.81460 0.27400
C 	C 	0.44800 0.64040 0.79420 -0.30300
H 	H 	0.35790 0.68600 0.80690 0.16200
C 	C 	0.29640 0.46020 0.73320 -0.22500
H 	H 	0.23220 0.53350 0.70830 0.09600
H 	H 	0.31500 0.40360 0.67830 0.08100
C 	C 	0.86670 0.43640 0.73260 -0.26900
H 	H 	0.94690 0.50410 0.71960 0.15700
H 	H 	0.88560 0.37580 0.79460 0.13700
C 	C 	0.59320 0.83070 0.85260 -0.26100
H 	H 	0.68850 0.83820 0.88240 0.15200
H 	H 	0.59220 0.90090 0.79350 0.15200
C 	C 	0.15910 0.42880 0.91500 -0.09100
H 	H 	0.16790 0.51630 0.93020 0.06800
C 	C 	0.08710 0.32320 0.97730 0.12400
H 	H 	0.03720 0.32670 0.04340 -0.08000
C 	C 	0.17780 0.24840 0.83650 0.05200
H 	H 	0.20330 0.19180 0.78640 -0.04300
C 	C 	0.84570 0.40890 0.54370 -0.01400
H 	H 	0.81420 0.49520 0.52010 0.05700
C 	C 	0.87420 0.30610 0.48560 0.01700
H 	H 	0.86500 0.31030 0.41460 0.03300
C 	C 	0.91610 0.23070 0.64320 0.07400
H 	H 	0.94090 0.17410 0.70160 -0.01200
C 	C 	0.31800 0.84760 0.07450 -0.00200
H 	H 	0.27980 0.83160 0.14450 0.05000
C 	C 	0.45500 0.80670 0.03430 -0.04200
H 	H 	0.52630 0.75710 0.07060 0.06000
C 	C 	0.33890 0.91720 0.91130 0.10000
H 	H 	0.31880 0.95820 0.84560 0.04000
S 	S 	0.04601 0.88938 0.74410 0.45400
N 	N 	0.90030 0.78970 0.07260 -0.15300
N 	N 	0.78380 0.61940 0.17450 -0.09100
N 	N 	0.08140 0.80460 0.45080 -0.21600
N 	N 	0.12720 0.64020 0.35640 -0.10100
N 	N 	0.75510 0.08430 0.00350 -0.26600
N 	N 	0.53250 0.14790 0.06880 -0.13100
O 	O 	0.97670 0.95500 0.83020 -0.24100
O 	O 	0.18180 0.96800 0.69940 -0.26200
O 	O 	0.93830 0.89340 0.66580 -0.28400
O 	O 	0.08640 0.75150 0.77850 -0.31800
C 	C 	0.55450 0.48250 0.24530 0.22200
C 	C 	0.42000 0.55050 0.26550 -0.28600
H 	H 	0.42170 0.63250 0.29140 0.14600
C 	C 	0.28270 0.49540 0.24680 0.20700
C 	C 	0.28160 0.37330 0.20710 -0.28400
H 	H 	0.18960 0.33680 0.19490 0.12300
C 	C 	0.41480 0.30490 0.18540 0.20400
C 	C 	0.55200 0.35960 0.20580 -0.28400
H 	H 	0.64210 0.31400 0.19310 0.15200
C 	C 	0.70360 0.53980 0.26680 -0.22100
H 	H 	0.76780 0.46650 0.29170 0.12100
H 	H 	0.68500 0.59640 0.32170 0.11100
C 	C 	0.13330 0.56360 0.26740 -0.19800
H 	H 	0.05310 0.49590 0.28040 0.06800
H 	H 	0.11440 0.62420 0.20540 0.07500
C 	C 	0.40680 0.16930 0.14740 -0.18600
H 	H 	0.31150 0.16180 0.11760 0.06000
H 	H 	0.40780 0.09910 0.20650 0.06100
C 	C 	0.84090 0.57120 0.08500 0.06300
H 	H 	0.83210 0.48370 0.06980 0.02700
C 	C 	0.91290 0.67680 0.02270 -0.11800
H 	H 	0.96280 0.67330 0.95660 0.13700
C 	C 	0.82220 0.75160 0.16350 0.09200
H 	H 	0.79670 0.80820 0.21360 0.06500
C 	C 	0.15430 0.59110 0.45630 -0.02000
H 	H 	0.18580 0.50480 0.47990 0.02100
C 	C 	0.12580 0.69390 0.51440 -0.00900
H 	H 	0.13500 0.68970 0.58540 0.01900
C 	C 	0.08390 0.76930 0.35680 0.06900
H 	H 	0.05910 0.82590 0.29840 0.02700
C 	C 	0.68200 0.15240 0.92550 0.03700
H 	H 	0.72020 0.16840 0.85550 -0.00900
C 	C 	0.54500 0.19330 0.96570 0.01200
H 	H 	0.47370 0.24290 0.92940 0.03300
C 	C 	0.66110 0.08280 0.08870 0.05300
H 	H 	0.68120 0.04180 0.15440 -0.01100
Cd	Cd	-0.00000 0.00000 -0.00000 1.11400
Cd	Cd	0.00000 0.00000 0.50000 1.11700
