data_crystal

_cell_length_a 10.12740
_cell_length_b 14.46060
_cell_length_c 17.02030
_cell_angle_alpha 70.46100
_cell_angle_beta  86.32100
_cell_angle_gamma 83.63900

_symmetry_space_group_name_	'P 1'
_symmetry_space_group_name_H-M	'P 1'

loop_
_symmetry_equiv_pos_as_xyz
  x,y,z

loop_
_atom_site_label
_atom_site_type_symbol
_atom_site_fract_x
_atom_site_fract_y
_atom_site_fract_z
_atom_site_charge
Cd	Cd	0.61474 0.81819 0.40229 1.19100
Cd	Cd	0.95916 0.32224 0.89099 1.22900
O 	O 	0.68730 0.90480 0.48060 -0.51700
O 	O 	0.81080 0.90900 0.36950 -0.40500
O 	O 	0.53590 0.94980 0.63690 -0.44200
O 	O 	0.50320 0.06780 0.69550 -0.49000
O 	O 	0.87320 0.75650 0.02860 -0.49400
O 	O 	0.84690 0.62820 0.98750 -0.42200
O 	O 	0.96630 0.43880 0.13880 -0.42200
O 	O 	0.92080 0.56090 0.19300 -0.45400
O 	O 	0.53260 0.26090 0.50660 -0.47600
O 	O 	0.61650 0.13100 0.47060 -0.44100
O 	O 	0.84760 0.40030 0.98430 -0.44500
O 	O 	0.74720 0.40690 0.87150 -0.38900
O 	O 	0.85600 0.18890 0.96910 -0.35300
N 	N 	0.83500 0.10360 0.10400 0.30600
C 	C 	0.79240 0.92670 0.43570 0.32100
C 	C 	0.89720 0.96680 0.46890 -0.02200
C 	C 	0.88790 0.97170 0.54910 -0.06200
H 	H 	0.81060 0.95260 0.58270 0.06000
C 	C 	0.01210 0.99640 0.41970 -0.08400
H 	H 	0.01980 0.99420 0.36440 0.04900
C 	C 	0.54380 0.98410 0.69520 0.39700
C 	C 	0.61130 0.91290 0.77140 -0.11300
C 	C 	0.63910 0.94560 0.83720 -0.00300
H 	H 	0.61180 0.01140 0.83480 0.01300
C 	C 	0.70680 0.88090 0.90570 -0.03700
H 	H 	0.72560 0.90290 0.95020 0.05000
C 	C 	0.74720 0.78480 0.90980 -0.08800
C 	C 	0.71570 0.75180 0.84620 -0.02500
H 	H 	0.73920 0.68500 0.84990 0.05100
C 	C 	0.65060 0.81580 0.77770 -0.00800
H 	H 	0.63220 0.79290 0.73380 0.04100
C 	C 	0.82930 0.71680 0.98120 0.42400
C 	C 	0.39450 0.53920 0.94690 0.18100
H 	H 	0.32270 0.56650 0.91030 -0.01200
C 	C 	0.51270 0.50290 0.91790 -0.16600
H 	H 	0.52120 0.50440 0.86160 0.09400
C 	C 	0.61920 0.46410 0.97060 0.08600
C 	C 	0.74680 0.42280 0.93950 0.26900
C 	C 	0.91180 0.47590 0.19130 0.36600
C 	C 	0.82980 0.41080 0.26110 -0.08700
C 	C 	0.76260 0.44630 0.31970 -0.01700
H 	H 	0.76590 0.51320 0.31550 0.02200
C 	C 	0.69060 0.38560 0.38430 -0.02100
H 	H 	0.64400 0.41130 0.42390 0.02900
C 	C 	0.68570 0.28680 0.39200 -0.09000
C 	C 	0.60540 0.22140 0.46130 0.37400
C 	C 	0.75440 0.25070 0.33460 -0.01400
H 	H 	0.75350 0.18330 0.34000 0.04800
C 	C 	0.82620 0.31270 0.26780 -0.01900
H 	H 	0.87190 0.28760 0.22760 0.04400
C 	C 	0.78580 0.15560 0.03050 1.02100
C 	C 	0.65300 0.13900 0.01720 -1.92600
H 	H 	0.63790 0.15870 0.95860 0.63000
H 	H 	0.64240 0.07000 0.04250 0.58200
H 	H 	0.59020 0.17620 0.04240 0.59400
C 	C 	0.94650 0.14800 0.12930 0.25800
H 	H 	0.93900 0.16510 0.17940 -0.06200
H 	H 	0.00800 0.09030 0.13730 -0.10400
H 	H 	0.97800 0.20170 0.08410 -0.05200
C 	C 	0.73000 0.10190 0.17680 0.39300
H 	H 	0.73440 0.14100 0.21210 -0.10500
H 	H 	0.64180 0.11240 0.15530 -0.23800
H 	H 	0.74870 0.03340 0.20860 -0.11500
O 	O 	0.83000 0.18600 0.97160 -0.10700
N 	N 	0.82040 0.13340 0.11000 -0.47800
C 	C 	0.87900 0.10780 0.02170 -0.37000
C 	C 	0.96100 0.04390 0.98470 -0.17600
H 	H 	0.95710 0.06940 0.92500 0.09900
H 	H 	0.05060 0.03920 0.00120 0.34300
H 	H 	0.92880 0.97960 0.00460 0.31000
C 	C 	0.73900 0.18020 0.11680 -0.51700
H 	H 	0.70390 0.22300 0.06450 0.09400
H 	H 	0.66750 0.14940 0.15240 0.23700
H 	H 	0.78130 0.21790 0.14300 0.20300
C 	C 	0.91800 0.02060 0.15790 -0.75000
H 	H 	0.97050 0.98640 0.12530 0.26500
H 	H 	0.97620 0.04480 0.18750 0.28500
H 	H 	0.86240 0.97630 0.19700 0.26000
Cd	Cd	0.38526 0.18181 0.59771 1.18800
Cd	Cd	0.04084 0.67776 0.10901 1.20100
O 	O 	0.31270 0.09520 0.51940 -0.53400
O 	O 	0.18920 0.09100 0.63050 -0.43600
O 	O 	0.46410 0.05020 0.36310 -0.44000
O 	O 	0.49680 0.93220 0.30450 -0.47400
O 	O 	0.12680 0.24350 0.97140 -0.38100
O 	O 	0.15310 0.37180 0.01250 -0.45500
O 	O 	0.03370 0.56120 0.86120 -0.42500
O 	O 	0.07920 0.43910 0.80700 -0.46700
O 	O 	0.46740 0.73910 0.49340 -0.47500
O 	O 	0.38350 0.86900 0.52940 -0.43900
O 	O 	0.15240 0.59970 0.01570 -0.54700
O 	O 	0.25280 0.59310 0.12850 -0.43200
O 	O 	0.14400 0.81110 0.03090 -0.30500
N 	N 	0.16500 0.89640 0.89600 -0.07700
C 	C 	0.20760 0.07330 0.56430 0.35700
C 	C 	0.10280 0.03320 0.53110 -0.15500
C 	C 	0.11210 0.02830 0.45090 0.02500
H 	H 	0.18940 0.04740 0.41730 0.02200
C 	C 	0.98790 0.00360 0.58030 0.05900
H 	H 	0.98020 0.00580 0.63560 0.02400
C 	C 	0.45620 0.01590 0.30480 0.37900
C 	C 	0.38870 0.08710 0.22860 -0.09200
C 	C 	0.36090 0.05440 0.16280 -0.04300
H 	H 	0.38820 0.98860 0.16520 0.03000
C 	C 	0.29320 0.11910 0.09430 -0.04300
H 	H 	0.27440 0.09710 0.04980 0.01500
C 	C 	0.25280 0.21520 0.09020 -0.07800
C 	C 	0.28430 0.24820 0.15380 -0.03900
H 	H 	0.26080 0.31500 0.15010 0.04600
C 	C 	0.34940 0.18420 0.22230 -0.01600
H 	H 	0.36780 0.20710 0.26620 0.04100
C 	C 	0.17070 0.28320 0.01880 0.28800
C 	C 	0.60550 0.46080 0.05310 -0.22100
H 	H 	0.67730 0.43350 0.08970 0.09400
C 	C 	0.48730 0.49710 0.08210 0.12700
H 	H 	0.47880 0.49560 0.13840 -0.00800
C 	C 	0.38080 0.53590 0.02940 -0.25300
C 	C 	0.25320 0.57720 0.06050 0.38600
C 	C 	0.08820 0.52410 0.80870 0.37000
C 	C 	0.17020 0.58920 0.73890 -0.08900
C 	C 	0.23740 0.55370 0.68030 -0.01900
H 	H 	0.23410 0.48680 0.68450 0.01900
C 	C 	0.30940 0.61440 0.61570 -0.02500
H 	H 	0.35600 0.58870 0.57610 0.02800
C 	C 	0.31430 0.71320 0.60800 -0.09100
C 	C 	0.39460 0.77860 0.53870 0.37100
C 	C 	0.24560 0.74930 0.66540 -0.01900
H 	H 	0.24650 0.81670 0.66000 0.03700
C 	C 	0.17380 0.68730 0.73220 -0.02200
H 	H 	0.12810 0.71240 0.77240 0.03700
C 	C 	0.21420 0.84440 0.96950 0.60300
C 	C 	0.34700 0.86100 0.98280 -0.96500
H 	H 	0.36210 0.84130 0.04140 0.28000
H 	H 	0.35760 0.93000 0.95750 0.31700
H 	H 	0.40980 0.82380 0.95760 0.32200
C 	C 	0.05350 0.85200 0.87070 -0.42400
H 	H 	0.06100 0.83490 0.82060 0.15600
H 	H 	0.99200 0.90970 0.86270 0.20000
H 	H 	0.02200 0.79830 0.91590 0.16100
C 	C 	0.27000 0.89810 0.82320 -0.71900
H 	H 	0.26560 0.85900 0.78790 0.23000
H 	H 	0.35820 0.88760 0.84470 0.18200
H 	H 	0.25130 0.96660 0.79140 0.26200
O 	O 	0.17000 0.81400 0.02840 -0.20900
N 	N 	0.17960 0.86660 0.89000 -0.07800
C 	C 	0.12100 0.89220 0.97830 0.01000
C 	C 	0.03900 0.95610 0.01530 -0.02600
H 	H 	0.04290 0.93060 0.07500 -0.03000
H 	H 	0.94940 0.96080 0.99880 -0.21600
H 	H 	0.07120 0.02040 0.99540 -0.27600
C 	C 	0.26100 0.81980 0.88320 0.28000
H 	H 	0.29610 0.77700 0.93550 -0.11300
H 	H 	0.33250 0.85060 0.84760 0.02900
H 	H 	0.21870 0.78210 0.85700 -0.05000
C 	C 	0.08200 0.97940 0.84210 0.00500
H 	H 	0.02950 0.01360 0.87470 -0.00600
H 	H 	0.02380 0.95520 0.81250 -0.01800
H 	H 	0.13760 0.02370 0.80300 -0.01300
Cd	Cd	0.50000 -0.00000 0.50000 1.24500
Cd	Cd	0.00000 0.50000 -0.00000 1.21600
