data_crystal

_cell_length_a 9.09700
_cell_length_b 10.92300
_cell_length_c 17.87700
_cell_angle_alpha 90.00000
_cell_angle_beta  90.00000
_cell_angle_gamma 111.26400

_symmetry_space_group_name_	'P 1'
_symmetry_space_group_name_H-M	'P 1'

loop_
_symmetry_equiv_pos_as_xyz
  x,y,z

loop_
_atom_site_label
_atom_site_type_symbol
_atom_site_fract_x
_atom_site_fract_y
_atom_site_fract_z
_atom_site_charge
Nd	Nd	0.43230 0.39299 0.69867 2.30000
Nd	Nd	0.06770 0.60701 0.19867 2.29300
Nd	Nd	0.56770 0.60701 0.30133 2.30000
Nd	Nd	0.93230 0.39299 0.80133 2.29300
H 	H 	0.20360 0.17750 0.45020 0.05800
H 	H 	0.96270 0.98130 0.62790 0.04200
H 	H 	0.44900 0.87210 0.47210 -0.02300
H 	H 	0.12760 0.77160 0.63350 -0.02800
H 	H 	0.24530 0.90690 0.53330 0.12100
H 	H 	0.79300 0.57130 0.52250 0.05100
H 	H 	0.04090 0.34660 0.57820 0.02400
H 	H 	0.29640 0.82250 0.95020 0.06000
H 	H 	0.53730 0.01870 0.12790 0.04300
H 	H 	0.05100 0.12790 0.97210 -0.01600
H 	H 	0.37240 0.22840 0.13350 -0.02600
H 	H 	0.25470 0.09310 0.03330 0.12000
H 	H 	0.70700 0.42870 0.02250 0.05300
H 	H 	0.45910 0.65340 0.07820 0.02500
H 	H 	0.79640 0.82250 0.54980 0.05900
H 	H 	0.03730 0.01870 0.37210 0.04300
H 	H 	0.55100 0.12790 0.52790 -0.02200
H 	H 	0.87240 0.22840 0.36650 -0.02700
H 	H 	0.75470 0.09310 0.46670 0.12200
H 	H 	0.20700 0.42870 0.47750 0.05200
H 	H 	0.95910 0.65340 0.42180 0.02400
H 	H 	0.70360 0.17750 0.04980 0.06000
H 	H 	0.46270 0.98130 0.87210 0.04300
H 	H 	0.94900 0.87210 0.02790 -0.01600
H 	H 	0.62760 0.77160 0.86650 -0.02600
H 	H 	0.74530 0.90690 0.96670 0.12000
H 	H 	0.29300 0.57130 0.97750 0.05300
H 	H 	0.54090 0.34660 0.92180 0.02500
C 	C 	0.89920 0.44950 0.56053 -0.13000
C 	C 	0.26430 0.66460 0.63432 -0.31800
C 	C 	0.39550 0.64680 0.59713 0.38300
C 	C 	0.10020 0.09590 0.54731 -0.06900
C 	C 	0.20930 0.19680 0.59872 0.31800
C 	C 	0.12200 0.10640 0.47039 -0.03300
C 	C 	0.97780 0.98900 0.57642 -0.02600
C 	C 	0.40220 0.82100 0.51330 0.15400
C 	C 	0.17700 0.57390 0.69543 0.47900
C 	C 	0.21220 0.76030 0.60920 0.19800
C 	C 	0.28110 0.84130 0.54880 -0.25300
C 	C 	0.87580 0.54240 0.51353 -0.01000
C 	C 	0.02420 0.40810 0.54674 0.01000
C 	C 	0.79100 0.39550 0.62604 0.49100
C 	C 	0.60080 0.55050 0.06053 -0.12800
C 	C 	0.23570 0.33540 0.13432 -0.31700
C 	C 	0.10450 0.35320 0.09713 0.38200
C 	C 	0.39980 0.90410 0.04731 -0.07300
C 	C 	0.29070 0.80320 0.09872 0.31800
C 	C 	0.37800 0.89360 0.97039 -0.03100
C 	C 	0.52220 0.01100 0.07642 -0.02500
C 	C 	0.09780 0.17900 0.01330 0.14600
C 	C 	0.32300 0.42610 0.19543 0.47900
C 	C 	0.28780 0.23970 0.10920 0.19600
C 	C 	0.21890 0.15870 0.04880 -0.24900
C 	C 	0.62420 0.45760 0.01353 -0.00900
C 	C 	0.47580 0.59190 0.04674 0.00800
C 	C 	0.70900 0.60450 0.12604 0.49000
C 	C 	0.10080 0.55050 0.43947 -0.13000
C 	C 	0.73570 0.33540 0.36568 -0.31800
C 	C 	0.60450 0.35320 0.40287 0.38300
C 	C 	0.89980 0.90410 0.45269 -0.06900
C 	C 	0.79070 0.80320 0.40128 0.31800
C 	C 	0.87800 0.89360 0.52961 -0.03300
C 	C 	0.02220 0.01100 0.42358 -0.02600
C 	C 	0.59780 0.17900 0.48670 0.15400
C 	C 	0.82300 0.42610 0.30457 0.47900
C 	C 	0.78780 0.23970 0.39080 0.19800
C 	C 	0.71890 0.15870 0.45120 -0.25300
C 	C 	0.12420 0.45760 0.48647 -0.01000
C 	C 	0.97580 0.59190 0.45326 0.01000
C 	C 	0.20900 0.60450 0.37396 0.49100
C 	C 	0.39920 0.44950 0.93947 -0.12800
C 	C 	0.76430 0.66460 0.86568 -0.31700
C 	C 	0.89550 0.64680 0.90287 0.38200
C 	C 	0.60020 0.09590 0.95269 -0.07300
C 	C 	0.70930 0.19680 0.90128 0.31800
C 	C 	0.62200 0.10640 0.02961 -0.03100
C 	C 	0.47780 0.98900 0.92358 -0.02500
C 	C 	0.90220 0.82100 0.98670 0.14600
C 	C 	0.67700 0.57390 0.80457 0.47900
C 	C 	0.71220 0.76030 0.89080 0.19600
C 	C 	0.78110 0.84130 0.95120 -0.24900
C 	C 	0.37580 0.54240 0.98647 -0.00900
C 	C 	0.52420 0.40810 0.95326 0.00800
C 	C 	0.29100 0.39550 0.87396 0.49000
N 	N 	0.45550 0.72720 0.53729 -0.17700
N 	N 	0.04450 0.27280 0.03729 -0.17600
N 	N 	0.54450 0.27280 0.46271 -0.17700
N 	N 	0.95550 0.72720 0.96271 -0.17600
O 	O 	0.66240 0.41160 0.62657 -0.54400
O 	O 	0.20730 0.47310 0.71224 -0.59900
O 	O 	0.17220 0.20130 0.66562 -0.46000
O 	O 	0.45840 0.56570 0.61286 -0.48500
O 	O 	0.33760 0.27610 0.57401 -0.41700
O 	O 	0.83680 0.33520 0.67592 -0.57100
O 	O 	0.06780 0.59790 0.72809 -0.48800
O 	O 	0.83760 0.58840 0.12657 -0.54100
O 	O 	0.29270 0.52690 0.21224 -0.59900
O 	O 	0.32780 0.79870 0.16562 -0.46100
O 	O 	0.04160 0.43430 0.11286 -0.48500
O 	O 	0.16240 0.72390 0.07401 -0.41800
O 	O 	0.66320 0.66480 0.17592 -0.57000
O 	O 	0.43220 0.40210 0.22809 -0.49000
O 	O 	0.33760 0.58840 0.37343 -0.54400
O 	O 	0.79270 0.52690 0.28776 -0.59900
O 	O 	0.82780 0.79870 0.33438 -0.46000
O 	O 	0.54160 0.43430 0.38714 -0.48500
O 	O 	0.66240 0.72390 0.42599 -0.41700
O 	O 	0.16320 0.66480 0.32408 -0.57100
O 	O 	0.93220 0.40210 0.27191 -0.48800
O 	O 	0.16240 0.41160 0.87343 -0.54100
O 	O 	0.70730 0.47310 0.78776 -0.59900
O 	O 	0.67220 0.20130 0.83438 -0.46100
O 	O 	0.95840 0.56570 0.88714 -0.48500
O 	O 	0.83760 0.27610 0.92599 -0.41800
O 	O 	0.33680 0.33520 0.82408 -0.57000
O 	O 	0.56780 0.59790 0.77191 -0.49000
