data_crystal

_cell_length_a 30.85680
_cell_length_b 30.85680
_cell_length_c 6.46810
_cell_angle_alpha 90.00000
_cell_angle_beta  90.00000
_cell_angle_gamma 90.00000

_symmetry_space_group_name_	'P 1'
_symmetry_space_group_name_H-M	'P 1'

loop_
_symmetry_equiv_pos_as_xyz
  x,y,z

loop_
_atom_site_label
_atom_site_type_symbol
_atom_site_fract_x
_atom_site_fract_y
_atom_site_fract_z
_atom_site_charge
Na	Na	0.34048 0.72119 0.81931 0.58600
O 	O 	0.44024 0.83950 0.97390 -0.18400
O 	O 	0.48556 0.80896 0.22930 -0.10700
O 	O 	0.35947 0.80380 0.66690 -0.46200
C 	C 	0.34101 0.81547 0.83030 0.53900
C 	C 	0.33762 0.86311 0.87770 -0.78600
H 	H 	0.36570 0.87700 0.85380 0.22500
H 	H 	0.32920 0.86700 0.02250 0.21400
H 	H 	0.31580 0.87630 0.78770 0.17800
O 	O 	0.32519 0.78942 0.95990 -0.49600
O 	O 	0.26569 0.70246 0.84850 -0.58700
H 	H 	0.27690 0.62400 0.93700 0.24500
H 	H 	0.22510 0.62400 0.92050 0.23900
H 	H 	0.24800 0.62400 0.14250 0.24900
Na	Na	0.84048 0.22119 0.31931 0.58800
O 	O 	0.94024 0.33950 0.47390 -0.17700
O 	O 	0.98556 0.30896 0.72930 -0.10800
O 	O 	0.85947 0.30380 0.16690 -0.45600
C 	C 	0.84101 0.31547 0.33030 0.53400
C 	C 	0.83762 0.36311 0.37770 -0.76700
H 	H 	0.86570 0.37700 0.35380 0.22100
H 	H 	0.82920 0.36700 0.52250 0.20500
H 	H 	0.81580 0.37630 0.28770 0.17500
O 	O 	0.82519 0.28942 0.45990 -0.49100
O 	O 	0.76569 0.20246 0.34850 -0.58800
H 	H 	0.77690 0.12400 0.43700 0.26400
H 	H 	0.72510 0.12400 0.42050 0.25800
H 	H 	0.74800 0.12400 0.64250 0.26500
Na	Na	0.15952 0.27881 0.31931 0.58800
O 	O 	0.05976 0.16050 0.47390 -0.17700
O 	O 	0.01444 0.19104 0.72930 -0.10800
O 	O 	0.14053 0.19620 0.16690 -0.45600
C 	C 	0.15899 0.18453 0.33030 0.53500
C 	C 	0.16238 0.13689 0.37770 -0.76800
H 	H 	0.13430 0.12300 0.35380 0.22200
H 	H 	0.17080 0.13300 0.52250 0.20600
H 	H 	0.18420 0.12370 0.28770 0.17600
O 	O 	0.17481 0.21058 0.45990 -0.49100
O 	O 	0.23431 0.29754 0.34850 -0.58700
H 	H 	0.22310 0.37600 0.43700 0.26300
H 	H 	0.27490 0.37600 0.42050 0.25700
H 	H 	0.25200 0.37600 0.64250 0.26300
Na	Na	0.65952 0.77881 0.81931 0.58700
O 	O 	0.55976 0.66050 0.97390 -0.18300
O 	O 	0.51444 0.69104 0.22930 -0.10600
O 	O 	0.64053 0.69620 0.66690 -0.46100
C 	C 	0.65899 0.68453 0.83030 0.53900
C 	C 	0.66238 0.63689 0.87770 -0.78600
H 	H 	0.63430 0.62300 0.85380 0.22400
H 	H 	0.67080 0.63300 0.02250 0.21400
H 	H 	0.68420 0.62370 0.78770 0.17700
O 	O 	0.67481 0.71058 0.95990 -0.49600
O 	O 	0.73431 0.79754 0.84850 -0.58700
H 	H 	0.72310 0.87600 0.93700 0.24500
H 	H 	0.77490 0.87600 0.92050 0.23900
H 	H 	0.75200 0.87600 0.14250 0.24900
Na	Na	0.52881 0.09048 0.06931 0.58800
O 	O 	0.41050 0.19024 0.22390 -0.17600
O 	O 	0.44104 0.23556 0.47930 -0.10600
O 	O 	0.44620 0.10947 0.91690 -0.46500
C 	C 	0.43453 0.09101 0.08030 0.54500
C 	C 	0.38689 0.08762 0.12770 -0.77900
H 	H 	0.37300 0.11570 0.10380 0.22500
H 	H 	0.38300 0.07920 0.27250 0.21000
H 	H 	0.37370 0.06580 0.03770 0.18100
O 	O 	0.46058 0.07519 0.20990 -0.49200
O 	O 	0.54754 0.01569 0.09850 -0.58000
H 	H 	0.62600 0.02690 0.18700 0.25100
H 	H 	0.62600 0.97510 0.17050 0.24100
H 	H 	0.62600 0.99800 0.39250 0.24600
Na	Na	0.02881 0.59048 0.56931 0.58800
O 	O 	0.91050 0.69024 0.72390 -0.17700
O 	O 	0.94104 0.73556 0.97930 -0.10700
O 	O 	0.94620 0.60947 0.41690 -0.45800
C 	C 	0.93453 0.59101 0.58030 0.53200
C 	C 	0.88689 0.58762 0.62770 -0.76100
H 	H 	0.87300 0.61570 0.60380 0.21800
H 	H 	0.88300 0.57920 0.77250 0.20200
H 	H 	0.87370 0.56580 0.53770 0.17100
O 	O 	0.96058 0.57519 0.70990 -0.49200
O 	O 	0.04754 0.51569 0.59850 -0.58700
H 	H 	0.12600 0.52690 0.68700 0.26100
H 	H 	0.12600 0.47510 0.67050 0.25500
H 	H 	0.12600 0.49800 0.89250 0.26100
Na	Na	0.97119 0.90952 0.56931 0.58800
O 	O 	0.08950 0.80976 0.72390 -0.17700
O 	O 	0.05896 0.76444 0.97930 -0.10700
O 	O 	0.05380 0.89053 0.41690 -0.45800
C 	C 	0.06547 0.90899 0.58030 0.53300
C 	C 	0.11311 0.91238 0.62770 -0.76400
H 	H 	0.12700 0.88430 0.60380 0.21900
H 	H 	0.11700 0.92080 0.77250 0.20200
H 	H 	0.12630 0.93420 0.53770 0.17200
O 	O 	0.03942 0.92481 0.70990 -0.49300
O 	O 	0.95246 0.98431 0.59850 -0.58800
H 	H 	0.87400 0.97310 0.68700 0.25000
H 	H 	0.87400 0.02490 0.67050 0.24700
H 	H 	0.87400 0.00200 0.89250 0.25400
Na	Na	0.47119 0.40952 0.06931 0.58800
O 	O 	0.58950 0.30976 0.22390 -0.17600
O 	O 	0.55896 0.26444 0.47930 -0.10600
O 	O 	0.55380 0.39053 0.91690 -0.46500
C 	C 	0.56547 0.40899 0.08030 0.54200
C 	C 	0.61311 0.41238 0.12770 -0.77400
H 	H 	0.62700 0.38430 0.10380 0.22400
H 	H 	0.61700 0.42080 0.27250 0.20700
H 	H 	0.62630 0.43420 0.03770 0.17700
O 	O 	0.53942 0.42481 0.20990 -0.49200
O 	O 	0.45246 0.48431 0.09850 -0.58700
H 	H 	0.37400 0.47310 0.18700 0.26500
H 	H 	0.37400 0.52490 0.17050 0.26000
H 	H 	0.37400 0.50200 0.39250 0.26600
Na	Na	0.15952 0.72119 0.18069 0.58800
O 	O 	0.05976 0.83950 0.02610 -0.17300
O 	O 	0.01444 0.80896 0.77070 -0.10600
O 	O 	0.14053 0.80380 0.33310 -0.45700
C 	C 	0.15899 0.81547 0.16970 0.52700
C 	C 	0.16238 0.86311 0.12230 -0.74400
H 	H 	0.13430 0.87700 0.14620 0.21400
H 	H 	0.17080 0.86700 0.97750 0.19400
H 	H 	0.18420 0.87630 0.21230 0.16700
O 	O 	0.17481 0.78942 0.04010 -0.48700
O 	O 	0.23431 0.70246 0.15150 -0.58200
H 	H 	0.22310 0.62400 0.06300 0.25500
H 	H 	0.27490 0.62400 0.07950 0.24900
H 	H 	0.25200 0.62400 0.85750 0.25300
Na	Na	0.65952 0.22119 0.68069 0.58700
O 	O 	0.55976 0.33950 0.52610 -0.17700
O 	O 	0.51444 0.30896 0.27070 -0.10500
O 	O 	0.64053 0.30380 0.83310 -0.46100
C 	C 	0.65899 0.31547 0.66970 0.53400
C 	C 	0.66238 0.36311 0.62230 -0.76700
H 	H 	0.63430 0.37700 0.64620 0.21900
H 	H 	0.67080 0.36700 0.47750 0.20500
H 	H 	0.68420 0.37630 0.71230 0.17300
O 	O 	0.67481 0.28942 0.54010 -0.49100
O 	O 	0.73431 0.20246 0.65150 -0.59000
H 	H 	0.72310 0.12400 0.56300 0.26400
H 	H 	0.77490 0.12400 0.57950 0.25700
H 	H 	0.75200 0.12400 0.35750 0.26500
Na	Na	0.34048 0.27881 0.68069 0.58700
O 	O 	0.44024 0.16050 0.52610 -0.17700
O 	O 	0.48556 0.19104 0.27070 -0.10500
O 	O 	0.35947 0.19620 0.83310 -0.46100
C 	C 	0.34101 0.18453 0.66970 0.53500
C 	C 	0.33762 0.13689 0.62230 -0.76800
H 	H 	0.36570 0.12300 0.64620 0.22000
H 	H 	0.32920 0.13300 0.47750 0.20600
H 	H 	0.31580 0.12370 0.71230 0.17400
O 	O 	0.32519 0.21058 0.54010 -0.49200
O 	O 	0.26569 0.29754 0.65150 -0.58900
H 	H 	0.27690 0.37600 0.56300 0.26200
H 	H 	0.22510 0.37600 0.57950 0.25600
H 	H 	0.24800 0.37600 0.35750 0.26400
Na	Na	0.84048 0.77881 0.18069 0.58800
O 	O 	0.94024 0.66050 0.02610 -0.17300
O 	O 	0.98556 0.69104 0.77070 -0.10600
O 	O 	0.85947 0.69620 0.33310 -0.45700
C 	C 	0.84101 0.68453 0.16970 0.52700
C 	C 	0.83762 0.63689 0.12230 -0.74400
H 	H 	0.86570 0.62300 0.14620 0.21400
H 	H 	0.82920 0.63300 0.97750 0.19400
H 	H 	0.81580 0.62370 0.21230 0.16600
O 	O 	0.82519 0.71058 0.04010 -0.48700
O 	O 	0.76569 0.79754 0.15150 -0.58200
H 	H 	0.77690 0.87600 0.06300 0.25500
H 	H 	0.72510 0.87600 0.07950 0.24900
H 	H 	0.74800 0.87600 0.85750 0.25300
Na	Na	0.97119 0.09048 0.93069 0.58700
O 	O 	0.08950 0.19024 0.77610 -0.17900
O 	O 	0.05896 0.23556 0.52070 -0.10600
O 	O 	0.05380 0.10947 0.08310 -0.45000
C 	C 	0.06547 0.09101 0.91970 0.52200
C 	C 	0.11311 0.08762 0.87230 -0.75600
H 	H 	0.12700 0.11570 0.89620 0.21500
H 	H 	0.11700 0.07920 0.72750 0.20200
H 	H 	0.12630 0.06580 0.96230 0.16900
O 	O 	0.03942 0.07519 0.79010 -0.48900
O 	O 	0.95246 0.01569 0.90150 -0.58300
H 	H 	0.87400 0.02690 0.81300 0.24600
H 	H 	0.87400 0.97510 0.82950 0.23500
H 	H 	0.87400 0.99800 0.60750 0.24300
Na	Na	0.47119 0.59048 0.43069 0.58800
O 	O 	0.58950 0.69024 0.27610 -0.17700
O 	O 	0.55896 0.73556 0.02070 -0.10300
O 	O 	0.55380 0.60947 0.58310 -0.45900
C 	C 	0.56547 0.59101 0.41970 0.53400
C 	C 	0.61311 0.58762 0.37230 -0.76500
H 	H 	0.62700 0.61570 0.39620 0.22000
H 	H 	0.61700 0.57920 0.22750 0.20500
H 	H 	0.62630 0.56580 0.46230 0.17200
O 	O 	0.53942 0.57519 0.29010 -0.48900
O 	O 	0.45246 0.51569 0.40150 -0.58900
H 	H 	0.37400 0.52690 0.31300 0.26500
H 	H 	0.37400 0.47510 0.32950 0.25900
H 	H 	0.37400 0.49800 0.10750 0.26700
Na	Na	0.52881 0.90952 0.43069 0.58800
O 	O 	0.41050 0.80976 0.27610 -0.17700
O 	O 	0.44104 0.76444 0.02070 -0.10300
O 	O 	0.44620 0.89053 0.58310 -0.45900
C 	C 	0.43453 0.90899 0.41970 0.53500
C 	C 	0.38689 0.91238 0.37230 -0.76800
H 	H 	0.37300 0.88430 0.39620 0.22000
H 	H 	0.38300 0.92080 0.22750 0.20600
H 	H 	0.37370 0.93420 0.46230 0.17400
O 	O 	0.46058 0.92481 0.29010 -0.49100
O 	O 	0.54754 0.98431 0.40150 -0.59000
H 	H 	0.62600 0.97310 0.31300 0.25400
H 	H 	0.62600 0.02490 0.32950 0.25100
H 	H 	0.62600 0.00200 0.10750 0.26000
Na	Na	0.02881 0.40952 0.93069 0.58700
O 	O 	0.91050 0.30976 0.77610 -0.17900
O 	O 	0.94104 0.26444 0.52070 -0.10600
O 	O 	0.94620 0.39053 0.08310 -0.45000
C 	C 	0.93453 0.40899 0.91970 0.52000
C 	C 	0.88689 0.41238 0.87230 -0.75100
H 	H 	0.87300 0.38430 0.89620 0.21400
H 	H 	0.88300 0.42080 0.72750 0.20000
H 	H 	0.87370 0.43420 0.96230 0.16500
O 	O 	0.96058 0.42481 0.79010 -0.48900
O 	O 	0.04754 0.48431 0.90150 -0.59000
H 	H 	0.12600 0.47310 0.81300 0.26000
H 	H 	0.12600 0.52490 0.82950 0.25400
H 	H 	0.12600 0.50200 0.60750 0.26200
Na	Na	0.65952 0.27881 0.18069 0.58800
O 	O 	0.55976 0.16050 0.02610 -0.17300
O 	O 	0.51444 0.19104 0.77070 -0.10600
O 	O 	0.64053 0.19620 0.33310 -0.45700
C 	C 	0.65899 0.18453 0.16970 0.52800
C 	C 	0.66238 0.13689 0.12230 -0.74500
H 	H 	0.63430 0.12300 0.14620 0.21500
H 	H 	0.67080 0.13300 0.97750 0.19500
H 	H 	0.68420 0.12370 0.21230 0.16700
O 	O 	0.67481 0.21058 0.04010 -0.48700
O 	O 	0.73431 0.29754 0.15150 -0.58200
H 	H 	0.72310 0.37600 0.06300 0.25500
H 	H 	0.77490 0.37600 0.07950 0.24900
H 	H 	0.75200 0.37600 0.85750 0.25300
Na	Na	0.15952 0.77881 0.68069 0.58700
O 	O 	0.05976 0.66050 0.52610 -0.17700
O 	O 	0.01444 0.69104 0.27070 -0.10500
O 	O 	0.14053 0.69620 0.83310 -0.46100
C 	C 	0.15899 0.68453 0.66970 0.53400
C 	C 	0.16238 0.63689 0.62230 -0.76700
H 	H 	0.13430 0.62300 0.64620 0.21900
H 	H 	0.17080 0.63300 0.47750 0.20500
H 	H 	0.18420 0.62370 0.71230 0.17300
O 	O 	0.17481 0.71058 0.54010 -0.49100
O 	O 	0.23431 0.79754 0.65150 -0.58900
H 	H 	0.22310 0.87600 0.56300 0.26200
H 	H 	0.27490 0.87600 0.57950 0.25600
H 	H 	0.25200 0.87600 0.35750 0.26400
Na	Na	0.84048 0.72119 0.68069 0.58700
O 	O 	0.94024 0.83950 0.52610 -0.17700
O 	O 	0.98556 0.80896 0.27070 -0.10500
O 	O 	0.85947 0.80380 0.83310 -0.46100
C 	C 	0.84101 0.81547 0.66970 0.53500
C 	C 	0.83762 0.86311 0.62230 -0.76700
H 	H 	0.86570 0.87700 0.64620 0.22000
H 	H 	0.82920 0.86700 0.47750 0.20500
H 	H 	0.81580 0.87630 0.71230 0.17400
O 	O 	0.82519 0.78942 0.54010 -0.49100
O 	O 	0.76569 0.70246 0.65150 -0.58900
H 	H 	0.77690 0.62400 0.56300 0.26200
H 	H 	0.72510 0.62400 0.57950 0.25600
H 	H 	0.74800 0.62400 0.35750 0.26400
Na	Na	0.34048 0.22119 0.18069 0.58800
O 	O 	0.44024 0.33950 0.02610 -0.17300
O 	O 	0.48556 0.30896 0.77070 -0.10600
O 	O 	0.35947 0.30380 0.33310 -0.45700
C 	C 	0.34101 0.31547 0.16970 0.52700
C 	C 	0.33762 0.36311 0.12230 -0.74400
H 	H 	0.36570 0.37700 0.14620 0.21400
H 	H 	0.32920 0.36700 0.97750 0.19400
H 	H 	0.31580 0.37630 0.21230 0.16600
O 	O 	0.32519 0.28942 0.04010 -0.48700
O 	O 	0.26569 0.20246 0.15150 -0.58300
H 	H 	0.27690 0.12400 0.06300 0.25700
H 	H 	0.22510 0.12400 0.07950 0.25100
H 	H 	0.24800 0.12400 0.85750 0.25400
Na	Na	0.47119 0.90952 0.93069 0.58700
O 	O 	0.58950 0.80976 0.77610 -0.17900
O 	O 	0.55896 0.76444 0.52070 -0.10600
O 	O 	0.55380 0.89053 0.08310 -0.45000
C 	C 	0.56547 0.90899 0.91970 0.52100
C 	C 	0.61311 0.91238 0.87230 -0.75400
H 	H 	0.62700 0.88430 0.89620 0.21500
H 	H 	0.61700 0.92080 0.72750 0.20100
H 	H 	0.62630 0.93420 0.96230 0.16700
O 	O 	0.53942 0.92481 0.79010 -0.49000
O 	O 	0.45246 0.98431 0.90150 -0.59100
H 	H 	0.37400 0.97310 0.81300 0.24900
H 	H 	0.37400 0.02490 0.82950 0.24600
H 	H 	0.37400 0.00200 0.60750 0.25500
Na	Na	0.97119 0.40952 0.43069 0.58800
O 	O 	0.08950 0.30976 0.27610 -0.17700
O 	O 	0.05896 0.26444 0.02070 -0.10300
O 	O 	0.05380 0.39053 0.58310 -0.45900
C 	C 	0.06547 0.40899 0.41970 0.53400
C 	C 	0.11311 0.41238 0.37230 -0.76500
H 	H 	0.12700 0.38430 0.39620 0.22000
H 	H 	0.11700 0.42080 0.22750 0.20500
H 	H 	0.12630 0.43420 0.46230 0.17200
O 	O 	0.03942 0.42481 0.29010 -0.48900
O 	O 	0.95246 0.48431 0.40150 -0.58900
H 	H 	0.87400 0.47310 0.31300 0.26500
H 	H 	0.87400 0.52490 0.32950 0.25900
H 	H 	0.87400 0.50200 0.10750 0.26700
Na	Na	0.02881 0.09048 0.43069 0.58800
O 	O 	0.91050 0.19024 0.27610 -0.17700
O 	O 	0.94104 0.23556 0.02070 -0.10300
O 	O 	0.94620 0.10947 0.58310 -0.45900
C 	C 	0.93453 0.09101 0.41970 0.53600
C 	C 	0.88689 0.08762 0.37230 -0.77000
H 	H 	0.87300 0.11570 0.39620 0.22100
H 	H 	0.88300 0.07920 0.22750 0.20800
H 	H 	0.87370 0.06580 0.46230 0.17600
O 	O 	0.96058 0.07519 0.29010 -0.48900
O 	O 	0.04754 0.01569 0.40150 -0.58200
H 	H 	0.12600 0.02690 0.31300 0.25000
H 	H 	0.12600 0.97510 0.32950 0.24000
H 	H 	0.12600 0.99800 0.10750 0.24800
Na	Na	0.52881 0.59048 0.93069 0.58700
O 	O 	0.41050 0.69024 0.77610 -0.17900
O 	O 	0.44104 0.73556 0.52070 -0.10600
O 	O 	0.44620 0.60947 0.08310 -0.45000
C 	C 	0.43453 0.59101 0.91970 0.52000
C 	C 	0.38689 0.58762 0.87230 -0.75100
H 	H 	0.37300 0.61570 0.89620 0.21400
H 	H 	0.38300 0.57920 0.72750 0.20000
H 	H 	0.37370 0.56580 0.96230 0.16500
O 	O 	0.46058 0.57519 0.79010 -0.48900
O 	O 	0.54754 0.51569 0.90150 -0.59000
H 	H 	0.62600 0.52690 0.81300 0.26000
H 	H 	0.62600 0.47510 0.82950 0.25400
H 	H 	0.62600 0.49800 0.60750 0.26200
Na	Na	0.84048 0.27881 0.81931 0.58700
O 	O 	0.94024 0.16050 0.97390 -0.18300
O 	O 	0.98556 0.19104 0.22930 -0.10600
O 	O 	0.85947 0.19620 0.66690 -0.46100
C 	C 	0.84101 0.18453 0.83030 0.54000
C 	C 	0.83762 0.13689 0.87770 -0.78700
H 	H 	0.86570 0.12300 0.85380 0.22500
H 	H 	0.82920 0.13300 0.02250 0.21500
H 	H 	0.81580 0.12370 0.78770 0.17800
O 	O 	0.82519 0.21058 0.95990 -0.49600
O 	O 	0.76569 0.29754 0.84850 -0.58700
H 	H 	0.77690 0.37600 0.93700 0.24500
H 	H 	0.72510 0.37600 0.92050 0.23900
H 	H 	0.74800 0.37600 0.14250 0.24900
Na	Na	0.34048 0.77881 0.31931 0.58800
O 	O 	0.44024 0.66050 0.47390 -0.17700
O 	O 	0.48556 0.69104 0.72930 -0.10800
O 	O 	0.35947 0.69620 0.16690 -0.45600
C 	C 	0.34101 0.68453 0.33030 0.53400
C 	C 	0.33762 0.63689 0.37770 -0.76700
H 	H 	0.36570 0.62300 0.35380 0.22100
H 	H 	0.32920 0.63300 0.52250 0.20500
H 	H 	0.31580 0.62370 0.28770 0.17500
O 	O 	0.32519 0.71058 0.45990 -0.49100
O 	O 	0.26569 0.79754 0.34850 -0.58700
H 	H 	0.27690 0.87600 0.43700 0.26300
H 	H 	0.22510 0.87600 0.42050 0.25700
H 	H 	0.24800 0.87600 0.64250 0.26300
Na	Na	0.65952 0.72119 0.31931 0.58800
O 	O 	0.55976 0.83950 0.47390 -0.17700
O 	O 	0.51444 0.80896 0.72930 -0.10800
O 	O 	0.64053 0.80380 0.16690 -0.45600
C 	C 	0.65899 0.81547 0.33030 0.53400
C 	C 	0.66238 0.86311 0.37770 -0.76700
H 	H 	0.63430 0.87700 0.35380 0.22100
H 	H 	0.67080 0.86700 0.52250 0.20500
H 	H 	0.68420 0.87630 0.28770 0.17500
O 	O 	0.67481 0.78942 0.45990 -0.49100
O 	O 	0.73431 0.70246 0.34850 -0.58700
H 	H 	0.72310 0.62400 0.43700 0.26300
H 	H 	0.77490 0.62400 0.42050 0.25700
H 	H 	0.75200 0.62400 0.64250 0.26300
Na	Na	0.15952 0.22119 0.81931 0.58700
O 	O 	0.05976 0.33950 0.97390 -0.18300
O 	O 	0.01444 0.30896 0.22930 -0.10600
O 	O 	0.14053 0.30380 0.66690 -0.46100
C 	C 	0.15899 0.31547 0.83030 0.53900
C 	C 	0.16238 0.36311 0.87770 -0.78600
H 	H 	0.13430 0.37700 0.85380 0.22400
H 	H 	0.17080 0.36700 0.02250 0.21400
H 	H 	0.18420 0.37630 0.78770 0.17700
O 	O 	0.17481 0.28942 0.95990 -0.49600
O 	O 	0.23431 0.20246 0.84850 -0.58800
H 	H 	0.22310 0.12400 0.93700 0.24600
H 	H 	0.27490 0.12400 0.92050 0.24000
H 	H 	0.25200 0.12400 0.14250 0.25100
Na	Na	0.02881 0.90952 0.06931 0.58800
O 	O 	0.91050 0.80976 0.22390 -0.17600
O 	O 	0.94104 0.76444 0.47930 -0.10600
O 	O 	0.94620 0.89053 0.91690 -0.46500
C 	C 	0.93453 0.90899 0.08030 0.54300
C 	C 	0.88689 0.91238 0.12770 -0.77700
H 	H 	0.87300 0.88430 0.10380 0.22400
H 	H 	0.88300 0.92080 0.27250 0.20800
H 	H 	0.87370 0.93420 0.03770 0.17900
O 	O 	0.96058 0.92481 0.20990 -0.49400
O 	O 	0.04754 0.98431 0.09850 -0.58800
H 	H 	0.12600 0.97310 0.18700 0.25400
H 	H 	0.12600 0.02490 0.17050 0.25300
H 	H 	0.12600 0.00200 0.39250 0.25900
Na	Na	0.52881 0.40952 0.56931 0.58800
O 	O 	0.41050 0.30976 0.72390 -0.17700
O 	O 	0.44104 0.26444 0.97930 -0.10700
O 	O 	0.44620 0.39053 0.41690 -0.45800
C 	C 	0.43453 0.40899 0.58030 0.53200
C 	C 	0.38689 0.41238 0.62770 -0.76100
H 	H 	0.37300 0.38430 0.60380 0.21800
H 	H 	0.38300 0.42080 0.77250 0.20200
H 	H 	0.37370 0.43420 0.53770 0.17100
O 	O 	0.46058 0.42481 0.70990 -0.49200
O 	O 	0.54754 0.48431 0.59850 -0.58700
H 	H 	0.62600 0.47310 0.68700 0.26100
H 	H 	0.62600 0.52490 0.67050 0.25500
H 	H 	0.62600 0.50200 0.89250 0.26100
Na	Na	0.47119 0.09048 0.56931 0.58800
O 	O 	0.58950 0.19024 0.72390 -0.17700
O 	O 	0.55896 0.23556 0.97930 -0.10700
O 	O 	0.55380 0.10947 0.41690 -0.45800
C 	C 	0.56547 0.09101 0.58030 0.53400
C 	C 	0.61311 0.08762 0.62770 -0.76600
H 	H 	0.62700 0.11570 0.60380 0.22000
H 	H 	0.61700 0.07920 0.77250 0.20400
H 	H 	0.62630 0.06580 0.53770 0.17500
O 	O 	0.53942 0.07519 0.70990 -0.49200
O 	O 	0.45246 0.01569 0.59850 -0.58000
H 	H 	0.37400 0.02690 0.68700 0.24600
H 	H 	0.37400 0.97510 0.67050 0.23600
H 	H 	0.37400 0.99800 0.89250 0.24200
Na	Na	0.97119 0.59048 0.06931 0.58800
O 	O 	0.08950 0.69024 0.22390 -0.17600
O 	O 	0.05896 0.73556 0.47930 -0.10600
O 	O 	0.05380 0.60947 0.91690 -0.46500
C 	C 	0.06547 0.59101 0.08030 0.54300
C 	C 	0.11311 0.58762 0.12770 -0.77400
H 	H 	0.12700 0.61570 0.10380 0.22400
H 	H 	0.11700 0.57920 0.27250 0.20700
H 	H 	0.12630 0.56580 0.03770 0.17700
O 	O 	0.03942 0.57519 0.20990 -0.49200
O 	O 	0.95246 0.51569 0.09850 -0.58700
H 	H 	0.87400 0.52690 0.18700 0.26500
H 	H 	0.87400 0.47510 0.17050 0.26000
H 	H 	0.87400 0.49800 0.39250 0.26600
Na	Na	0.25000 0.77806 -0.00000 0.58700
C 	C 	0.25000 0.68309 -0.00000 0.81600
C 	C 	0.25000 0.63461 -0.00000 -1.60400
Na	Na	0.75000 0.27806 0.50000 0.58600
C 	C 	0.75000 0.18309 0.50000 0.83300
C 	C 	0.75000 0.13461 0.50000 -1.68400
Na	Na	0.25000 0.22194 0.50000 0.58600
C 	C 	0.25000 0.31691 0.50000 0.83000
C 	C 	0.25000 0.36539 0.50000 -1.67600
Na	Na	0.75000 0.72194 -0.00000 0.58700
C 	C 	0.75000 0.81691 -0.00000 0.81600
C 	C 	0.75000 0.86539 -0.00000 -1.60400
Na	Na	0.47194 -0.00000 0.25000 0.58800
C 	C 	0.56691 -0.00000 0.25000 0.82100
C 	C 	0.61539 -0.00000 0.25000 -1.61400
Na	Na	0.97194 0.50000 0.75000 0.58600
C 	C 	0.06691 0.50000 0.75000 0.82700
C 	C 	0.11539 0.50000 0.75000 -1.66700
Na	Na	0.02806 0.00000 0.75000 0.58700
C 	C 	0.93309 0.00000 0.75000 0.81300
C 	C 	0.88461 0.00000 0.75000 -1.59200
Na	Na	0.52806 0.50000 0.25000 0.58700
C 	C 	0.43309 0.50000 0.25000 0.83500
C 	C 	0.38461 0.50000 0.25000 -1.68900
Na	Na	0.75000 0.22194 -0.00000 0.58700
C 	C 	0.75000 0.31691 -0.00000 0.81600
C 	C 	0.75000 0.36539 -0.00000 -1.60400
Na	Na	0.25000 0.72194 0.50000 0.58600
C 	C 	0.25000 0.81691 0.50000 0.83000
C 	C 	0.25000 0.86539 0.50000 -1.67600
Na	Na	0.75000 0.77806 0.50000 0.58600
C 	C 	0.75000 0.68309 0.50000 0.83000
C 	C 	0.75000 0.63461 0.50000 -1.67600
Na	Na	0.25000 0.27806 -0.00000 0.58700
C 	C 	0.25000 0.18309 -0.00000 0.81800
C 	C 	0.25000 0.13461 -0.00000 -1.61200
Na	Na	0.52806 0.00000 0.75000 0.58700
C 	C 	0.43309 0.00000 0.75000 0.81300
C 	C 	0.38461 0.00000 0.75000 -1.59200
Na	Na	0.02806 0.50000 0.25000 0.58700
C 	C 	0.93309 0.50000 0.25000 0.83500
C 	C 	0.88461 0.50000 0.25000 -1.68900
Na	Na	0.97194 -0.00000 0.25000 0.58800
C 	C 	0.06691 -0.00000 0.25000 0.82100
C 	C 	0.11539 -0.00000 0.25000 -1.61400
Na	Na	0.47194 0.50000 0.75000 0.58600
C 	C 	0.56691 0.50000 0.75000 0.82700
C 	C 	0.61539 0.50000 0.75000 -1.66700
Na	Na	0.43656 0.81344 0.62500 0.59500
Na	Na	0.93656 0.31344 0.12500 0.59600
Na	Na	0.06344 0.18656 0.12500 0.59600
Na	Na	0.56344 0.68656 0.62500 0.59500
Na	Na	0.43656 0.18656 0.87500 0.59500
Na	Na	0.93656 0.68656 0.37500 0.59600
Na	Na	0.06344 0.81344 0.37500 0.59600
Na	Na	0.56344 0.31344 0.87500 0.59500
Na	Na	0.56344 0.18656 0.37500 0.59600
Na	Na	0.06344 0.68656 0.87500 0.59500
Na	Na	0.93656 0.81344 0.87500 0.59500
Na	Na	0.43656 0.31344 0.37500 0.59600
Na	Na	0.56344 0.81344 0.12500 0.59600
Na	Na	0.06344 0.31344 0.62500 0.59500
Na	Na	0.93656 0.18656 0.62500 0.59500
Na	Na	0.43656 0.68656 0.12500 0.59600
Cl	Cl	0.44473 0.80527 0.12500 -0.15500
Cl	Cl	0.94473 0.30527 0.62500 -0.16000
Cl	Cl	0.05527 0.19473 0.62500 -0.16000
Cl	Cl	0.55527 0.69473 0.12500 -0.15500
Cl	Cl	0.44473 0.19473 0.37500 -0.16100
Cl	Cl	0.94473 0.69473 0.87500 -0.16400
Cl	Cl	0.05527 0.80527 0.87500 -0.16400
Cl	Cl	0.55527 0.30527 0.37500 -0.16100
Cl	Cl	0.55527 0.19473 0.87500 -0.16400
Cl	Cl	0.05527 0.69473 0.37500 -0.16100
Cl	Cl	0.94473 0.80527 0.37500 -0.16100
Cl	Cl	0.44473 0.30527 0.87500 -0.16400
Cl	Cl	0.55527 0.80527 0.62500 -0.16000
Cl	Cl	0.05527 0.30527 0.12500 -0.15500
Cl	Cl	0.94473 0.19473 0.12500 -0.15500
Cl	Cl	0.44473 0.69473 0.62500 -0.16000
