data_crystal

_cell_length_a 10.78200
_cell_length_b 8.78100
_cell_length_c 25.01700
_cell_angle_alpha 90.00000
_cell_angle_beta  98.13900
_cell_angle_gamma 90.00000

_symmetry_space_group_name_	'P 1'
_symmetry_space_group_name_H-M	'P 1'

loop_
_symmetry_equiv_pos_as_xyz
  x,y,z

loop_
_atom_site_label
_atom_site_type_symbol
_atom_site_fract_x
_atom_site_fract_y
_atom_site_fract_z
_atom_site_charge
Cu	Cu	0.16107 0.22060 0.73650 0.92600
N 	N 	0.22520 0.18280 0.81467 -0.22400
O 	O 	0.98970 0.18010 0.74837 -0.36300
O 	O 	0.96800 0.99730 0.68564 -0.27500
N 	N 	0.60210 0.23360 0.15807 -0.22700
O 	O 	0.39520 0.97330 0.62610 -0.11300
N 	N 	0.36680 0.13640 0.97900 -0.09400
N 	N 	0.50190 0.92910 0.63975 -0.01600
C 	C 	0.58060 0.01190 0.68240 0.14100
C 	C 	0.78780 0.08570 0.71995 0.00800
C 	C 	0.37390 0.25670 0.88939 -0.21000
H 	H 	0.44190 0.31700 0.90320 0.12900
O 	O 	0.54600 0.81670 0.62045 -0.11400
C 	C 	0.22350 0.06510 0.90017 -0.20900
H 	H 	0.18810 0.99480 0.92140 0.12800
C 	C 	0.52690 0.09080 0.72158 -0.13000
C 	C 	0.32250 0.26740 0.83633 0.13700
H 	H 	0.35680 0.33660 0.81440 -0.00000
C 	C 	0.32270 0.15450 0.92214 0.19900
C 	C 	0.49920 0.21460 0.05074 0.20100
C 	C 	0.73720 0.16260 0.76006 -0.08000
H 	H 	0.79020 0.21240 0.78710 0.08800
C 	C 	0.70760 0.00860 0.68094 -0.12500
H 	H 	0.73950 0.95480 0.65390 0.10700
C 	C 	0.17770 0.08160 0.84618 0.14200
H 	H 	0.11150 0.02020 0.83120 0.00100
N 	N 	0.45240 0.22120 0.99438 -0.09900
C 	C 	0.92670 0.08380 0.71719 0.29200
C 	C 	0.60860 0.16680 0.76075 0.04100
H 	H 	0.57680 0.22100 0.78770 0.03700
C 	C 	0.45040 0.12880 0.08894 -0.21200
H 	H 	0.38290 0.06390 0.07910 0.12600
C 	C 	0.50410 0.14150 0.14223 0.13200
H 	H 	0.47120 0.08430 0.16820 -0.00700
C 	C 	0.64850 0.31360 0.12042 0.13400
H 	H 	0.71700 0.37660 0.13090 0.00400
C 	C 	0.60020 0.30750 0.06678 -0.21700
H 	H 	0.63520 0.36540 0.04160 0.12700
C 	C 	0.38900 0.09160 0.72690 0.37800
O 	O 	0.33562 0.22000 0.71968 -0.38400
O 	O 	0.33990 0.97360 0.74016 -0.37500
Cu	Cu	0.66107 0.27940 0.23650 0.92600
N 	N 	0.72520 0.31720 0.31467 -0.22400
O 	O 	0.48970 0.31990 0.24837 -0.36400
O 	O 	0.46800 0.50270 0.18564 -0.27800
N 	N 	0.10210 0.26640 0.65807 -0.22600
O 	O 	0.89520 0.52670 0.12610 -0.11500
N 	N 	0.86680 0.36360 0.47900 -0.09400
N 	N 	0.00190 0.57090 0.13975 -0.01600
C 	C 	0.08060 0.48810 0.18240 0.14100
C 	C 	0.28780 0.41430 0.21995 0.00500
C 	C 	0.87390 0.24330 0.38939 -0.20900
H 	H 	0.94190 0.18300 0.40320 0.12900
O 	O 	0.04600 0.68330 0.12045 -0.11400
C 	C 	0.72350 0.43490 0.40017 -0.20500
H 	H 	0.68810 0.50520 0.42140 0.12500
C 	C 	0.02690 0.40920 0.22158 -0.12900
C 	C 	0.82250 0.23260 0.33633 0.13600
H 	H 	0.85680 0.16340 0.31440 0.00000
C 	C 	0.82270 0.34550 0.42214 0.19800
C 	C 	0.99920 0.28540 0.55074 0.20000
C 	C 	0.23720 0.33740 0.26006 -0.07800
H 	H 	0.29020 0.28760 0.28710 0.08700
C 	C 	0.20760 0.49140 0.18094 -0.12000
H 	H 	0.23950 0.54520 0.15390 0.10400
C 	C 	0.67770 0.41840 0.34618 0.14000
H 	H 	0.61150 0.47980 0.33120 0.00200
N 	N 	0.95240 0.27880 0.49438 -0.09900
C 	C 	0.42670 0.41620 0.21719 0.29500
C 	C 	0.10860 0.33320 0.26075 0.04000
H 	H 	0.07680 0.27900 0.28770 0.03800
C 	C 	0.95040 0.37120 0.58894 -0.21000
H 	H 	0.88290 0.43610 0.57910 0.12500
C 	C 	0.00410 0.35850 0.64223 0.12800
H 	H 	0.97120 0.41570 0.66820 -0.00600
C 	C 	0.14850 0.18640 0.62042 0.13400
H 	H 	0.21700 0.12340 0.63090 0.00300
C 	C 	0.10020 0.19250 0.56678 -0.21800
H 	H 	0.13520 0.13460 0.54160 0.12700
C 	C 	0.88900 0.40840 0.22690 0.38000
O 	O 	0.83562 0.28000 0.21968 -0.38400
O 	O 	0.83990 0.52640 0.24016 -0.37700
Cu	Cu	0.33893 0.72060 0.76350 0.92600
N 	N 	0.27480 0.68280 0.68533 -0.22400
O 	O 	0.51030 0.68010 0.75163 -0.36400
O 	O 	0.53200 0.49730 0.81436 -0.27800
N 	N 	0.89790 0.73360 0.34193 -0.22600
O 	O 	0.10480 0.47330 0.87390 -0.11500
N 	N 	0.13320 0.63640 0.52100 -0.09400
N 	N 	0.99810 0.42910 0.86025 -0.01600
C 	C 	0.91940 0.51190 0.81760 0.14100
C 	C 	0.71220 0.58570 0.78005 0.00500
C 	C 	0.12610 0.75670 0.61061 -0.20900
H 	H 	0.05810 0.81700 0.59680 0.12900
O 	O 	0.95400 0.31670 0.87955 -0.11400
C 	C 	0.27650 0.56510 0.59983 -0.20500
H 	H 	0.31190 0.49480 0.57860 0.12500
C 	C 	0.97310 0.59080 0.77842 -0.12900
C 	C 	0.17750 0.76740 0.66367 0.13600
H 	H 	0.14320 0.83660 0.68560 0.00000
C 	C 	0.17730 0.65450 0.57786 0.19800
C 	C 	0.00080 0.71460 0.44926 0.20000
C 	C 	0.76280 0.66260 0.73994 -0.07800
H 	H 	0.70980 0.71240 0.71290 0.08700
C 	C 	0.79240 0.50860 0.81906 -0.12000
H 	H 	0.76050 0.45480 0.84610 0.10400
C 	C 	0.32230 0.58160 0.65382 0.14000
H 	H 	0.38850 0.52020 0.66880 0.00200
N 	N 	0.04760 0.72120 0.50562 -0.09900
C 	C 	0.57330 0.58380 0.78281 0.29500
C 	C 	0.89140 0.66680 0.73925 0.04000
H 	H 	0.92320 0.72100 0.71230 0.03800
C 	C 	0.04960 0.62880 0.41106 -0.21000
H 	H 	0.11710 0.56390 0.42090 0.12500
C 	C 	0.99590 0.64150 0.35777 0.12800
H 	H 	0.02880 0.58430 0.33180 -0.00600
C 	C 	0.85150 0.81360 0.37958 0.13400
H 	H 	0.78300 0.87660 0.36910 0.00300
C 	C 	0.89980 0.80750 0.43322 -0.21800
H 	H 	0.86480 0.86540 0.45840 0.12700
C 	C 	0.11100 0.59160 0.77310 0.38000
O 	O 	0.16438 0.72000 0.78032 -0.38400
O 	O 	0.16010 0.47360 0.75984 -0.37700
Cu	Cu	0.83893 0.77940 0.26350 0.92500
N 	N 	0.77480 0.81720 0.18533 -0.22500
O 	O 	0.01030 0.81990 0.25163 -0.36300
O 	O 	0.03200 0.00270 0.31436 -0.27500
N 	N 	0.39790 0.76640 0.84193 -0.22700
O 	O 	0.60480 0.02670 0.37390 -0.11300
N 	N 	0.63320 0.86360 0.02100 -0.09400
N 	N 	0.49810 0.07090 0.36025 -0.01600
C 	C 	0.41940 0.98810 0.31760 0.14100
C 	C 	0.21220 0.91430 0.28005 0.00800
C 	C 	0.62610 0.74330 0.11061 -0.21000
H 	H 	0.55810 0.68300 0.09680 0.12900
O 	O 	0.45400 0.18330 0.37955 -0.11400
C 	C 	0.77650 0.93490 0.09983 -0.20900
H 	H 	0.81190 0.00520 0.07860 0.12800
C 	C 	0.47310 0.90920 0.27842 -0.13000
C 	C 	0.67750 0.73260 0.16367 0.13700
H 	H 	0.64320 0.66340 0.18560 -0.00000
C 	C 	0.67730 0.84550 0.07786 0.19900
C 	C 	0.50080 0.78540 0.94926 0.20100
C 	C 	0.26280 0.83740 0.23994 -0.08000
H 	H 	0.20980 0.78760 0.21290 0.08800
C 	C 	0.29240 0.99140 0.31906 -0.12500
H 	H 	0.26050 0.04520 0.34610 0.10700
C 	C 	0.82230 0.91840 0.15382 0.14200
H 	H 	0.88850 0.97980 0.16880 0.00100
N 	N 	0.54760 0.77880 0.00562 -0.09900
C 	C 	0.07330 0.91620 0.28281 0.29200
C 	C 	0.39140 0.83320 0.23925 0.04100
H 	H 	0.42320 0.77900 0.21230 0.03700
C 	C 	0.54960 0.87120 0.91106 -0.21200
H 	H 	0.61710 0.93610 0.92090 0.12600
C 	C 	0.49590 0.85850 0.85777 0.13200
H 	H 	0.52880 0.91570 0.83180 -0.00700
C 	C 	0.35150 0.68640 0.87958 0.13400
H 	H 	0.28300 0.62340 0.86910 0.00400
C 	C 	0.39980 0.69250 0.93322 -0.21700
H 	H 	0.36480 0.63460 0.95840 0.12700
C 	C 	0.61100 0.90840 0.27310 0.37800
O 	O 	0.66438 0.78000 0.28032 -0.38400
O 	O 	0.66010 0.02640 0.25984 -0.37500
