data_crystal

_cell_length_a 11.30180
_cell_length_b 10.35830
_cell_length_c 21.36610
_cell_angle_alpha 90.00000
_cell_angle_beta  95.06600
_cell_angle_gamma 90.00000

_symmetry_space_group_name_	'P 1'
_symmetry_space_group_name_H-M	'P 1'

loop_
_symmetry_equiv_pos_as_xyz
  x,y,z

loop_
_atom_site_label
_atom_site_type_symbol
_atom_site_fract_x
_atom_site_fract_y
_atom_site_fract_z
_atom_site_charge
C 	C 	0.79810 0.00980 0.52480 0.11400
H 	H 	0.80350 0.06920 0.49250 -0.00100
C 	C 	0.87680 0.90880 0.52980 -0.18000
H 	H 	0.93290 0.89950 0.50070 0.10500
C 	C 	0.87250 0.82080 0.57810 0.13100
C 	C 	0.78680 0.83900 0.61950 -0.18100
H 	H 	0.78100 0.78260 0.65300 0.11500
C 	C 	0.71030 0.94120 0.61064 0.11000
H 	H 	0.65240 0.95200 0.63850 0.00600
C 	C 	0.95610 0.71080 0.58490 -0.03200
C 	C 	0.17020 0.56480 0.51690 -0.04200
C 	C 	0.26050 0.46320 0.52340 0.14200
C 	C 	0.27650 0.38300 0.57470 -0.17700
H 	H 	0.22530 0.38810 0.60640 0.11100
C 	C 	0.36810 0.29520 0.57920 0.11800
H 	H 	0.37690 0.24150 0.61420 0.01000
C 	C 	0.42690 0.35840 0.48457 0.11400
H 	H 	0.47780 0.35000 0.45290 0.01400
C 	C 	0.33680 0.44710 0.47705 -0.19000
H 	H 	0.32710 0.49650 0.44060 0.12400
C 	C 	0.61800 0.13130 0.35564 -0.01500
C 	C 	0.65720 0.25220 0.33867 -0.05600
H 	H 	0.67350 0.31510 0.36930 0.08100
C 	C 	0.67210 0.27960 0.27667 0.03700
H 	H 	0.69820 0.36110 0.26590 0.03800
C 	C 	0.64870 0.18720 0.23009 -0.10900
C 	C 	0.61350 0.06640 0.24868 0.13400
C 	C 	0.59720 0.03640 0.31006 -0.10700
H 	H 	0.57280 0.95430 0.32080 0.10600
C 	C 	0.66070 0.22180 0.16181 0.35300
C 	C 	0.59620 0.09960 0.42262 0.33400
N 	N 	0.71500 0.02640 0.56378 -0.22400
N 	N 	0.02930 0.69340 0.54530 -0.07200
N 	N 	0.10410 0.58690 0.56012 -0.06900
N 	N 	0.44490 0.28350 0.53550 -0.21900
N 	N 	0.58850 0.96440 0.20250 -0.01500
O 	O 	0.62080 0.18850 0.46279 -0.39100
O 	O 	0.55740 0.99210 0.43435 -0.36600
O 	O 	0.58990 0.30810 0.14012 -0.38000
O 	O 	0.73550 0.16640 0.13296 -0.28800
O 	O 	0.53800 0.99190 0.15148 -0.12300
O 	O 	0.61550 0.85350 0.21650 -0.12000
Cu	Cu	0.58435 0.15969 0.54935 0.92100
H 	H 	0.16000 0.62300 0.48100 0.07100
H 	H 	0.95000 0.65200 0.62100 0.06300
C 	C 	0.79810 0.49020 0.02480 0.11200
H 	H 	0.80350 0.43080 0.99250 0.00100
C 	C 	0.87680 0.59120 0.02980 -0.17700
H 	H 	0.93290 0.60050 0.00070 0.10500
C 	C 	0.87250 0.67920 0.07810 0.13100
C 	C 	0.78680 0.66100 0.11950 -0.18100
H 	H 	0.78100 0.71740 0.15300 0.11500
C 	C 	0.71030 0.55880 0.11064 0.11100
H 	H 	0.65240 0.54800 0.13850 0.00600
C 	C 	0.95610 0.78920 0.08490 -0.03300
C 	C 	0.17020 0.93520 0.01690 -0.03500
C 	C 	0.26050 0.03680 0.02340 0.13600
C 	C 	0.27650 0.11700 0.07470 -0.17300
H 	H 	0.22530 0.11190 0.10640 0.11000
C 	C 	0.36810 0.20480 0.07920 0.11600
H 	H 	0.37690 0.25850 0.11420 0.01000
C 	C 	0.42690 0.14160 0.98457 0.11300
H 	H 	0.47780 0.15000 0.95290 0.01500
C 	C 	0.33680 0.05290 0.97705 -0.18500
H 	H 	0.32710 0.00350 0.94060 0.12300
C 	C 	0.61800 0.36870 0.85564 -0.01600
C 	C 	0.65720 0.24780 0.83867 -0.05500
H 	H 	0.67350 0.18490 0.86930 0.08100
C 	C 	0.67210 0.22040 0.77667 0.03700
H 	H 	0.69820 0.13890 0.76590 0.03800
C 	C 	0.64870 0.31280 0.73009 -0.10900
C 	C 	0.61350 0.43360 0.74868 0.13400
C 	C 	0.59720 0.46360 0.81006 -0.10600
H 	H 	0.57280 0.54570 0.82080 0.10600
C 	C 	0.66070 0.27820 0.66181 0.35300
C 	C 	0.59620 0.40040 0.92262 0.33400
N 	N 	0.71500 0.47360 0.06378 -0.22400
N 	N 	0.02930 0.80660 0.04530 -0.07100
N 	N 	0.10410 0.91310 0.06012 -0.06900
N 	N 	0.44490 0.21650 0.03550 -0.21900
N 	N 	0.58850 0.53560 0.70250 -0.01500
O 	O 	0.62080 0.31150 0.96279 -0.39100
O 	O 	0.55740 0.50790 0.93435 -0.36600
O 	O 	0.58990 0.19190 0.64012 -0.38000
O 	O 	0.73550 0.33360 0.63296 -0.28700
O 	O 	0.53800 0.50810 0.65148 -0.12300
O 	O 	0.61550 0.64650 0.71650 -0.12000
Cu	Cu	0.58435 0.34031 0.04935 0.92100
H 	H 	0.16000 0.87700 0.98100 0.06700
H 	H 	0.95000 0.84800 0.12100 0.06300
C 	C 	0.20190 0.50980 0.97520 0.11200
H 	H 	0.19650 0.56920 0.00750 0.00100
C 	C 	0.12320 0.40880 0.97020 -0.17700
H 	H 	0.06710 0.39950 0.99930 0.10500
C 	C 	0.12750 0.32080 0.92190 0.13100
C 	C 	0.21320 0.33900 0.88050 -0.18100
H 	H 	0.21900 0.28260 0.84700 0.11500
C 	C 	0.28970 0.44120 0.88936 0.11100
H 	H 	0.34760 0.45200 0.86150 0.00600
C 	C 	0.04390 0.21080 0.91510 -0.03300
C 	C 	0.82980 0.06480 0.98310 -0.03500
C 	C 	0.73950 0.96320 0.97660 0.13600
C 	C 	0.72350 0.88300 0.92530 -0.17300
H 	H 	0.77470 0.88810 0.89360 0.11000
C 	C 	0.63190 0.79520 0.92080 0.11600
H 	H 	0.62310 0.74150 0.88580 0.01000
C 	C 	0.57310 0.85840 0.01543 0.11300
H 	H 	0.52220 0.85000 0.04710 0.01500
C 	C 	0.66320 0.94710 0.02295 -0.18500
H 	H 	0.67290 0.99650 0.05940 0.12300
C 	C 	0.38200 0.63130 0.14436 -0.01600
C 	C 	0.34280 0.75220 0.16133 -0.05500
H 	H 	0.32650 0.81510 0.13070 0.08100
C 	C 	0.32790 0.77960 0.22333 0.03700
H 	H 	0.30180 0.86110 0.23410 0.03800
C 	C 	0.35130 0.68720 0.26991 -0.10900
C 	C 	0.38650 0.56640 0.25132 0.13400
C 	C 	0.40280 0.53640 0.18994 -0.10600
H 	H 	0.42720 0.45430 0.17920 0.10600
C 	C 	0.33930 0.72180 0.33819 0.35300
C 	C 	0.40380 0.59960 0.07738 0.33400
N 	N 	0.28500 0.52640 0.93622 -0.22400
N 	N 	0.97070 0.19340 0.95470 -0.07100
N 	N 	0.89590 0.08690 0.93988 -0.06900
N 	N 	0.55510 0.78350 0.96450 -0.21900
N 	N 	0.41150 0.46440 0.29750 -0.01500
O 	O 	0.37920 0.68850 0.03721 -0.39100
O 	O 	0.44260 0.49210 0.06565 -0.36600
O 	O 	0.41010 0.80810 0.35988 -0.38000
O 	O 	0.26450 0.66640 0.36704 -0.28700
O 	O 	0.46200 0.49190 0.34852 -0.12300
O 	O 	0.38450 0.35350 0.28350 -0.12000
Cu	Cu	0.41565 0.65969 0.95065 0.92100
H 	H 	0.84000 0.12300 0.01900 0.06700
H 	H 	0.05000 0.15200 0.87900 0.06300
C 	C 	0.20190 0.99020 0.47520 0.11500
H 	H 	0.19650 0.93080 0.50750 -0.00000
C 	C 	0.12320 0.09120 0.47020 -0.17900
H 	H 	0.06710 0.10050 0.49930 0.10600
C 	C 	0.12750 0.17920 0.42190 0.13100
C 	C 	0.21320 0.16100 0.38050 -0.18100
H 	H 	0.21900 0.21740 0.34700 0.11500
C 	C 	0.28970 0.05880 0.38936 0.11000
H 	H 	0.34760 0.04800 0.36150 0.00600
C 	C 	0.04390 0.28920 0.41510 -0.03200
C 	C 	0.82980 0.43520 0.48310 -0.04200
C 	C 	0.73950 0.53680 0.47660 0.14200
C 	C 	0.72350 0.61700 0.42530 -0.17700
H 	H 	0.77470 0.61190 0.39360 0.11100
C 	C 	0.63190 0.70480 0.42080 0.11800
H 	H 	0.62310 0.75850 0.38580 0.01000
C 	C 	0.57310 0.64160 0.51543 0.11400
H 	H 	0.52220 0.65000 0.54710 0.01400
C 	C 	0.66320 0.55290 0.52295 -0.19000
H 	H 	0.67290 0.50350 0.55940 0.12400
C 	C 	0.38200 0.86870 0.64436 -0.01500
C 	C 	0.34280 0.74780 0.66133 -0.05600
H 	H 	0.32650 0.68490 0.63070 0.08100
C 	C 	0.32790 0.72040 0.72333 0.03700
H 	H 	0.30180 0.63890 0.73410 0.03800
C 	C 	0.35130 0.81280 0.76991 -0.10900
C 	C 	0.38650 0.93360 0.75132 0.13400
C 	C 	0.40280 0.96360 0.68994 -0.10700
H 	H 	0.42720 0.04570 0.67920 0.10600
C 	C 	0.33930 0.77820 0.83819 0.35300
C 	C 	0.40380 0.90040 0.57738 0.33400
N 	N 	0.28500 0.97360 0.43622 -0.22400
N 	N 	0.97070 0.30660 0.45470 -0.07200
N 	N 	0.89590 0.41310 0.43988 -0.06900
N 	N 	0.55510 0.71650 0.46450 -0.21900
N 	N 	0.41150 0.03560 0.79750 -0.01500
O 	O 	0.37920 0.81150 0.53721 -0.39100
O 	O 	0.44260 0.00790 0.56565 -0.36600
O 	O 	0.41010 0.69190 0.85988 -0.38000
O 	O 	0.26450 0.83360 0.86704 -0.28800
O 	O 	0.46200 0.00810 0.84852 -0.12300
O 	O 	0.38450 0.14650 0.78350 -0.12000
Cu	Cu	0.41565 0.84031 0.45065 0.92100
H 	H 	0.84000 0.37700 0.51900 0.07100
H 	H 	0.05000 0.34800 0.37900 0.06300
