data_crystal

_cell_length_a 21.21740
_cell_length_b 21.21740
_cell_length_c 21.21740
_cell_angle_alpha 90.00000
_cell_angle_beta  90.00000
_cell_angle_gamma 90.00000

_symmetry_space_group_name_	'P 1'
_symmetry_space_group_name_H-M	'P 1'

loop_
_symmetry_equiv_pos_as_xyz
  x,y,z

loop_
_atom_site_label
_atom_site_type_symbol
_atom_site_fract_x
_atom_site_fract_y
_atom_site_fract_z
_atom_site_charge
N 	N 	0.56460 0.69340 0.06800 -0.20500
C 	C 	0.58220 0.75420 0.08520 0.03900
H 	H 	0.56440 0.78940 0.06410 -0.01600
C 	C 	0.62580 0.76330 0.13320 -0.09900
H 	H 	0.63780 0.80480 0.14490 0.06600
C 	C 	0.65190 0.71170 0.16400 0.02900
C 	C 	0.63430 0.65100 0.14680 -0.08500
H 	H 	0.65210 0.61570 0.16790 0.07000
C 	C 	0.59070 0.64180 0.09880 0.03600
H 	H 	0.57870 0.60030 0.08700 0.07200
C 	C 	0.69400 0.72400 0.21670 0.07100
C 	C 	0.73890 0.68230 0.23060 -0.13000
H 	H 	0.74020 0.64340 0.20830 0.07500
N 	N 	0.43540 0.30660 0.06800 -0.20700
C 	C 	0.41780 0.24580 0.08520 0.03300
H 	H 	0.43560 0.21060 0.06410 -0.02900
C 	C 	0.37420 0.23670 0.13320 -0.10300
H 	H 	0.36220 0.19520 0.14490 0.04800
C 	C 	0.34810 0.28830 0.16400 0.02600
C 	C 	0.36570 0.34900 0.14680 -0.08800
H 	H 	0.34790 0.38430 0.16790 0.06900
C 	C 	0.40930 0.35820 0.09880 0.03400
H 	H 	0.42130 0.39970 0.08700 0.07100
C 	C 	0.30600 0.27600 0.21670 0.05600
C 	C 	0.26110 0.31770 0.23060 -0.12500
H 	H 	0.25980 0.35660 0.20830 0.07000
N 	N 	0.43540 0.69340 0.93200 -0.18000
C 	C 	0.41780 0.75420 0.91480 0.04900
H 	H 	0.43560 0.78940 0.93590 0.01400
C 	C 	0.37420 0.76330 0.86680 -0.09200
H 	H 	0.36220 0.80480 0.85510 0.07400
C 	C 	0.34810 0.71170 0.83600 0.03300
C 	C 	0.36570 0.65100 0.85320 -0.08100
H 	H 	0.34790 0.61570 0.83210 0.07500
C 	C 	0.40930 0.64180 0.90120 0.04900
H 	H 	0.42130 0.60030 0.91300 0.08800
C 	C 	0.30600 0.72400 0.78330 0.07300
C 	C 	0.26110 0.68230 0.76940 -0.13000
H 	H 	0.25980 0.64340 0.79170 0.08000
N 	N 	0.56460 0.30660 0.93200 -0.18000
C 	C 	0.58220 0.24580 0.91480 0.04800
H 	H 	0.56440 0.21060 0.93590 0.00400
C 	C 	0.62580 0.23670 0.86680 -0.09300
H 	H 	0.63780 0.19520 0.85510 0.06400
C 	C 	0.65190 0.28830 0.83600 0.03200
C 	C 	0.63430 0.34900 0.85320 -0.08000
H 	H 	0.65210 0.38430 0.83210 0.07600
C 	C 	0.59070 0.35820 0.90120 0.04900
H 	H 	0.57870 0.39970 0.91300 0.08900
C 	C 	0.69400 0.27600 0.78330 0.07300
C 	C 	0.73890 0.31770 0.76940 -0.13000
H 	H 	0.74020 0.35660 0.79170 0.08200
N 	N 	0.06800 0.56460 0.69340 -0.20600
C 	C 	0.08520 0.58220 0.75420 0.03800
H 	H 	0.06410 0.56440 0.78940 -0.01700
C 	C 	0.13320 0.62580 0.76330 -0.09900
H 	H 	0.14490 0.63780 0.80480 0.06600
C 	C 	0.16400 0.65190 0.71170 0.02900
C 	C 	0.14680 0.63430 0.65100 -0.08500
H 	H 	0.16790 0.65210 0.61570 0.07000
C 	C 	0.09880 0.59070 0.64180 0.03600
H 	H 	0.08700 0.57870 0.60030 0.07200
C 	C 	0.21670 0.69400 0.72400 0.07100
C 	C 	0.23060 0.73890 0.68230 -0.13000
H 	H 	0.20830 0.74020 0.64340 0.07500
N 	N 	0.06800 0.43540 0.30660 -0.20700
C 	C 	0.08520 0.41780 0.24580 0.03300
H 	H 	0.06410 0.43560 0.21060 -0.02900
C 	C 	0.13320 0.37420 0.23670 -0.10300
H 	H 	0.14490 0.36220 0.19520 0.04800
C 	C 	0.16400 0.34810 0.28830 0.02600
C 	C 	0.14680 0.36570 0.34900 -0.08800
H 	H 	0.16790 0.34790 0.38430 0.06900
C 	C 	0.09880 0.40930 0.35820 0.03400
H 	H 	0.08700 0.42130 0.39970 0.07100
C 	C 	0.21670 0.30600 0.27600 0.05600
C 	C 	0.23060 0.26110 0.31770 -0.12500
H 	H 	0.20830 0.25980 0.35660 0.07000
N 	N 	0.93200 0.43540 0.69340 -0.18000
C 	C 	0.91480 0.41780 0.75420 0.04900
H 	H 	0.93590 0.43560 0.78940 0.01400
C 	C 	0.86680 0.37420 0.76330 -0.09200
H 	H 	0.85510 0.36220 0.80480 0.07400
C 	C 	0.83600 0.34810 0.71170 0.03300
C 	C 	0.85320 0.36570 0.65100 -0.08100
H 	H 	0.83210 0.34790 0.61570 0.07500
C 	C 	0.90120 0.40930 0.64180 0.04900
H 	H 	0.91300 0.42130 0.60030 0.08800
C 	C 	0.78330 0.30600 0.72400 0.07300
C 	C 	0.76940 0.26110 0.68230 -0.13000
H 	H 	0.79170 0.25980 0.64340 0.08000
N 	N 	0.93200 0.56460 0.30660 -0.18000
C 	C 	0.91480 0.58220 0.24580 0.04800
H 	H 	0.93590 0.56440 0.21060 0.00400
C 	C 	0.86680 0.62580 0.23670 -0.09300
H 	H 	0.85510 0.63780 0.19520 0.06400
C 	C 	0.83600 0.65190 0.28830 0.03200
C 	C 	0.85320 0.63430 0.34900 -0.08000
H 	H 	0.83210 0.65210 0.38430 0.07600
C 	C 	0.90120 0.59070 0.35820 0.04900
H 	H 	0.91300 0.57870 0.39970 0.08900
C 	C 	0.78330 0.69400 0.27600 0.07300
C 	C 	0.76940 0.73890 0.31770 -0.13000
H 	H 	0.79170 0.74020 0.35660 0.08200
N 	N 	0.69340 0.06800 0.56460 -0.20600
C 	C 	0.75420 0.08520 0.58220 0.03800
H 	H 	0.78940 0.06410 0.56440 -0.01700
C 	C 	0.76330 0.13320 0.62580 -0.09900
H 	H 	0.80480 0.14490 0.63780 0.06600
C 	C 	0.71170 0.16400 0.65190 0.02900
C 	C 	0.65100 0.14680 0.63430 -0.08500
H 	H 	0.61570 0.16790 0.65210 0.07000
C 	C 	0.64180 0.09880 0.59070 0.03600
H 	H 	0.60030 0.08700 0.57870 0.07200
C 	C 	0.72400 0.21670 0.69400 0.07100
C 	C 	0.68230 0.23060 0.73890 -0.13000
H 	H 	0.64340 0.20830 0.74020 0.07500
N 	N 	0.30660 0.06800 0.43540 -0.20700
C 	C 	0.24580 0.08520 0.41780 0.03300
H 	H 	0.21060 0.06410 0.43560 -0.02900
C 	C 	0.23670 0.13320 0.37420 -0.10300
H 	H 	0.19520 0.14490 0.36220 0.04800
C 	C 	0.28830 0.16400 0.34810 0.02600
C 	C 	0.34900 0.14680 0.36570 -0.08800
H 	H 	0.38430 0.16790 0.34790 0.06900
C 	C 	0.35820 0.09880 0.40930 0.03400
H 	H 	0.39970 0.08700 0.42130 0.07100
C 	C 	0.27600 0.21670 0.30600 0.05600
C 	C 	0.31770 0.23060 0.26110 -0.12500
H 	H 	0.35660 0.20830 0.25980 0.07000
N 	N 	0.69340 0.93200 0.43540 -0.18000
C 	C 	0.75420 0.91480 0.41780 0.04900
H 	H 	0.78940 0.93590 0.43560 0.01400
C 	C 	0.76330 0.86680 0.37420 -0.09200
H 	H 	0.80480 0.85510 0.36220 0.07400
C 	C 	0.71170 0.83600 0.34810 0.03300
C 	C 	0.65100 0.85320 0.36570 -0.08100
H 	H 	0.61570 0.83210 0.34790 0.07500
C 	C 	0.64180 0.90120 0.40930 0.04900
H 	H 	0.60030 0.91300 0.42130 0.08800
C 	C 	0.72400 0.78330 0.30600 0.07300
C 	C 	0.68230 0.76940 0.26110 -0.13000
H 	H 	0.64340 0.79170 0.25980 0.08000
N 	N 	0.30660 0.93200 0.56460 -0.18000
C 	C 	0.24580 0.91480 0.58220 0.04800
H 	H 	0.21060 0.93590 0.56440 0.00400
C 	C 	0.23670 0.86680 0.62580 -0.09300
H 	H 	0.19520 0.85510 0.63780 0.06400
C 	C 	0.28830 0.83600 0.65190 0.03200
C 	C 	0.34900 0.85320 0.63430 -0.08000
H 	H 	0.38430 0.83210 0.65210 0.07600
C 	C 	0.35820 0.90120 0.59070 0.04900
H 	H 	0.39970 0.91300 0.57870 0.08900
C 	C 	0.27600 0.78330 0.69400 0.07300
C 	C 	0.31770 0.76940 0.73890 -0.13000
H 	H 	0.35660 0.79170 0.74020 0.08200
N 	N 	0.43540 0.30660 0.93200 -0.18000
C 	C 	0.41780 0.24580 0.91480 0.04600
H 	H 	0.43560 0.21060 0.93590 0.00300
C 	C 	0.37420 0.23670 0.86680 -0.09400
H 	H 	0.36220 0.19520 0.85510 0.06000
C 	C 	0.34810 0.28830 0.83600 0.03100
C 	C 	0.36570 0.34900 0.85320 -0.08200
H 	H 	0.34790 0.38430 0.83210 0.07400
C 	C 	0.40930 0.35820 0.90120 0.04700
H 	H 	0.42130 0.39970 0.91300 0.08900
C 	C 	0.30600 0.27600 0.78330 0.06600
C 	C 	0.26110 0.31770 0.76940 -0.12700
H 	H 	0.25980 0.35660 0.79170 0.07800
N 	N 	0.56460 0.69340 0.93200 -0.17900
C 	C 	0.58220 0.75420 0.91480 0.05100
H 	H 	0.56440 0.78940 0.93590 0.01400
C 	C 	0.62580 0.76330 0.86680 -0.09000
H 	H 	0.63780 0.80480 0.85510 0.07800
C 	C 	0.65190 0.71170 0.83600 0.03400
C 	C 	0.63430 0.65100 0.85320 -0.07900
H 	H 	0.65210 0.61570 0.83210 0.07600
C 	C 	0.59070 0.64180 0.90120 0.05000
H 	H 	0.57870 0.60030 0.91300 0.08900
C 	C 	0.69400 0.72400 0.78330 0.08000
C 	C 	0.73890 0.68230 0.76940 -0.13200
H 	H 	0.74020 0.64340 0.79170 0.08400
N 	N 	0.56460 0.30660 0.06800 -0.20700
C 	C 	0.58220 0.24580 0.08520 0.03500
H 	H 	0.56440 0.21060 0.06410 -0.02800
C 	C 	0.62580 0.23670 0.13320 -0.10200
H 	H 	0.63780 0.19520 0.14490 0.05100
C 	C 	0.65190 0.28830 0.16400 0.02700
C 	C 	0.63430 0.34900 0.14680 -0.08600
H 	H 	0.65210 0.38430 0.16790 0.07000
C 	C 	0.59070 0.35820 0.09880 0.03500
H 	H 	0.57870 0.39970 0.08700 0.07200
C 	C 	0.69400 0.27600 0.21670 0.06300
C 	C 	0.73890 0.31770 0.23060 -0.12700
H 	H 	0.74020 0.35660 0.20830 0.07300
N 	N 	0.43540 0.69340 0.06800 -0.20700
C 	C 	0.41780 0.75420 0.08520 0.03600
H 	H 	0.43560 0.78940 0.06410 -0.01800
C 	C 	0.37420 0.76330 0.13320 -0.10100
H 	H 	0.36220 0.80480 0.14490 0.06200
C 	C 	0.34810 0.71170 0.16400 0.02800
C 	C 	0.36570 0.65100 0.14680 -0.08700
H 	H 	0.34790 0.61570 0.16790 0.06900
C 	C 	0.40930 0.64180 0.09880 0.03500
H 	H 	0.42130 0.60030 0.08700 0.07100
C 	C 	0.30600 0.72400 0.21670 0.06400
C 	C 	0.26110 0.68230 0.23060 -0.12800
H 	H 	0.25980 0.64340 0.20830 0.07200
N 	N 	0.93200 0.43540 0.30660 -0.18000
C 	C 	0.91480 0.41780 0.24580 0.04600
H 	H 	0.93590 0.43560 0.21060 0.00300
C 	C 	0.86680 0.37420 0.23670 -0.09400
H 	H 	0.85510 0.36220 0.19520 0.06000
C 	C 	0.83600 0.34810 0.28830 0.03100
C 	C 	0.85320 0.36570 0.34900 -0.08200
H 	H 	0.83210 0.34790 0.38430 0.07400
C 	C 	0.90120 0.40930 0.35820 0.04700
H 	H 	0.91300 0.42130 0.39970 0.08900
C 	C 	0.78330 0.30600 0.27600 0.06600
C 	C 	0.76940 0.26110 0.31770 -0.12700
H 	H 	0.79170 0.25980 0.35660 0.07800
N 	N 	0.93200 0.56460 0.69340 -0.17900
C 	C 	0.91480 0.58220 0.75420 0.05100
H 	H 	0.93590 0.56440 0.78940 0.01400
C 	C 	0.86680 0.62580 0.76330 -0.09000
H 	H 	0.85510 0.63780 0.80480 0.07800
C 	C 	0.83600 0.65190 0.71170 0.03400
C 	C 	0.85320 0.63430 0.65100 -0.07900
H 	H 	0.83210 0.65210 0.61570 0.07600
C 	C 	0.90120 0.59070 0.64180 0.05000
H 	H 	0.91300 0.57870 0.60030 0.08900
C 	C 	0.78330 0.69400 0.72400 0.08000
C 	C 	0.76940 0.73890 0.68230 -0.13200
H 	H 	0.79170 0.74020 0.64340 0.08400
N 	N 	0.06800 0.56460 0.30660 -0.20700
C 	C 	0.08520 0.58220 0.24580 0.03500
H 	H 	0.06410 0.56440 0.21060 -0.02800
C 	C 	0.13320 0.62580 0.23670 -0.10200
H 	H 	0.14490 0.63780 0.19520 0.05100
C 	C 	0.16400 0.65190 0.28830 0.02700
C 	C 	0.14680 0.63430 0.34900 -0.08600
H 	H 	0.16790 0.65210 0.38430 0.07000
C 	C 	0.09880 0.59070 0.35820 0.03500
H 	H 	0.08700 0.57870 0.39970 0.07200
C 	C 	0.21670 0.69400 0.27600 0.06300
C 	C 	0.23060 0.73890 0.31770 -0.12700
H 	H 	0.20830 0.74020 0.35660 0.07300
N 	N 	0.06800 0.43540 0.69340 -0.20700
C 	C 	0.08520 0.41780 0.75420 0.03600
H 	H 	0.06410 0.43560 0.78940 -0.01800
C 	C 	0.13320 0.37420 0.76330 -0.10100
H 	H 	0.14490 0.36220 0.80480 0.06200
C 	C 	0.16400 0.34810 0.71170 0.02800
C 	C 	0.14680 0.36570 0.65100 -0.08700
H 	H 	0.16790 0.34790 0.61570 0.06900
C 	C 	0.09880 0.40930 0.64180 0.03500
H 	H 	0.08700 0.42130 0.60030 0.07100
C 	C 	0.21670 0.30600 0.72400 0.06400
C 	C 	0.23060 0.26110 0.68230 -0.12800
H 	H 	0.20830 0.25980 0.64340 0.07200
N 	N 	0.30660 0.93200 0.43540 -0.18000
C 	C 	0.24580 0.91480 0.41780 0.04600
H 	H 	0.21060 0.93590 0.43560 0.00300
C 	C 	0.23670 0.86680 0.37420 -0.09400
H 	H 	0.19520 0.85510 0.36220 0.06000
C 	C 	0.28830 0.83600 0.34810 0.03100
C 	C 	0.34900 0.85320 0.36570 -0.08200
H 	H 	0.38430 0.83210 0.34790 0.07400
C 	C 	0.35820 0.90120 0.40930 0.04700
H 	H 	0.39970 0.91300 0.42130 0.08900
C 	C 	0.27600 0.78330 0.30600 0.06600
C 	C 	0.31770 0.76940 0.26110 -0.12700
H 	H 	0.35660 0.79170 0.25980 0.07800
N 	N 	0.69340 0.93200 0.56460 -0.17900
C 	C 	0.75420 0.91480 0.58220 0.05100
H 	H 	0.78940 0.93590 0.56440 0.01400
C 	C 	0.76330 0.86680 0.62580 -0.09000
H 	H 	0.80480 0.85510 0.63780 0.07800
C 	C 	0.71170 0.83600 0.65190 0.03400
C 	C 	0.65100 0.85320 0.63430 -0.07900
H 	H 	0.61570 0.83210 0.65210 0.07600
C 	C 	0.64180 0.90120 0.59070 0.05000
H 	H 	0.60030 0.91300 0.57870 0.08900
C 	C 	0.72400 0.78330 0.69400 0.08000
C 	C 	0.68230 0.76940 0.73890 -0.13200
H 	H 	0.64340 0.79170 0.74020 0.08400
N 	N 	0.30660 0.06800 0.56460 -0.20700
C 	C 	0.24580 0.08520 0.58220 0.03500
H 	H 	0.21060 0.06410 0.56440 -0.02800
C 	C 	0.23670 0.13320 0.62580 -0.10200
H 	H 	0.19520 0.14490 0.63780 0.05100
C 	C 	0.28830 0.16400 0.65190 0.02700
C 	C 	0.34900 0.14680 0.63430 -0.08600
H 	H 	0.38430 0.16790 0.65210 0.07000
C 	C 	0.35820 0.09880 0.59070 0.03500
H 	H 	0.39970 0.08700 0.57870 0.07200
C 	C 	0.27600 0.21670 0.69400 0.06300
C 	C 	0.31770 0.23060 0.73890 -0.12700
H 	H 	0.35660 0.20830 0.74020 0.07300
N 	N 	0.69340 0.06800 0.43540 -0.20700
C 	C 	0.75420 0.08520 0.41780 0.03600
H 	H 	0.78940 0.06410 0.43560 -0.01800
C 	C 	0.76330 0.13320 0.37420 -0.10100
H 	H 	0.80480 0.14490 0.36220 0.06200
C 	C 	0.71170 0.16400 0.34810 0.02800
C 	C 	0.65100 0.14680 0.36570 -0.08700
H 	H 	0.61570 0.16790 0.34790 0.06900
C 	C 	0.64180 0.09880 0.40930 0.03500
H 	H 	0.60030 0.08700 0.42130 0.07100
C 	C 	0.72400 0.21670 0.30600 0.06400
C 	C 	0.68230 0.23060 0.26110 -0.12800
H 	H 	0.64340 0.20830 0.25980 0.07200
Cu	Cu	0.50000 0.68697 -0.00000 0.89200
F 	F 	0.50000 0.58760 -0.00000 -0.81300
Cu	Cu	0.50000 0.31303 -0.00000 0.89100
F 	F 	0.50000 0.41240 -0.00000 -0.81300
Cu	Cu	-0.00000 0.50000 0.68697 0.89200
F 	F 	0.00000 0.50000 0.58760 -0.81300
Cu	Cu	0.00000 0.50000 0.31303 0.89100
F 	F 	-0.00000 0.50000 0.41240 -0.81300
Cu	Cu	0.68697 0.00000 0.50000 0.89200
F 	F 	0.58760 0.00000 0.50000 -0.81300
Cu	Cu	0.31303 0.00000 0.50000 0.89100
F 	F 	0.41240 0.00000 0.50000 -0.81300
Ti	Ti	0.50000 0.50000 -0.00000 3.18800
Ti	Ti	0.00000 0.50000 0.50000 3.18800
Ti	Ti	0.50000 0.00000 0.50000 3.18800
F 	F 	0.53950 0.50000 0.06610 -0.78400
F 	F 	0.46050 0.50000 0.06610 -0.78500
F 	F 	0.46050 0.50000 0.93390 -0.74900
F 	F 	0.53950 0.50000 0.93390 -0.74800
F 	F 	0.06610 0.53950 0.50000 -0.78400
F 	F 	0.06610 0.46050 0.50000 -0.78500
F 	F 	0.93390 0.46050 0.50000 -0.74900
F 	F 	0.93390 0.53950 0.50000 -0.74800
F 	F 	0.50000 0.06610 0.53950 -0.78400
F 	F 	0.50000 0.06610 0.46050 -0.78500
F 	F 	0.50000 0.93390 0.46050 -0.74900
F 	F 	0.50000 0.93390 0.53950 -0.74800
