data_crystal

_cell_length_a 15.67300
_cell_length_b 15.67300
_cell_length_c 6.95000
_cell_angle_alpha 90.00000
_cell_angle_beta  90.00000
_cell_angle_gamma 120.00000

_symmetry_space_group_name_	'P 1'
_symmetry_space_group_name_H-M	'P 1'

loop_
_symmetry_equiv_pos_as_xyz
  x,y,z

loop_
_atom_site_label
_atom_site_type_symbol
_atom_site_fract_x
_atom_site_fract_y
_atom_site_fract_z
_atom_site_charge
Au	Au	0.26100 0.73875 0.99981 0.27400
N 	N 	0.40590 0.89140 0.69400 -0.21400
C 	C 	0.35000 0.83070 0.79900 -0.04500
N 	N 	0.51500 0.10980 0.69300 -0.23600
C 	C 	0.51970 0.16650 0.80200 -0.05000
N 	N 	0.37360 0.00050 0.37900 -0.24400
C 	C 	0.28570 0.91470 0.33900 0.04700
C 	C 	0.20600 0.92020 0.26600 0.00300
C 	C 	0.21420 0.01150 0.23300 -0.04100
C 	C 	0.30210 0.09730 0.27300 -0.00700
C 	C 	0.38190 0.09180 0.34600 -0.01000
C 	C 	0.10940 0.85200 0.24700 0.06800
N 	N 	0.02070 0.78700 0.22700 -0.12600
Au	Au	0.26125 0.52225 0.99981 0.27000
N 	N 	0.10860 0.51450 0.69400 -0.23700
C 	C 	0.16930 0.51930 0.79900 -0.06000
N 	N 	0.89020 0.40520 0.69300 -0.21700
C 	C 	0.83350 0.35320 0.80200 -0.04100
N 	N 	0.99950 0.37310 0.37900 -0.18500
C 	C 	0.08530 0.37100 0.33900 -0.00800
C 	C 	0.07980 0.28580 0.26600 -0.10700
C 	C 	0.98850 0.20270 0.23300 0.08800
C 	C 	0.90270 0.20480 0.27300 -0.04300
C 	C 	0.90820 0.29010 0.34600 0.01600
C 	C 	0.14800 0.25740 0.24700 0.07100
N 	N 	0.21300 0.23370 0.22700 -0.12200
Au	Au	0.47775 0.73900 0.99981 0.27400
N 	N 	0.48550 0.59410 0.69400 -0.23000
C 	C 	0.48070 0.65000 0.79900 -0.05200
N 	N 	0.59480 0.48500 0.69300 -0.23100
C 	C 	0.64680 0.48030 0.80200 -0.04600
N 	N 	0.62690 0.62640 0.37900 -0.21900
C 	C 	0.62900 0.71430 0.33900 0.02300
C 	C 	0.71420 0.79400 0.26600 -0.06100
C 	C 	0.79730 0.78580 0.23300 0.05200
C 	C 	0.79520 0.69790 0.27300 -0.01200
C 	C 	0.70990 0.61810 0.34600 0.00100
C 	C 	0.74260 0.89060 0.24700 0.08900
N 	N 	0.76630 0.97930 0.22700 -0.09700
Au	Au	0.73900 0.26125 0.00019 0.27200
N 	N 	0.59410 0.10860 0.30600 -0.23700
C 	C 	0.65000 0.16930 0.20100 -0.06000
N 	N 	0.48500 0.89020 0.30700 -0.21700
C 	C 	0.48030 0.83350 0.19800 -0.04100
N 	N 	0.62640 0.99950 0.62100 -0.18600
C 	C 	0.71430 0.08530 0.66100 -0.00500
C 	C 	0.79400 0.07980 0.73400 -0.11300
C 	C 	0.78580 0.98850 0.76700 0.10600
C 	C 	0.69790 0.90270 0.72700 -0.03300
C 	C 	0.61810 0.90820 0.65400 0.01500
C 	C 	0.89060 0.14800 0.75300 0.08400
N 	N 	0.97930 0.21300 0.77300 -0.10300
Au	Au	0.73875 0.47775 0.00019 0.27500
N 	N 	0.89140 0.48550 0.30600 -0.21500
C 	C 	0.83070 0.48070 0.20100 -0.04600
N 	N 	0.10980 0.59480 0.30700 -0.23700
C 	C 	0.16650 0.64680 0.19800 -0.05100
N 	N 	0.00050 0.62690 0.62100 -0.24600
C 	C 	0.91470 0.62900 0.66100 0.05000
C 	C 	0.92020 0.71420 0.73400 -0.00200
C 	C 	0.01150 0.79730 0.76700 -0.02400
C 	C 	0.09730 0.79520 0.72700 0.00100
C 	C 	0.09180 0.70990 0.65400 -0.01100
C 	C 	0.85200 0.74260 0.75300 0.08000
N 	N 	0.78700 0.76630 0.77300 -0.10800
Au	Au	0.52225 0.26100 0.00019 0.27100
N 	N 	0.51450 0.40590 0.30600 -0.22900
C 	C 	0.51930 0.35000 0.20100 -0.05300
N 	N 	0.40520 0.51500 0.30700 -0.23100
C 	C 	0.35320 0.51970 0.19800 -0.04600
N 	N 	0.37310 0.37360 0.62100 -0.21800
C 	C 	0.37100 0.28570 0.66100 0.01700
C 	C 	0.28580 0.20600 0.73400 -0.04900
C 	C 	0.20270 0.21420 0.76700 0.01500
C 	C 	0.20480 0.30210 0.72700 -0.02900
C 	C 	0.29010 0.38190 0.65400 0.00200
C 	C 	0.25740 0.10940 0.75300 0.06300
N 	N 	0.23370 0.02070 0.77300 -0.13300
Fe	Fe	0.50000 0.00000 0.50000 1.10300
Fe	Fe	-0.00000 0.50000 0.50000 1.10300
Fe	Fe	0.50000 0.50000 0.50000 1.13100
