data_crystal

_cell_length_a 7.01300
_cell_length_b 15.79000
_cell_length_c 15.79000
_cell_angle_alpha 120.00000
_cell_angle_beta  90.00000
_cell_angle_gamma 90.00000

_symmetry_space_group_name_	'P 1'
_symmetry_space_group_name_H-M	'P 1'

loop_
_symmetry_equiv_pos_as_xyz
  x,y,z

loop_
_atom_site_label
_atom_site_type_symbol
_atom_site_fract_x
_atom_site_fract_y
_atom_site_fract_z
_atom_site_charge
Fe	Fe	0.50000 0.50000 0.50000 1.11900
Fe	Fe	0.50000 0.00000 0.50000 1.09300
Fe	Fe	0.50000 0.50000 -0.00000 1.09300
Au	Au	0.00008 0.73886 0.47778 0.27400
Au	Au	0.00008 0.73892 0.26114 0.27300
Au	Au	0.00008 0.52222 0.26108 0.27100
Au	Au	0.99992 0.26114 0.52222 0.27100
Au	Au	0.99992 0.26108 0.73886 0.27200
Au	Au	0.99992 0.47778 0.73892 0.27400
C 	C 	0.19600 0.64890 0.48160 -0.04900
C 	C 	0.19300 0.48230 0.65030 -0.05700
C 	C 	0.66400 0.71900 0.63870 0.02100
C 	C 	0.73000 0.79370 0.72790 -0.04100
C 	C 	0.76000 0.77660 0.80510 0.00400
C 	C 	0.72300 0.68470 0.79310 -0.05100
C 	C 	0.65600 0.61000 0.70380 0.00800
C 	C 	0.75900 0.88580 0.74580 0.07000
C 	C 	0.19600 0.83270 0.35110 -0.04400
C 	C 	0.19300 0.16800 0.51770 -0.06200
C 	C 	0.66400 0.91970 0.28100 0.00400
C 	C 	0.73000 0.93420 0.20630 0.03400
C 	C 	0.76000 0.02850 0.22340 -0.08200
C 	C 	0.72300 0.10840 0.31530 -0.01600
C 	C 	0.65600 0.09380 0.39000 -0.04700
C 	C 	0.75900 0.86000 0.11420 0.04300
C 	C 	0.19600 0.51840 0.16730 -0.05600
C 	C 	0.19300 0.34970 0.83200 -0.05100
C 	C 	0.66400 0.36130 0.08030 0.03700
C 	C 	0.73000 0.27210 0.06580 -0.11700
C 	C 	0.76000 0.19490 0.97150 0.07600
C 	C 	0.72300 0.20690 0.89160 -0.09100
C 	C 	0.65600 0.29620 0.90620 0.06400
C 	C 	0.75900 0.25420 0.14000 0.07100
C 	C 	0.80400 0.35110 0.51840 -0.05000
C 	C 	0.80700 0.51770 0.34970 -0.05700
C 	C 	0.33600 0.28100 0.36130 0.02100
C 	C 	0.27000 0.20630 0.27210 -0.04400
C 	C 	0.24000 0.22340 0.19490 -0.00300
C 	C 	0.27700 0.31530 0.20690 -0.05500
C 	C 	0.34400 0.39000 0.29620 0.00800
C 	C 	0.24100 0.11420 0.25420 0.05300
C 	C 	0.80400 0.16730 0.64890 -0.05600
C 	C 	0.80700 0.83200 0.48230 -0.05100
C 	C 	0.33600 0.08030 0.71900 0.03800
C 	C 	0.27000 0.06580 0.79370 -0.11600
C 	C 	0.24000 0.97150 0.77660 0.08000
C 	C 	0.27700 0.89160 0.68470 -0.08900
C 	C 	0.34400 0.90620 0.61000 0.06400
C 	C 	0.24100 0.14000 0.88580 0.08000
C 	C 	0.80400 0.48160 0.83270 -0.04400
C 	C 	0.80700 0.65030 0.16800 -0.06200
C 	C 	0.33600 0.63870 0.91970 0.00500
C 	C 	0.27000 0.72790 0.93420 0.03500
C 	C 	0.24000 0.80510 0.02850 -0.07900
C 	C 	0.27700 0.79310 0.10840 -0.01400
C 	C 	0.34400 0.70380 0.09380 -0.04800
C 	C 	0.24100 0.74580 0.86000 0.05100
N 	N 	0.30500 0.59740 0.48480 -0.22500
N 	N 	0.30730 0.48470 0.59690 -0.22400
N 	N 	0.62690 0.62720 0.62670 -0.21800
N 	N 	0.77200 0.97420 0.76920 -0.10200
N 	N 	0.30500 0.88740 0.40260 -0.21300
N 	N 	0.30730 0.11220 0.51530 -0.23000
N 	N 	0.62690 0.99950 0.37280 -0.17500
N 	N 	0.77200 0.79500 0.02580 -0.13100
N 	N 	0.30500 0.51520 0.11260 -0.23200
N 	N 	0.30730 0.40310 0.88780 -0.21200
N 	N 	0.62690 0.37330 0.00050 -0.25400
N 	N 	0.77200 0.23080 0.20500 -0.12900
N 	N 	0.69500 0.40260 0.51520 -0.22500
N 	N 	0.69270 0.51530 0.40310 -0.22400
N 	N 	0.37310 0.37280 0.37330 -0.21800
N 	N 	0.22800 0.02580 0.23080 -0.14000
N 	N 	0.69500 0.11260 0.59740 -0.23200
N 	N 	0.69270 0.88780 0.48470 -0.21200
N 	N 	0.37310 0.00050 0.62720 -0.25400
N 	N 	0.22800 0.20500 0.97420 -0.10900
N 	N 	0.69500 0.48480 0.88740 -0.21300
N 	N 	0.69270 0.59690 0.11220 -0.23000
N 	N 	0.37310 0.62670 0.99950 -0.17500
N 	N 	0.22800 0.76920 0.79500 -0.11200
H 	H 	0.64026 0.73300 0.57531 -0.00200
H 	H 	0.81489 0.83789 0.87818 0.05800
H 	H 	0.74755 0.67061 0.85637 0.04900
H 	H 	0.62503 0.53472 0.69397 -0.01100
H 	H 	0.64026 0.84231 0.26700 0.00400
H 	H 	0.81489 0.04029 0.16211 0.04000
H 	H 	0.74755 0.18576 0.32939 0.03100
H 	H 	0.62503 0.15925 0.46528 -0.00100
H 	H 	0.64026 0.42469 0.15769 -0.00700
H 	H 	0.81489 0.12182 0.95971 0.02400
H 	H 	0.74755 0.14363 0.81424 0.04100
H 	H 	0.62503 0.30603 0.84075 -0.01900
H 	H 	0.35974 0.26700 0.42469 -0.00200
H 	H 	0.18511 0.16211 0.12182 0.02400
H 	H 	0.25245 0.32939 0.14363 0.03200
H 	H 	0.37497 0.46528 0.30603 -0.01100
H 	H 	0.35974 0.15769 0.73300 -0.00700
H 	H 	0.18511 0.95971 0.83789 0.04100
H 	H 	0.25245 0.81424 0.67061 0.05000
H 	H 	0.37497 0.84075 0.53472 -0.01900
H 	H 	0.35974 0.57531 0.84231 0.00400
H 	H 	0.18511 0.87818 0.04029 0.05600
H 	H 	0.25245 0.85637 0.18576 0.04000
H 	H 	0.37497 0.69397 0.15925 -0.00100
