data_crystal

_cell_length_a 8.21200
_cell_length_b 10.63800
_cell_length_c 13.50600
_cell_angle_alpha 97.53800
_cell_angle_beta  90.29400
_cell_angle_gamma 108.61100

_symmetry_space_group_name_	'P 1'
_symmetry_space_group_name_H-M	'P 1'

loop_
_symmetry_equiv_pos_as_xyz
  x,y,z

loop_
_atom_site_label
_atom_site_type_symbol
_atom_site_fract_x
_atom_site_fract_y
_atom_site_fract_z
_atom_site_charge
Cu	Cu	-0.00000 0.50000 0.50000 0.83400
Cu	Cu	0.50000 0.00000 -0.00000 0.74700
H 	H 	0.48360 0.05420 0.59930 0.06000
H 	H 	0.34670 0.03270 0.51150 0.06700
H 	H 	0.71880 0.92130 0.71740 0.05800
H 	H 	0.78980 0.84400 0.78890 0.05000
H 	H 	0.16550 0.07510 0.94000 -0.00600
H 	H 	0.86660 0.64330 0.69710 -0.00700
H 	H 	0.94220 0.07750 0.81120 0.02000
H 	H 	0.00450 0.06160 0.70230 -0.00300
H 	H 	0.91520 0.75400 0.43200 -0.00800
H 	H 	0.66850 0.37530 0.35260 -0.02400
H 	H 	0.74560 0.27320 0.60920 -0.01600
H 	H 	0.39340 0.85720 0.78400 -0.01700
H 	H 	0.51640 0.94580 0.40070 0.05500
H 	H 	0.65330 0.96730 0.48850 0.07400
H 	H 	0.28120 0.07870 0.28260 0.02700
H 	H 	0.21020 0.15600 0.21110 0.01000
H 	H 	0.83450 0.92490 0.06000 -0.05900
H 	H 	0.13340 0.35670 0.30290 -0.03300
H 	H 	0.05780 0.92250 0.18880 0.02500
H 	H 	0.99550 0.93840 0.29770 0.11500
H 	H 	0.08480 0.24600 0.56800 -0.02400
H 	H 	0.33150 0.62470 0.64740 -0.02400
H 	H 	0.25440 0.72680 0.39080 -0.03500
H 	H 	0.60660 0.14280 0.21600 -0.02900
C 	C 	0.46830 0.05270 0.52780 -0.09900
C 	C 	0.81660 0.89340 0.73240 -0.04700
C 	C 	0.19680 0.02240 0.88800 0.00900
C 	C 	0.87130 0.69010 0.64310 0.09800
C 	C 	0.97270 0.01650 0.76060 0.01300
C 	C 	0.89790 0.75260 0.49990 0.10300
C 	C 	0.65600 0.32760 0.40660 0.10200
C 	C 	0.70110 0.27400 0.54590 0.09500
C 	C 	0.31840 0.90500 0.80170 0.08700
C 	C 	0.53170 0.94730 0.47220 -0.02000
C 	C 	0.18340 0.10660 0.26760 -0.04700
C 	C 	0.80320 0.97760 0.11200 0.14700
C 	C 	0.12870 0.30990 0.35690 0.08300
C 	C 	0.02730 0.98350 0.23940 -0.11400
C 	C 	0.10210 0.24740 0.50010 0.08500
C 	C 	0.34400 0.67240 0.59340 0.09700
C 	C 	0.29890 0.72600 0.45410 0.09700
C 	C 	0.68160 0.09500 0.19830 0.06800
N 	N 	0.53160 0.21610 0.41050 -0.10100
N 	N 	0.32420 0.97220 0.89360 -0.22800
N 	N 	0.84350 0.80520 0.64590 -0.07900
N 	N 	0.12140 0.98690 0.79850 -0.08200
N 	N 	0.56450 0.18210 0.50000 -0.08900
N 	N 	0.76540 0.36760 0.48850 -0.23700
N 	N 	0.90830 0.65030 0.54810 -0.22800
N 	N 	0.19860 0.91090 0.73760 -0.09500
N 	N 	0.86080 0.85050 0.55810 -0.07600
N 	N 	0.46840 0.78390 0.58950 -0.09300
N 	N 	0.67580 0.02780 0.10640 -0.31300
N 	N 	0.15650 0.19480 0.35410 -0.09300
N 	N 	0.87860 0.01310 0.20150 -0.11000
N 	N 	0.43550 0.81790 0.50000 -0.09600
N 	N 	0.23460 0.63240 0.51150 -0.25400
N 	N 	0.09170 0.34970 0.45190 -0.24600
N 	N 	0.80140 0.08910 0.26240 -0.09100
N 	N 	0.13920 0.14950 0.44190 -0.10300
