data_crystal

_cell_length_a 21.16500
_cell_length_b 21.16500
_cell_length_c 21.16500
_cell_angle_alpha 90.00000
_cell_angle_beta  90.00000
_cell_angle_gamma 90.00000

_symmetry_space_group_name_	'P 1'
_symmetry_space_group_name_H-M	'P 1'

loop_
_symmetry_equiv_pos_as_xyz
  x,y,z

loop_
_atom_site_label
_atom_site_type_symbol
_atom_site_fract_x
_atom_site_fract_y
_atom_site_fract_z
_atom_site_charge
N 	N 	0.56890 0.69920 0.06720 -0.20600
C 	C 	0.58840 0.75840 0.08790 0.03400
H 	H 	0.57250 0.79540 0.06810 -0.01100
C 	C 	0.63110 0.76350 0.13760 -0.08600
H 	H 	0.64440 0.80390 0.15170 0.05800
C 	C 	0.65440 0.70930 0.16650 -0.00400
C 	C 	0.63490 0.65010 0.14580 -0.07000
H 	H 	0.65080 0.61310 0.16560 0.06600
C 	C 	0.59220 0.64500 0.09620 0.03000
H 	H 	0.57890 0.60450 0.08210 0.04800
C 	C 	0.69500 0.72390 0.21720 0.13600
C 	C 	0.68480 0.77100 0.25670 -0.19900
H 	H 	0.64870 0.79710 0.25080 0.10200
N 	N 	0.43110 0.30080 0.06720 -0.20700
C 	C 	0.41160 0.24160 0.08790 0.03100
H 	H 	0.42750 0.20460 0.06810 -0.02300
C 	C 	0.36890 0.23650 0.13760 -0.09100
H 	H 	0.35560 0.19610 0.15170 0.04200
C 	C 	0.34560 0.29070 0.16650 -0.00300
C 	C 	0.36510 0.34990 0.14580 -0.07400
H 	H 	0.34920 0.38690 0.16560 0.06600
C 	C 	0.40780 0.35500 0.09620 0.02800
H 	H 	0.42110 0.39550 0.08210 0.04700
C 	C 	0.30500 0.27610 0.21720 0.12000
C 	C 	0.31520 0.22900 0.25670 -0.19100
H 	H 	0.35130 0.20290 0.25080 0.08900
N 	N 	0.43110 0.69920 0.93280 -0.17700
C 	C 	0.41160 0.75840 0.91210 0.04600
H 	H 	0.42750 0.79540 0.93190 0.01900
C 	C 	0.36890 0.76350 0.86240 -0.07800
H 	H 	0.35560 0.80390 0.84830 0.06600
C 	C 	0.34560 0.70930 0.83350 0.00000
C 	C 	0.36510 0.65010 0.85420 -0.06500
H 	H 	0.34920 0.61310 0.83440 0.07000
C 	C 	0.40780 0.64500 0.90380 0.04100
H 	H 	0.42110 0.60450 0.91790 0.06700
C 	C 	0.30500 0.72390 0.78280 0.13900
C 	C 	0.31520 0.77100 0.74330 -0.20000
H 	H 	0.35130 0.79710 0.74920 0.10400
N 	N 	0.56890 0.30080 0.93280 -0.17800
C 	C 	0.58840 0.24160 0.91210 0.04500
H 	H 	0.57250 0.20460 0.93190 0.00900
C 	C 	0.63110 0.23650 0.86240 -0.07900
H 	H 	0.64440 0.19610 0.84830 0.05600
C 	C 	0.65440 0.29070 0.83350 0.00000
C 	C 	0.63490 0.34990 0.85420 -0.06500
H 	H 	0.65080 0.38690 0.83440 0.07200
C 	C 	0.59220 0.35500 0.90380 0.04200
H 	H 	0.57890 0.39550 0.91790 0.06700
C 	C 	0.69500 0.27610 0.78280 0.13800
C 	C 	0.68480 0.22900 0.74330 -0.19900
H 	H 	0.64870 0.20290 0.74920 0.09700
N 	N 	0.06720 0.56890 0.69920 -0.20500
C 	C 	0.08790 0.58840 0.75840 0.03500
H 	H 	0.06810 0.57250 0.79540 -0.01000
C 	C 	0.13760 0.63110 0.76350 -0.08500
H 	H 	0.15170 0.64440 0.80390 0.05900
C 	C 	0.16650 0.65440 0.70930 -0.00300
C 	C 	0.14580 0.63490 0.65010 -0.07000
H 	H 	0.16560 0.65080 0.61310 0.06600
C 	C 	0.09620 0.59220 0.64500 0.03000
H 	H 	0.08210 0.57890 0.60450 0.04800
C 	C 	0.21720 0.69500 0.72390 0.13600
C 	C 	0.25670 0.68480 0.77100 -0.19900
H 	H 	0.25080 0.64870 0.79710 0.10200
N 	N 	0.06720 0.43110 0.30080 -0.20700
C 	C 	0.08790 0.41160 0.24160 0.03100
H 	H 	0.06810 0.42750 0.20460 -0.02300
C 	C 	0.13760 0.36890 0.23650 -0.09100
H 	H 	0.15170 0.35560 0.19610 0.04200
C 	C 	0.16650 0.34560 0.29070 -0.00300
C 	C 	0.14580 0.36510 0.34990 -0.07400
H 	H 	0.16560 0.34920 0.38690 0.06600
C 	C 	0.09620 0.40780 0.35500 0.02800
H 	H 	0.08210 0.42110 0.39550 0.04700
C 	C 	0.21720 0.30500 0.27610 0.12000
C 	C 	0.25670 0.31520 0.22900 -0.19100
H 	H 	0.25080 0.35130 0.20290 0.08900
N 	N 	0.93280 0.43110 0.69920 -0.17700
C 	C 	0.91210 0.41160 0.75840 0.04600
H 	H 	0.93190 0.42750 0.79540 0.01900
C 	C 	0.86240 0.36890 0.76350 -0.07800
H 	H 	0.84830 0.35560 0.80390 0.06600
C 	C 	0.83350 0.34560 0.70930 0.00000
C 	C 	0.85420 0.36510 0.65010 -0.06500
H 	H 	0.83440 0.34920 0.61310 0.07000
C 	C 	0.90380 0.40780 0.64500 0.04100
H 	H 	0.91790 0.42110 0.60450 0.06700
C 	C 	0.78280 0.30500 0.72390 0.13900
C 	C 	0.74330 0.31520 0.77100 -0.20000
H 	H 	0.74920 0.35130 0.79710 0.10400
N 	N 	0.93280 0.56890 0.30080 -0.17800
C 	C 	0.91210 0.58840 0.24160 0.04500
H 	H 	0.93190 0.57250 0.20460 0.00900
C 	C 	0.86240 0.63110 0.23650 -0.07900
H 	H 	0.84830 0.64440 0.19610 0.05600
C 	C 	0.83350 0.65440 0.29070 0.00000
C 	C 	0.85420 0.63490 0.34990 -0.06500
H 	H 	0.83440 0.65080 0.38690 0.07200
C 	C 	0.90380 0.59220 0.35500 0.04200
H 	H 	0.91790 0.57890 0.39550 0.06700
C 	C 	0.78280 0.69500 0.27610 0.13800
C 	C 	0.74330 0.68480 0.22900 -0.19900
H 	H 	0.74920 0.64870 0.20290 0.09700
N 	N 	0.69920 0.06720 0.56890 -0.20500
C 	C 	0.75840 0.08790 0.58840 0.03500
H 	H 	0.79540 0.06810 0.57250 -0.01000
C 	C 	0.76350 0.13760 0.63110 -0.08500
H 	H 	0.80390 0.15170 0.64440 0.05900
C 	C 	0.70930 0.16650 0.65440 -0.00300
C 	C 	0.65010 0.14580 0.63490 -0.07000
H 	H 	0.61310 0.16560 0.65080 0.06600
C 	C 	0.64500 0.09620 0.59220 0.03000
H 	H 	0.60450 0.08210 0.57890 0.04800
C 	C 	0.72390 0.21720 0.69500 0.13600
C 	C 	0.77100 0.25670 0.68480 -0.19900
H 	H 	0.79710 0.25080 0.64870 0.10200
N 	N 	0.30080 0.06720 0.43110 -0.20700
C 	C 	0.24160 0.08790 0.41160 0.03100
H 	H 	0.20460 0.06810 0.42750 -0.02300
C 	C 	0.23650 0.13760 0.36890 -0.09100
H 	H 	0.19610 0.15170 0.35560 0.04200
C 	C 	0.29070 0.16650 0.34560 -0.00300
C 	C 	0.34990 0.14580 0.36510 -0.07400
H 	H 	0.38690 0.16560 0.34920 0.06600
C 	C 	0.35500 0.09620 0.40780 0.02800
H 	H 	0.39550 0.08210 0.42110 0.04700
C 	C 	0.27610 0.21720 0.30500 0.12000
C 	C 	0.22900 0.25670 0.31520 -0.19100
H 	H 	0.20290 0.25080 0.35130 0.08900
N 	N 	0.69920 0.93280 0.43110 -0.17700
C 	C 	0.75840 0.91210 0.41160 0.04600
H 	H 	0.79540 0.93190 0.42750 0.01900
C 	C 	0.76350 0.86240 0.36890 -0.07800
H 	H 	0.80390 0.84830 0.35560 0.06600
C 	C 	0.70930 0.83350 0.34560 0.00000
C 	C 	0.65010 0.85420 0.36510 -0.06500
H 	H 	0.61310 0.83440 0.34920 0.07000
C 	C 	0.64500 0.90380 0.40780 0.04100
H 	H 	0.60450 0.91790 0.42110 0.06700
C 	C 	0.72390 0.78280 0.30500 0.13900
C 	C 	0.77100 0.74330 0.31520 -0.20000
H 	H 	0.79710 0.74920 0.35130 0.10400
N 	N 	0.30080 0.93280 0.56890 -0.17800
C 	C 	0.24160 0.91210 0.58840 0.04500
H 	H 	0.20460 0.93190 0.57250 0.00900
C 	C 	0.23650 0.86240 0.63110 -0.07900
H 	H 	0.19610 0.84830 0.64440 0.05600
C 	C 	0.29070 0.83350 0.65440 0.00000
C 	C 	0.34990 0.85420 0.63490 -0.06500
H 	H 	0.38690 0.83440 0.65080 0.07200
C 	C 	0.35500 0.90380 0.59220 0.04200
H 	H 	0.39550 0.91790 0.57890 0.06700
C 	C 	0.27610 0.78280 0.69500 0.13800
C 	C 	0.22900 0.74330 0.68480 -0.19900
H 	H 	0.20290 0.74920 0.64870 0.09700
N 	N 	0.43110 0.30080 0.93280 -0.17900
C 	C 	0.41160 0.24160 0.91210 0.04300
H 	H 	0.42750 0.20460 0.93190 0.00800
C 	C 	0.36890 0.23650 0.86240 -0.08200
H 	H 	0.35560 0.19610 0.84830 0.05300
C 	C 	0.34560 0.29070 0.83350 0.00000
C 	C 	0.36510 0.34990 0.85420 -0.06700
H 	H 	0.34920 0.38690 0.83440 0.07100
C 	C 	0.40780 0.35500 0.90380 0.04000
H 	H 	0.42110 0.39550 0.91790 0.06700
C 	C 	0.30500 0.27610 0.78280 0.13000
C 	C 	0.31520 0.22900 0.74330 -0.19500
H 	H 	0.35130 0.20290 0.74920 0.09400
N 	N 	0.56890 0.69920 0.93280 -0.17700
C 	C 	0.58840 0.75840 0.91210 0.04800
H 	H 	0.57250 0.79540 0.93190 0.02100
C 	C 	0.63110 0.76350 0.86240 -0.07600
H 	H 	0.64440 0.80390 0.84830 0.06900
C 	C 	0.65440 0.70930 0.83350 -0.00000
C 	C 	0.63490 0.65010 0.85420 -0.06300
H 	H 	0.65080 0.61310 0.83440 0.07100
C 	C 	0.59220 0.64500 0.90380 0.04200
H 	H 	0.57890 0.60450 0.91790 0.06700
C 	C 	0.69500 0.72390 0.78280 0.14700
C 	C 	0.68480 0.77100 0.74330 -0.20400
H 	H 	0.64870 0.79710 0.74920 0.10700
N 	N 	0.56890 0.30080 0.06720 -0.20600
C 	C 	0.58840 0.24160 0.08790 0.03200
H 	H 	0.57250 0.20460 0.06810 -0.02100
C 	C 	0.63110 0.23650 0.13760 -0.08900
H 	H 	0.64440 0.19610 0.15170 0.04600
C 	C 	0.65440 0.29070 0.16650 -0.00300
C 	C 	0.63490 0.34990 0.14580 -0.07200
H 	H 	0.65080 0.38690 0.16560 0.06700
C 	C 	0.59220 0.35500 0.09620 0.02900
H 	H 	0.57890 0.39550 0.08210 0.04800
C 	C 	0.69500 0.27610 0.21720 0.12700
C 	C 	0.68480 0.22900 0.25670 -0.19500
H 	H 	0.64870 0.20290 0.25080 0.09200
N 	N 	0.43110 0.69920 0.06720 -0.20500
C 	C 	0.41160 0.75840 0.08790 0.03400
H 	H 	0.42750 0.79540 0.06810 -0.01100
C 	C 	0.36890 0.76350 0.13760 -0.08800
H 	H 	0.35560 0.80390 0.15170 0.05500
C 	C 	0.34560 0.70930 0.16650 -0.00300
C 	C 	0.36510 0.65010 0.14580 -0.07200
H 	H 	0.34920 0.61310 0.16560 0.06500
C 	C 	0.40780 0.64500 0.09620 0.02900
H 	H 	0.42110 0.60450 0.08210 0.04700
C 	C 	0.30500 0.72390 0.21720 0.12800
C 	C 	0.31520 0.77100 0.25670 -0.19500
H 	H 	0.35130 0.79710 0.25080 0.09900
N 	N 	0.93280 0.43110 0.30080 -0.17900
C 	C 	0.91210 0.41160 0.24160 0.04300
H 	H 	0.93190 0.42750 0.20460 0.00800
C 	C 	0.86240 0.36890 0.23650 -0.08200
H 	H 	0.84830 0.35560 0.19610 0.05300
C 	C 	0.83350 0.34560 0.29070 0.00000
C 	C 	0.85420 0.36510 0.34990 -0.06700
H 	H 	0.83440 0.34920 0.38690 0.07100
C 	C 	0.90380 0.40780 0.35500 0.04000
H 	H 	0.91790 0.42110 0.39550 0.06700
C 	C 	0.78280 0.30500 0.27610 0.13000
C 	C 	0.74330 0.31520 0.22900 -0.19500
H 	H 	0.74920 0.35130 0.20290 0.09400
N 	N 	0.93280 0.56890 0.69920 -0.17700
C 	C 	0.91210 0.58840 0.75840 0.04800
H 	H 	0.93190 0.57250 0.79540 0.02100
C 	C 	0.86240 0.63110 0.76350 -0.07600
H 	H 	0.84830 0.64440 0.80390 0.06900
C 	C 	0.83350 0.65440 0.70930 -0.00000
C 	C 	0.85420 0.63490 0.65010 -0.06300
H 	H 	0.83440 0.65080 0.61310 0.07100
C 	C 	0.90380 0.59220 0.64500 0.04200
H 	H 	0.91790 0.57890 0.60450 0.06700
C 	C 	0.78280 0.69500 0.72390 0.14700
C 	C 	0.74330 0.68480 0.77100 -0.20400
H 	H 	0.74920 0.64870 0.79710 0.10700
N 	N 	0.06720 0.56890 0.30080 -0.20600
C 	C 	0.08790 0.58840 0.24160 0.03200
H 	H 	0.06810 0.57250 0.20460 -0.02100
C 	C 	0.13760 0.63110 0.23650 -0.08900
H 	H 	0.15170 0.64440 0.19610 0.04600
C 	C 	0.16650 0.65440 0.29070 -0.00300
C 	C 	0.14580 0.63490 0.34990 -0.07200
H 	H 	0.16560 0.65080 0.38690 0.06700
C 	C 	0.09620 0.59220 0.35500 0.02900
H 	H 	0.08210 0.57890 0.39550 0.04800
C 	C 	0.21720 0.69500 0.27610 0.12700
C 	C 	0.25670 0.68480 0.22900 -0.19500
H 	H 	0.25080 0.64870 0.20290 0.09200
N 	N 	0.06720 0.43110 0.69920 -0.20500
C 	C 	0.08790 0.41160 0.75840 0.03400
H 	H 	0.06810 0.42750 0.79540 -0.01100
C 	C 	0.13760 0.36890 0.76350 -0.08800
H 	H 	0.15170 0.35560 0.80390 0.05500
C 	C 	0.16650 0.34560 0.70930 -0.00300
C 	C 	0.14580 0.36510 0.65010 -0.07200
H 	H 	0.16560 0.34920 0.61310 0.06500
C 	C 	0.09620 0.40780 0.64500 0.02900
H 	H 	0.08210 0.42110 0.60450 0.04700
C 	C 	0.21720 0.30500 0.72390 0.12800
C 	C 	0.25670 0.31520 0.77100 -0.19500
H 	H 	0.25080 0.35130 0.79710 0.09900
N 	N 	0.30080 0.93280 0.43110 -0.17900
C 	C 	0.24160 0.91210 0.41160 0.04300
H 	H 	0.20460 0.93190 0.42750 0.00800
C 	C 	0.23650 0.86240 0.36890 -0.08200
H 	H 	0.19610 0.84830 0.35560 0.05300
C 	C 	0.29070 0.83350 0.34560 0.00000
C 	C 	0.34990 0.85420 0.36510 -0.06700
H 	H 	0.38690 0.83440 0.34920 0.07100
C 	C 	0.35500 0.90380 0.40780 0.04000
H 	H 	0.39550 0.91790 0.42110 0.06700
C 	C 	0.27610 0.78280 0.30500 0.13000
C 	C 	0.22900 0.74330 0.31520 -0.19500
H 	H 	0.20290 0.74920 0.35130 0.09400
N 	N 	0.69920 0.93280 0.56890 -0.17700
C 	C 	0.75840 0.91210 0.58840 0.04800
H 	H 	0.79540 0.93190 0.57250 0.02100
C 	C 	0.76350 0.86240 0.63110 -0.07600
H 	H 	0.80390 0.84830 0.64440 0.06900
C 	C 	0.70930 0.83350 0.65440 -0.00000
C 	C 	0.65010 0.85420 0.63490 -0.06300
H 	H 	0.61310 0.83440 0.65080 0.07100
C 	C 	0.64500 0.90380 0.59220 0.04200
H 	H 	0.60450 0.91790 0.57890 0.06700
C 	C 	0.72390 0.78280 0.69500 0.14700
C 	C 	0.77100 0.74330 0.68480 -0.20400
H 	H 	0.79710 0.74920 0.64870 0.10700
N 	N 	0.30080 0.06720 0.56890 -0.20600
C 	C 	0.24160 0.08790 0.58840 0.03200
H 	H 	0.20460 0.06810 0.57250 -0.02100
C 	C 	0.23650 0.13760 0.63110 -0.08900
H 	H 	0.19610 0.15170 0.64440 0.04600
C 	C 	0.29070 0.16650 0.65440 -0.00300
C 	C 	0.34990 0.14580 0.63490 -0.07200
H 	H 	0.38690 0.16560 0.65080 0.06700
C 	C 	0.35500 0.09620 0.59220 0.02900
H 	H 	0.39550 0.08210 0.57890 0.04800
C 	C 	0.27610 0.21720 0.69500 0.12700
C 	C 	0.22900 0.25670 0.68480 -0.19500
H 	H 	0.20290 0.25080 0.64870 0.09200
N 	N 	0.69920 0.06720 0.43110 -0.20500
C 	C 	0.75840 0.08790 0.41160 0.03400
H 	H 	0.79540 0.06810 0.42750 -0.01100
C 	C 	0.76350 0.13760 0.36890 -0.08800
H 	H 	0.80390 0.15170 0.35560 0.05500
C 	C 	0.70930 0.16650 0.34560 -0.00300
C 	C 	0.65010 0.14580 0.36510 -0.07200
H 	H 	0.61310 0.16560 0.34920 0.06500
C 	C 	0.64500 0.09620 0.40780 0.02900
H 	H 	0.60450 0.08210 0.42110 0.04700
C 	C 	0.72390 0.21720 0.30500 0.12800
C 	C 	0.77100 0.25670 0.31520 -0.19500
H 	H 	0.79710 0.25080 0.35130 0.09900
Cu	Cu	0.50000 0.68640 -0.00000 0.88800
F 	F 	0.50000 0.59020 -0.00000 -0.89300
Cu	Cu	0.50000 0.31360 -0.00000 0.88700
F 	F 	0.50000 0.40980 -0.00000 -0.89300
Cu	Cu	0.00000 0.50000 0.68640 0.88800
F 	F 	0.00000 0.50000 0.59020 -0.89300
Cu	Cu	-0.00000 0.50000 0.31360 0.88700
F 	F 	0.00000 0.50000 0.40980 -0.89300
Cu	Cu	0.68640 -0.00000 0.50000 0.88800
F 	F 	0.59020 -0.00000 0.50000 -0.89300
Cu	Cu	0.31360 -0.00000 0.50000 0.88700
F 	F 	0.40980 -0.00000 0.50000 -0.89300
Zr	Zr	0.50000 0.50000 -0.00000 3.27100
Zr	Zr	0.00000 0.50000 0.50000 3.27100
Zr	Zr	0.50000 -0.00000 0.50000 3.27100
F 	F 	0.54080 0.50000 0.07770 -0.71600
F 	F 	0.45920 0.50000 0.07770 -0.71700
F 	F 	0.45920 0.50000 0.92230 -0.68700
F 	F 	0.54080 0.50000 0.92230 -0.68600
F 	F 	0.07770 0.54080 0.50000 -0.71600
F 	F 	0.07770 0.45920 0.50000 -0.71700
F 	F 	0.92230 0.45920 0.50000 -0.68700
F 	F 	0.92230 0.54080 0.50000 -0.68600
F 	F 	0.50000 0.07770 0.54080 -0.71600
F 	F 	0.50000 0.07770 0.45920 -0.71700
F 	F 	0.50000 0.92230 0.45920 -0.68700
F 	F 	0.50000 0.92230 0.54080 -0.68600
