data_crystal

_cell_length_a 12.34500
_cell_length_b 33.25700
_cell_length_c 12.93400
_cell_angle_alpha 90.00000
_cell_angle_beta  96.66000
_cell_angle_gamma 90.00000

_symmetry_space_group_name_	'P 1'
_symmetry_space_group_name_H-M	'P 1'

loop_
_symmetry_equiv_pos_as_xyz
  x,y,z

loop_
_atom_site_label
_atom_site_type_symbol
_atom_site_fract_x
_atom_site_fract_y
_atom_site_fract_z
_atom_site_charge
N 	N 	0.62420 0.79320 0.75710 -0.24400
C 	C 	0.57650 0.82480 0.72140 0.20100
N 	N 	0.55430 0.78503 0.84060 -0.10400
C 	C 	0.48560 0.83850 0.76390 -0.18600
C 	C 	0.62700 0.84520 0.62400 -0.52000
C 	C 	0.47350 0.81235 0.83550 0.06900
C 	C 	0.41340 0.87510 0.73490 0.21500
H 	H 	0.66610 0.82480 0.58810 0.12700
H 	H 	0.67760 0.86670 0.64930 0.17100
H 	H 	0.56790 0.85650 0.57550 0.17300
C 	C 	0.44210 0.91000 0.76130 -0.28500
C 	C 	0.30720 0.87270 0.69140 -0.23200
C 	C 	0.38960 0.94490 0.72180 0.18300
H 	H 	0.50400 0.91300 0.81170 0.11700
C 	C 	0.24170 0.90760 0.65890 0.15100
H 	H 	0.27470 0.84690 0.68220 0.09600
C 	C 	0.29230 0.94326 0.66970 -0.25800
H 	H 	0.42500 0.97020 0.73300 -0.02700
H 	H 	0.16710 0.90540 0.63150 -0.02000
C 	C 	0.23420 0.97965 0.62630 0.45200
O 	O 	0.28070 0.01361 0.64800 -0.49100
O 	O 	0.14700 0.97536 0.57180 -0.49300
Mn	Mn	0.20740 0.06858 0.59737 1.28500
N 	N 	0.36410 0.10194 0.61630 -0.24000
N 	N 	0.20320 0.08749 0.76710 -0.23000
O 	O 	0.03410 0.05547 0.59530 -0.60900
O 	O 	0.20970 0.06721 0.43550 -0.50400
O 	O 	0.07120 0.02699 0.37750 -0.49700
N 	N 	0.38560 0.13270 0.68560 -0.13900
C 	C 	0.46160 0.09013 0.59110 0.27400
N 	N 	0.25490 0.12204 0.80400 -0.13700
C 	C 	0.17280 0.06835 0.84900 0.29400
C 	C 	0.99810 0.09152 0.59300 0.47900
C 	C 	0.29430 0.14940 0.73120 -0.00200
C 	C 	0.49350 0.14037 0.70280 0.25800
C 	C 	0.54510 0.11371 0.64330 -0.26500
C 	C 	0.47020 0.05570 0.51840 -0.67400
C 	C 	0.25920 0.12420 0.90910 0.28300
C 	C 	0.20830 0.09038 0.94150 -0.29800
C 	C 	0.11540 0.02934 0.83780 -0.67500
O 	O 	0.06150 0.12068 0.57910 -0.43200
C 	C 	0.88320 0.09862 0.61000 -0.21300
H 	H 	0.31690 0.17480 0.76730 0.01800
H 	H 	0.23480 0.15560 0.67550 0.01900
C 	C 	0.54200 0.17170 0.77670 -0.60200
C 	C 	0.66280 0.10953 0.63580 0.20100
H 	H 	0.47250 0.03040 0.55750 0.21000
H 	H 	0.53710 0.05840 0.48480 0.22000
H 	H 	0.40690 0.05560 0.46520 0.21200
C 	C 	0.31320 0.15830 0.97090 -0.64500
C 	C 	0.19080 0.08012 0.04850 0.28100
H 	H 	0.04860 0.03230 0.78960 0.20700
H 	H 	0.09680 0.02060 0.90590 0.20400
H 	H 	0.16290 0.00930 0.81050 0.20900
C 	C 	0.82080 0.06673 0.64340 0.14100
C 	C 	0.83530 0.13591 0.59410 0.13800
H 	H 	0.50700 0.19770 0.75920 0.18200
H 	H 	0.62040 0.17390 0.77150 0.19700
H 	H 	0.53060 0.16420 0.84790 0.19000
C 	C 	0.71460 0.07253 0.65600 -0.22900
C 	C 	0.72570 0.14157 0.60830 -0.22500
H 	H 	0.39240 0.15640 0.97120 0.20400
H 	H 	0.29490 0.15700 0.04260 0.21600
H 	H 	0.28760 0.18390 0.93940 0.21400
C 	C 	0.08650 0.06750 0.07250 -0.18400
C 	C 	0.27650 0.08340 0.12610 -0.15800
H 	H 	0.85330 0.04110 0.65720 -0.01300
H 	H 	0.87700 0.15790 0.57340 -0.00100
H 	H 	0.67390 0.05070 0.67930 0.10000
H 	H 	0.69400 0.16750 0.59910 0.09800
H 	H 	0.02640 0.06620 0.01970 0.07000
C 	C 	0.07410 0.05720 0.17500 0.09100
C 	C 	0.26290 0.07230 0.22810 0.08000
H 	H 	0.34510 0.09320 0.11040 0.07200
C 	C 	0.16350 0.06111 0.25560 -0.26500
H 	H 	0.00580 0.04750 0.19160 -0.01900
H 	H 	0.32430 0.07260 0.27970 -0.00700
C 	C 	0.14680 0.05075 0.36460 0.45200
C 	C 	0.20450 0.04010 0.09030 -0.17600
H 	H 	0.22480 0.01890 0.04710 0.07300
C 	C 	0.16530 0.10140 0.22580 0.10500
H 	H 	0.16060 0.12220 0.27540 -0.02900
C 	C 	0.18840 0.03190 0.19350 0.10600
H 	H 	0.19540 0.00510 0.21910 -0.02000
C 	C 	0.17400 0.11040 0.12370 -0.17400
H 	H 	0.16890 0.13770 0.10210 0.07400
N 	N 	0.37580 0.29320 0.24290 -0.24300
C 	C 	0.42350 0.32480 0.27860 0.20100
N 	N 	0.44570 0.28503 0.15940 -0.10300
C 	C 	0.51440 0.33850 0.23610 -0.18400
C 	C 	0.37300 0.34520 0.37600 -0.51500
C 	C 	0.52650 0.31235 0.16450 0.08000
C 	C 	0.58660 0.37510 0.26510 0.21300
H 	H 	0.33390 0.32480 0.41190 0.12200
H 	H 	0.32240 0.36670 0.35070 0.16800
H 	H 	0.43210 0.35650 0.42450 0.17200
C 	C 	0.55790 0.41000 0.23870 -0.27500
C 	C 	0.69280 0.37270 0.30860 -0.22200
C 	C 	0.61040 0.44490 0.27820 0.17300
H 	H 	0.49600 0.41300 0.18830 0.11500
C 	C 	0.75830 0.40760 0.34110 0.14400
H 	H 	0.72530 0.34690 0.31780 0.10500
C 	C 	0.70770 0.44326 0.33030 -0.24100
H 	H 	0.57500 0.47020 0.26700 -0.02600
H 	H 	0.83290 0.40540 0.36850 0.00100
C 	C 	0.76580 0.47965 0.37370 0.43000
O 	O 	0.71930 0.51361 0.35200 -0.47700
O 	O 	0.85300 0.47536 0.42820 -0.46900
Mn	Mn	0.79260 0.56858 0.40263 1.28500
N 	N 	0.63590 0.60194 0.38370 -0.23900
N 	N 	0.79680 0.58749 0.23290 -0.23100
O 	O 	0.96590 0.55547 0.40470 -0.47400
O 	O 	0.79030 0.56721 0.56450 -0.49700
O 	O 	0.92880 0.52699 0.62250 -0.45200
N 	N 	0.61440 0.63270 0.31440 -0.13700
C 	C 	0.53840 0.59013 0.40890 0.27100
N 	N 	0.74510 0.62204 0.19600 -0.13400
C 	C 	0.82720 0.56835 0.15100 0.32400
C 	C 	0.00190 0.59152 0.40700 0.22800
C 	C 	0.70570 0.64940 0.26880 -0.00400
C 	C 	0.50650 0.64037 0.29720 0.24800
C 	C 	0.45490 0.61371 0.35670 -0.25100
C 	C 	0.52980 0.55570 0.48160 -0.67400
C 	C 	0.74080 0.62420 0.09090 0.28600
C 	C 	0.79170 0.59038 0.05850 -0.29500
C 	C 	0.88460 0.52934 0.16220 -0.75000
O 	O 	0.93850 0.62068 0.42090 -0.30400
C 	C 	0.11680 0.59862 0.39000 -0.13200
H 	H 	0.68310 0.67480 0.23270 0.02200
H 	H 	0.76520 0.65560 0.32450 0.02400
C 	C 	0.45800 0.67170 0.22330 -0.58500
C 	C 	0.33720 0.60953 0.36420 0.16900
H 	H 	0.52750 0.53040 0.44250 0.21300
H 	H 	0.46290 0.55840 0.51520 0.22200
H 	H 	0.59310 0.55560 0.53480 0.21300
C 	C 	0.68680 0.65830 0.02910 -0.63300
C 	C 	0.80920 0.58012 0.95150 0.27200
H 	H 	0.95140 0.53230 0.21040 0.26000
H 	H 	0.90320 0.52060 0.09410 0.25000
H 	H 	0.83710 0.50930 0.18950 0.24500
C 	C 	0.17920 0.56673 0.35660 0.07200
C 	C 	0.16470 0.63591 0.40590 0.07200
H 	H 	0.49300 0.69770 0.24080 0.17700
H 	H 	0.37960 0.67390 0.22850 0.18500
H 	H 	0.46940 0.66420 0.15210 0.18300
C 	C 	0.28540 0.57253 0.34400 -0.18800
C 	C 	0.27430 0.64157 0.39170 -0.18900
H 	H 	0.60760 0.65640 0.02880 0.20100
H 	H 	0.70510 0.65700 0.95740 0.21100
H 	H 	0.71240 0.68390 0.06060 0.21600
C 	C 	0.91350 0.56750 0.92750 -0.17200
C 	C 	0.72350 0.58340 0.87390 -0.15300
H 	H 	0.14670 0.54110 0.34280 -0.00200
H 	H 	0.12300 0.65790 0.42660 -0.00300
H 	H 	0.32610 0.55070 0.32070 0.08700
H 	H 	0.30600 0.66750 0.40090 0.08000
H 	H 	0.97360 0.56620 0.98030 0.08900
C 	C 	0.92590 0.55720 0.82500 0.08800
C 	C 	0.73710 0.57230 0.77190 0.07100
H 	H 	0.65490 0.59320 0.88960 0.06900
C 	C 	0.83650 0.56111 0.74440 -0.24900
H 	H 	0.99420 0.54750 0.80840 0.01700
H 	H 	0.67570 0.57260 0.72030 -0.00300
C 	C 	0.85320 0.55075 0.63540 0.44400
C 	C 	0.79550 0.54010 0.90970 -0.17000
H 	H 	0.77520 0.51890 0.95290 0.07800
C 	C 	0.83470 0.60140 0.77420 0.10400
H 	H 	0.83940 0.62220 0.72460 -0.02000
C 	C 	0.81160 0.53190 0.80650 0.10400
H 	H 	0.80460 0.50510 0.78090 -0.00600
C 	C 	0.82600 0.61040 0.87630 -0.16800
H 	H 	0.83110 0.63770 0.89790 0.07900
N 	N 	0.37580 0.20680 0.24290 -0.24300
C 	C 	0.42350 0.17520 0.27860 0.20100
N 	N 	0.44570 0.21497 0.15940 -0.10300
C 	C 	0.51440 0.16150 0.23610 -0.18300
C 	C 	0.37300 0.15480 0.37600 -0.51400
C 	C 	0.52650 0.18765 0.16450 0.07900
C 	C 	0.58660 0.12490 0.26510 0.21000
H 	H 	0.33390 0.17520 0.41190 0.12200
H 	H 	0.32240 0.13330 0.35070 0.16800
H 	H 	0.43210 0.14350 0.42450 0.17200
C 	C 	0.55790 0.09000 0.23870 -0.27200
C 	C 	0.69280 0.12730 0.30860 -0.21900
C 	C 	0.61040 0.05510 0.27820 0.16700
H 	H 	0.49600 0.08700 0.18830 0.11300
C 	C 	0.75830 0.09240 0.34110 0.13900
H 	H 	0.72530 0.15310 0.31780 0.10400
C 	C 	0.70770 0.05674 0.33030 -0.23600
H 	H 	0.57500 0.02980 0.26700 -0.02800
H 	H 	0.83290 0.09460 0.36850 0.00200
C 	C 	0.76580 0.02035 0.37370 0.41400
O 	O 	0.71930 0.98639 0.35200 -0.46500
O 	O 	0.85300 0.02464 0.42820 -0.46900
Mn	Mn	0.79260 0.93142 0.40263 1.28600
N 	N 	0.63590 0.89806 0.38370 -0.24000
N 	N 	0.79680 0.91251 0.23290 -0.23100
O 	O 	0.96590 0.94453 0.40470 -0.47100
O 	O 	0.79030 0.93279 0.56450 -0.49600
O 	O 	0.92880 0.97301 0.62250 -0.44700
N 	N 	0.61440 0.86730 0.31440 -0.13700
C 	C 	0.53840 0.90987 0.40890 0.27300
N 	N 	0.74510 0.87796 0.19600 -0.13400
C 	C 	0.82720 0.93165 0.15100 0.32800
C 	C 	0.00190 0.90848 0.40700 0.22800
C 	C 	0.70570 0.85060 0.26880 -0.00400
C 	C 	0.50650 0.85963 0.29720 0.24900
C 	C 	0.45490 0.88629 0.35670 -0.25200
C 	C 	0.52980 0.94430 0.48160 -0.68100
C 	C 	0.74080 0.87580 0.09090 0.28600
C 	C 	0.79170 0.90962 0.05850 -0.29600
C 	C 	0.88460 0.97066 0.16220 -0.76000
O 	O 	0.93850 0.87932 0.42090 -0.30400
C 	C 	0.11680 0.90138 0.39000 -0.13100
H 	H 	0.68310 0.82520 0.23270 0.02200
H 	H 	0.76520 0.84440 0.32450 0.02400
C 	C 	0.45800 0.82830 0.22330 -0.58600
C 	C 	0.33720 0.89047 0.36420 0.16900
H 	H 	0.52750 0.96960 0.44250 0.21800
H 	H 	0.46290 0.94160 0.51520 0.22500
H 	H 	0.59310 0.94440 0.53480 0.21600
C 	C 	0.68680 0.84170 0.02910 -0.63300
C 	C 	0.80920 0.91988 0.95150 0.27200
H 	H 	0.95140 0.96770 0.21040 0.26600
H 	H 	0.90320 0.97940 0.09410 0.25500
H 	H 	0.83710 0.99070 0.18950 0.25200
C 	C 	0.17920 0.93327 0.35660 0.07200
C 	C 	0.16470 0.86409 0.40590 0.07100
H 	H 	0.49300 0.80230 0.24080 0.17700
H 	H 	0.37960 0.82610 0.22850 0.18600
H 	H 	0.46940 0.83580 0.15210 0.18300
C 	C 	0.28540 0.92747 0.34400 -0.18800
C 	C 	0.27430 0.85843 0.39170 -0.18900
H 	H 	0.60760 0.84360 0.02880 0.20200
H 	H 	0.70510 0.84300 0.95740 0.21100
H 	H 	0.71240 0.81610 0.06060 0.21600
C 	C 	0.91350 0.93250 0.92750 -0.17200
C 	C 	0.72350 0.91660 0.87390 -0.15300
H 	H 	0.14670 0.95890 0.34280 0.00100
H 	H 	0.12300 0.84210 0.42660 -0.00300
H 	H 	0.32610 0.94930 0.32070 0.09000
H 	H 	0.30600 0.83250 0.40090 0.08000
H 	H 	0.97360 0.93380 0.98030 0.09000
C 	C 	0.92590 0.94280 0.82500 0.08800
C 	C 	0.73710 0.92770 0.77190 0.07100
H 	H 	0.65490 0.90680 0.88960 0.06900
C 	C 	0.83650 0.93889 0.74440 -0.24800
H 	H 	0.99420 0.95250 0.80840 0.01900
H 	H 	0.67570 0.92740 0.72030 -0.00300
C 	C 	0.85320 0.94925 0.63540 0.44300
C 	C 	0.79550 0.95990 0.90970 -0.16900
H 	H 	0.77520 0.98110 0.95290 0.08000
C 	C 	0.83470 0.89860 0.77420 0.10400
H 	H 	0.83940 0.87780 0.72460 -0.02000
C 	C 	0.81160 0.96810 0.80650 0.10300
H 	H 	0.80460 0.99490 0.78090 -0.00200
C 	C 	0.82600 0.88960 0.87630 -0.16700
H 	H 	0.83110 0.86230 0.89790 0.07900
N 	N 	0.62420 0.70680 0.75710 -0.24300
C 	C 	0.57650 0.67520 0.72140 0.20200
N 	N 	0.55430 0.71497 0.84060 -0.10300
C 	C 	0.48560 0.66150 0.76390 -0.18400
C 	C 	0.62700 0.65480 0.62400 -0.51800
C 	C 	0.47350 0.68765 0.83550 0.07000
C 	C 	0.41340 0.62490 0.73490 0.21300
H 	H 	0.66610 0.67520 0.58810 0.12700
H 	H 	0.67760 0.63330 0.64930 0.17100
H 	H 	0.56790 0.64350 0.57550 0.17300
C 	C 	0.44210 0.59000 0.76130 -0.28200
C 	C 	0.30720 0.62730 0.69140 -0.23000
C 	C 	0.38960 0.55510 0.72180 0.17800
H 	H 	0.50400 0.58700 0.81170 0.11500
C 	C 	0.24170 0.59240 0.65890 0.14700
H 	H 	0.27470 0.65310 0.68220 0.09600
C 	C 	0.29230 0.55674 0.66970 -0.25300
H 	H 	0.42500 0.52980 0.73300 -0.02900
H 	H 	0.16710 0.59460 0.63150 -0.01800
C 	C 	0.23420 0.52035 0.62630 0.43700
O 	O 	0.28070 0.48639 0.64800 -0.47900
O 	O 	0.14700 0.52464 0.57180 -0.49400
Mn	Mn	0.20740 0.43142 0.59737 1.28500
N 	N 	0.36410 0.39806 0.61630 -0.24000
N 	N 	0.20320 0.41251 0.76710 -0.23000
O 	O 	0.03410 0.44453 0.59530 -0.60700
O 	O 	0.20970 0.43279 0.43550 -0.50400
O 	O 	0.07120 0.47301 0.37750 -0.49300
N 	N 	0.38560 0.36730 0.68560 -0.13900
C 	C 	0.46160 0.40987 0.59110 0.27700
N 	N 	0.25490 0.37796 0.80400 -0.13700
C 	C 	0.17280 0.43165 0.84900 0.29700
C 	C 	0.99810 0.40848 0.59300 0.47900
C 	C 	0.29430 0.35060 0.73120 -0.00200
C 	C 	0.49350 0.35963 0.70280 0.25900
C 	C 	0.54510 0.38629 0.64330 -0.26500
C 	C 	0.47020 0.44430 0.51840 -0.68000
C 	C 	0.25920 0.37580 0.90910 0.28400
C 	C 	0.20830 0.40962 0.94150 -0.29900
C 	C 	0.11540 0.47066 0.83780 -0.68400
O 	O 	0.06150 0.37932 0.57910 -0.43200
C 	C 	0.88320 0.40138 0.61000 -0.21300
H 	H 	0.31690 0.32520 0.76730 0.01800
H 	H 	0.23480 0.34440 0.67550 0.01900
C 	C 	0.54200 0.32830 0.77670 -0.60300
C 	C 	0.66280 0.39047 0.63580 0.20200
H 	H 	0.47250 0.46960 0.55750 0.21500
H 	H 	0.53710 0.44160 0.48480 0.22300
H 	H 	0.40690 0.44440 0.46520 0.21500
C 	C 	0.31320 0.34170 0.97090 -0.64600
C 	C 	0.19080 0.41988 0.04850 0.28100
H 	H 	0.04860 0.46770 0.78960 0.21200
H 	H 	0.09680 0.47940 0.90590 0.21000
H 	H 	0.16290 0.49070 0.81050 0.21500
C 	C 	0.82080 0.43327 0.64340 0.14100
C 	C 	0.83530 0.36409 0.59410 0.13800
H 	H 	0.50700 0.30230 0.75920 0.18300
H 	H 	0.62040 0.32610 0.77150 0.19700
H 	H 	0.53060 0.33580 0.84790 0.19100
C 	C 	0.71460 0.42747 0.65600 -0.22900
C 	C 	0.72570 0.35843 0.60830 -0.22600
H 	H 	0.39240 0.34360 0.97120 0.20500
H 	H 	0.29490 0.34300 0.04260 0.21600
H 	H 	0.28760 0.31610 0.93940 0.21400
C 	C 	0.08650 0.43250 0.07250 -0.18400
C 	C 	0.27650 0.41660 0.12610 -0.15800
H 	H 	0.85330 0.45890 0.65720 -0.00900
H 	H 	0.87700 0.34210 0.57340 -0.00100
H 	H 	0.67390 0.44930 0.67930 0.10300
H 	H 	0.69400 0.33250 0.59910 0.09800
H 	H 	0.02640 0.43380 0.01970 0.07100
C 	C 	0.07410 0.44280 0.17500 0.09100
C 	C 	0.26290 0.42770 0.22810 0.08100
H 	H 	0.34510 0.40680 0.11040 0.07200
C 	C 	0.16350 0.43889 0.25560 -0.26400
H 	H 	0.00580 0.45250 0.19160 -0.01700
H 	H 	0.32430 0.42740 0.27970 -0.00600
C 	C 	0.14680 0.44925 0.36460 0.45200
C 	C 	0.20450 0.45990 0.09030 -0.17500
H 	H 	0.22480 0.48110 0.04710 0.07500
C 	C 	0.16530 0.39860 0.22580 0.10500
H 	H 	0.16060 0.37780 0.27540 -0.02900
C 	C 	0.18840 0.46810 0.19350 0.10600
H 	H 	0.19540 0.49490 0.21910 -0.01600
C 	C 	0.17400 0.38960 0.12370 -0.17400
H 	H 	0.16890 0.36230 0.10210 0.07400
Fe	Fe	0.75270 0.75000 0.72410 1.04800
Cl	Cl	0.85450 0.75000 0.90360 -0.51000
C 	C 	0.56930 0.75000 0.91350 -0.04400
H 	H 	0.51400 0.75000 0.96310 0.03000
H 	H 	0.64300 0.75000 0.95290 0.04500
Fe	Fe	0.24730 0.25000 0.27590 1.04100
Cl	Cl	0.14550 0.25000 0.09640 -0.53800
C 	C 	0.43070 0.25000 0.08650 -0.04300
H 	H 	0.48600 0.25000 0.03690 0.03500
H 	H 	0.35700 0.25000 0.04710 0.04500
Mn	Mn	0.00000 0.00000 0.50000 1.30000
Mn	Mn	0.00000 0.50000 0.50000 1.30400
