data_crystal

_cell_length_a 7.19920
_cell_length_b 18.95030
_cell_length_c 20.40430
_cell_angle_alpha 106.64800
_cell_angle_beta  90.00000
_cell_angle_gamma 90.00000

_symmetry_space_group_name_	'P 1'
_symmetry_space_group_name_H-M	'P 1'

loop_
_symmetry_equiv_pos_as_xyz
  x,y,z

loop_
_atom_site_label
_atom_site_type_symbol
_atom_site_fract_x
_atom_site_fract_y
_atom_site_fract_z
_atom_site_charge
Co	Co	0.66867 0.02618 0.47548 1.18500
Co	Co	0.66867 0.47382 0.02452 1.18500
Co	Co	0.33133 0.97382 0.52452 1.18400
Co	Co	0.33133 0.52618 0.97548 1.18400
H 	H 	0.98520 0.16970 0.58310 -0.01200
H 	H 	0.43850 0.25400 0.52080 0.01500
H 	H 	0.97140 0.41160 0.83420 -0.02400
H 	H 	0.85540 0.28580 0.61700 0.18800
H 	H 	0.31050 0.37090 0.55770 0.29500
H 	H 	0.49930 0.48170 0.76930 0.01500
H 	H 	0.09500 0.38970 0.72710 0.19400
H 	H 	0.14140 0.08890 0.36690 -0.05100
H 	H 	0.83040 0.26940 0.38990 0.05700
H 	H 	0.03070 0.30860 0.32140 0.31000
H 	H 	0.34250 0.13080 0.29860 0.27200
H 	H 	0.62750 0.46170 0.66200 0.30100
H 	H 	0.61970 0.17030 0.46880 0.31200
H 	H 	0.98520 0.33030 0.91690 -0.00900
H 	H 	0.43850 0.24600 0.97920 0.01700
H 	H 	0.97140 0.08840 0.66580 -0.02100
H 	H 	0.85540 0.21420 0.88300 0.18400
H 	H 	0.31050 0.12910 0.94230 0.29200
H 	H 	0.49930 0.01830 0.73070 0.01600
H 	H 	0.09500 0.11030 0.77290 0.18800
H 	H 	0.14140 0.41110 0.13310 -0.05100
H 	H 	0.83040 0.23060 0.11010 0.05700
H 	H 	0.03070 0.19140 0.17860 0.31000
H 	H 	0.34250 0.36920 0.20140 0.27300
H 	H 	0.62750 0.03830 0.83800 0.29900
H 	H 	0.61970 0.32970 0.03120 0.31300
H 	H 	0.01480 0.83030 0.41690 -0.01200
H 	H 	0.56150 0.74600 0.47920 0.01500
H 	H 	0.02860 0.58840 0.16580 -0.02400
H 	H 	0.14460 0.71420 0.38300 0.18800
H 	H 	0.68950 0.62910 0.44230 0.29500
H 	H 	0.50070 0.51830 0.23070 0.01500
H 	H 	0.90500 0.61030 0.27290 0.19400
H 	H 	0.85860 0.91110 0.63310 -0.05100
H 	H 	0.16960 0.73060 0.61010 0.05700
H 	H 	0.96930 0.69140 0.67860 0.31000
H 	H 	0.65750 0.86920 0.70140 0.27200
H 	H 	0.37250 0.53830 0.33800 0.30100
H 	H 	0.38030 0.82970 0.53120 0.31200
H 	H 	0.01480 0.66970 0.08310 -0.00900
H 	H 	0.56150 0.75400 0.02080 0.01700
H 	H 	0.02860 0.91160 0.33420 -0.02100
H 	H 	0.14460 0.78580 0.11700 0.18400
H 	H 	0.68950 0.87090 0.05770 0.29200
H 	H 	0.50070 0.98170 0.26930 0.01600
H 	H 	0.90500 0.88970 0.22710 0.18800
H 	H 	0.85860 0.58890 0.86690 -0.05100
H 	H 	0.16960 0.76940 0.88990 0.05700
H 	H 	0.96930 0.80860 0.82140 0.31000
H 	H 	0.65750 0.63080 0.79860 0.27300
H 	H 	0.37250 0.96170 0.16200 0.29900
H 	H 	0.38030 0.67030 0.96880 0.31300
C 	C 	0.63910 0.46311 0.88201 0.43800
C 	C 	0.31460 0.12620 0.53140 0.45500
C 	C 	0.05140 0.21001 0.57821 0.22000
C 	C 	0.23160 0.20100 0.55030 -0.25900
C 	C 	0.32220 0.26030 0.54150 0.26500
C 	C 	0.82760 0.14500 0.42330 0.53200
C 	C 	0.83990 0.41830 0.55650 1.02100
C 	C 	0.11360 0.48060 0.62570 1.02400
C 	C 	0.44770 0.31060 0.29550 0.98700
C 	C 	0.72160 0.44758 0.81218 -0.25700
C 	C 	0.90160 0.42120 0.79940 0.25400
C 	C 	0.97580 0.41577 0.61457 -0.56100
C 	C 	0.06880 0.34043 0.59163 0.43100
C 	C 	0.87530 0.42594 0.68324 0.44100
C 	C 	0.97430 0.27970 0.59840 -0.34200
C 	C 	0.24440 0.33060 0.56280 -0.35100
C 	C 	0.61950 0.46340 0.76080 0.26500
C 	C 	0.97600 0.40920 0.73580 -0.35400
C 	C 	0.11730 0.13300 0.35710 0.33800
C 	C 	0.96090 0.17410 0.38400 -0.29900
C 	C 	0.93180 0.24040 0.37070 0.37000
C 	C 	0.05110 0.26350 0.32960 -0.41600
C 	C 	0.20270 0.22140 0.29950 0.51800
C 	C 	0.23660 0.15800 0.31570 -0.41700
C 	C 	0.69720 0.45173 0.69673 -0.37000
C 	C 	0.63910 0.03689 0.61799 0.43700
C 	C 	0.31460 0.37380 0.96860 0.45200
C 	C 	0.05140 0.28999 0.92179 0.21100
C 	C 	0.23160 0.29900 0.94970 -0.25400
C 	C 	0.32220 0.23970 0.95850 0.25800
C 	C 	0.82760 0.35500 0.07670 0.53400
C 	C 	0.83990 0.08170 0.94350 1.01700
C 	C 	0.11360 0.01940 0.87430 1.01500
C 	C 	0.44770 0.18940 0.20450 0.98700
C 	C 	0.72160 0.05242 0.68782 -0.25200
C 	C 	0.90160 0.07880 0.70060 0.24700
C 	C 	0.97580 0.08423 0.88543 -0.55100
C 	C 	0.06880 0.15957 0.90837 0.41900
C 	C 	0.87530 0.07406 0.81676 0.43400
C 	C 	0.97430 0.22030 0.90160 -0.33100
C 	C 	0.24440 0.16940 0.93720 -0.34300
C 	C 	0.61950 0.03660 0.73920 0.26100
C 	C 	0.97600 0.09080 0.76420 -0.34300
C 	C 	0.11730 0.36700 0.14290 0.34300
C 	C 	0.96090 0.32590 0.11600 -0.30300
C 	C 	0.93180 0.25960 0.12930 0.37100
C 	C 	0.05110 0.23650 0.17040 -0.41600
C 	C 	0.20270 0.27860 0.20050 0.51900
C 	C 	0.23660 0.34200 0.18430 -0.41900
C 	C 	0.69720 0.04827 0.80327 -0.36400
C 	C 	0.36090 0.53689 0.11799 0.43800
C 	C 	0.68540 0.87380 0.46860 0.45500
C 	C 	0.94860 0.78999 0.42179 0.22000
C 	C 	0.76840 0.79900 0.44970 -0.25900
C 	C 	0.67780 0.73970 0.45850 0.26500
C 	C 	0.17240 0.85500 0.57670 0.53200
C 	C 	0.16010 0.58170 0.44350 1.02100
C 	C 	0.88640 0.51940 0.37430 1.02400
C 	C 	0.55230 0.68940 0.70450 0.98700
C 	C 	0.27840 0.55242 0.18782 -0.25700
C 	C 	0.09840 0.57880 0.20060 0.25400
C 	C 	0.02420 0.58423 0.38543 -0.56100
C 	C 	0.93120 0.65957 0.40837 0.43100
C 	C 	0.12470 0.57406 0.31676 0.44100
C 	C 	0.02570 0.72030 0.40160 -0.34200
C 	C 	0.75560 0.66940 0.43720 -0.35100
C 	C 	0.38050 0.53660 0.23920 0.26500
C 	C 	0.02400 0.59080 0.26420 -0.35400
C 	C 	0.88270 0.86700 0.64290 0.33800
C 	C 	0.03910 0.82590 0.61600 -0.29900
C 	C 	0.06820 0.75960 0.62930 0.37000
C 	C 	0.94890 0.73650 0.67040 -0.41600
C 	C 	0.79730 0.77860 0.70050 0.51800
C 	C 	0.76340 0.84200 0.68430 -0.41700
C 	C 	0.30280 0.54827 0.30327 -0.37000
C 	C 	0.36090 0.96311 0.38201 0.43700
C 	C 	0.68540 0.62620 0.03140 0.45200
C 	C 	0.94860 0.71001 0.07821 0.21100
C 	C 	0.76840 0.70100 0.05030 -0.25400
C 	C 	0.67780 0.76030 0.04150 0.25800
C 	C 	0.17240 0.64500 0.92330 0.53400
C 	C 	0.16010 0.91830 0.05650 1.01700
C 	C 	0.88640 0.98060 0.12570 1.01500
C 	C 	0.55230 0.81060 0.79550 0.98700
C 	C 	0.27840 0.94758 0.31218 -0.25200
C 	C 	0.09840 0.92120 0.29940 0.24700
C 	C 	0.02420 0.91577 0.11457 -0.55100
C 	C 	0.93120 0.84043 0.09163 0.41900
C 	C 	0.12470 0.92594 0.18324 0.43400
C 	C 	0.02570 0.77970 0.09840 -0.33100
C 	C 	0.75560 0.83060 0.06280 -0.34300
C 	C 	0.38050 0.96340 0.26080 0.26100
C 	C 	0.02400 0.90920 0.23580 -0.34300
C 	C 	0.88270 0.63300 0.85710 0.34300
C 	C 	0.03910 0.67410 0.88400 -0.30300
C 	C 	0.06820 0.74040 0.87070 0.37100
C 	C 	0.94890 0.76350 0.82960 -0.41600
C 	C 	0.79730 0.72140 0.79950 0.51900
C 	C 	0.76340 0.65800 0.81570 -0.41900
C 	C 	0.30280 0.95173 0.19673 -0.36400
C 	C 	0.32440 0.25000 0.25000 -0.59100
C 	C 	0.67560 0.75000 0.75000 -0.59100
O 	O 	0.73450 0.44594 0.92714 -0.45400
O 	O 	0.48440 0.49449 0.89179 -0.45200
O 	O 	0.47340 0.11728 0.50362 -0.45600
O 	O 	0.22680 0.07541 0.54324 -0.45100
O 	O 	0.68350 0.18713 0.44353 -0.47000
O 	O 	0.84750 0.08651 0.43569 -0.45100
O 	O 	0.73450 0.05406 0.57286 -0.45400
O 	O 	0.48440 0.00551 0.60821 -0.45300
O 	O 	0.47340 0.38272 0.99638 -0.45600
O 	O 	0.22680 0.42459 0.95676 -0.44900
O 	O 	0.68350 0.31287 0.05647 -0.47000
O 	O 	0.84750 0.41349 0.06431 -0.45300
O 	O 	0.26550 0.55406 0.07286 -0.45400
O 	O 	0.51560 0.50551 0.10821 -0.45200
O 	O 	0.52660 0.88272 0.49638 -0.45600
O 	O 	0.77320 0.92459 0.45676 -0.45100
O 	O 	0.31650 0.81287 0.55647 -0.47000
O 	O 	0.15250 0.91349 0.56431 -0.45100
O 	O 	0.26550 0.94594 0.42714 -0.45400
O 	O 	0.51560 0.99449 0.39179 -0.45300
O 	O 	0.52660 0.61728 0.00362 -0.45600
O 	O 	0.77320 0.57541 0.04324 -0.44900
O 	O 	0.31650 0.68713 0.94353 -0.47000
O 	O 	0.15250 0.58651 0.93569 -0.45300
F 	F 	0.70100 0.37194 0.55159 -0.50300
F 	F 	0.92490 0.40026 0.49645 -0.41100
F 	F 	0.76500 0.48416 0.56467 -0.38500
F 	F 	0.18470 0.48673 0.56777 -0.39100
F 	F 	0.25140 0.47458 0.66558 -0.51300
F 	F 	0.02970 0.54436 0.65618 -0.43300
F 	F 	0.35380 0.37103 0.32523 -0.44500
F 	F 	0.58850 0.33043 0.25998 -0.44300
F 	F 	0.52550 0.28896 0.34651 -0.43700
F 	F 	0.70100 0.12806 0.94841 -0.50300
F 	F 	0.92490 0.09974 0.00355 -0.40800
F 	F 	0.76500 0.01584 0.93533 -0.38400
F 	F 	0.18470 0.01327 0.93223 -0.39200
F 	F 	0.25140 0.02542 0.83442 -0.51200
F 	F 	0.02970 0.95564 0.84382 -0.42800
F 	F 	0.35380 0.12897 0.17477 -0.44500
F 	F 	0.58850 0.16957 0.24002 -0.44200
F 	F 	0.52550 0.21104 0.15349 -0.43600
F 	F 	0.29900 0.62806 0.44841 -0.50300
F 	F 	0.07510 0.59974 0.50355 -0.41100
F 	F 	0.23500 0.51584 0.43533 -0.38500
F 	F 	0.81530 0.51327 0.43223 -0.39100
F 	F 	0.74860 0.52542 0.33442 -0.51300
F 	F 	0.97030 0.45564 0.34382 -0.43300
F 	F 	0.64620 0.62897 0.67477 -0.44500
F 	F 	0.41150 0.66957 0.74002 -0.44300
F 	F 	0.47450 0.71104 0.65349 -0.43700
F 	F 	0.29900 0.87194 0.05159 -0.50300
F 	F 	0.07510 0.90026 0.99645 -0.40800
F 	F 	0.23500 0.98416 0.06467 -0.38400
F 	F 	0.81530 0.98673 0.06777 -0.39200
F 	F 	0.74860 0.97458 0.16558 -0.51200
F 	F 	0.97030 0.04436 0.15618 -0.42800
F 	F 	0.64620 0.87103 0.82523 -0.44500
F 	F 	0.41150 0.83043 0.75998 -0.44200
F 	F 	0.47450 0.78896 0.84651 -0.43600
