data_crystal

_cell_length_a 10.79900
_cell_length_b 10.79900
_cell_length_c 20.89700
_cell_angle_alpha 90.00000
_cell_angle_beta  90.00000
_cell_angle_gamma 90.00000

_symmetry_space_group_name_	'P 1'
_symmetry_space_group_name_H-M	'P 1'

loop_
_symmetry_equiv_pos_as_xyz
  x,y,z

loop_
_atom_site_label
_atom_site_type_symbol
_atom_site_fract_x
_atom_site_fract_y
_atom_site_fract_z
_atom_site_charge
O 	O 	0.53870 0.11940 0.64460 -0.54900
N 	N 	0.28970 0.05020 0.70780 -0.23100
C 	C 	0.98490 0.11650 0.66700 0.02900
N 	N 	0.97470 0.17440 0.62170 -0.17100
N 	N 	0.53650 0.11400 0.77870 -0.27700
C 	C 	0.19400 0.03020 0.72100 -0.03600
C 	C 	0.60880 0.21850 0.65380 0.46900
C 	C 	0.64330 0.26330 0.71160 -0.39500
H 	H 	0.71900 0.35100 0.70800 0.08400
C 	C 	0.65120 0.28050 0.59290 -0.92100
H 	H 	0.61800 0.23690 0.55670 0.27700
H 	H 	0.74000 0.27930 0.59090 0.26900
H 	H 	0.62260 0.36460 0.59230 0.27700
C 	C 	0.60190 0.21960 0.77150 0.30600
C 	C 	0.63360 0.29490 0.83080 -0.79800
H 	H 	0.60010 0.25480 0.86790 0.25100
H 	H 	0.59870 0.37630 0.82690 0.25000
H 	H 	0.72190 0.30110 0.83490 0.26000
C 	C 	0.49570 0.06050 0.83920 -0.40000
H 	H 	0.54590 0.09380 0.87370 0.09800
H 	H 	0.41040 0.08420 0.84710 0.10500
O 	O 	0.46130 0.88060 0.64460 -0.47800
N 	N 	0.71030 0.94980 0.70780 -0.21400
C 	C 	0.01510 0.88350 0.66700 0.00400
N 	N 	0.02530 0.82560 0.62170 -0.19500
N 	N 	0.46350 0.88600 0.77870 -0.32700
C 	C 	0.80600 0.96980 0.72100 0.12000
C 	C 	0.39120 0.78150 0.65380 0.47900
C 	C 	0.35670 0.73670 0.71160 -0.39500
H 	H 	0.28100 0.64900 0.70800 0.08600
C 	C 	0.34880 0.71950 0.59290 -0.92500
H 	H 	0.38200 0.76310 0.55670 0.29400
H 	H 	0.26000 0.72070 0.59090 0.27100
H 	H 	0.37740 0.63540 0.59230 0.27800
C 	C 	0.39810 0.78040 0.77150 0.36100
C 	C 	0.36640 0.70510 0.83080 -0.85700
H 	H 	0.39990 0.74520 0.86790 0.28100
H 	H 	0.40130 0.62370 0.82690 0.26500
H 	H 	0.27810 0.69890 0.83490 0.28600
C 	C 	0.50430 0.93950 0.83920 0.28900
H 	H 	0.45410 0.90620 0.87370 -0.06900
H 	H 	0.58960 0.91580 0.84710 -0.06600
O 	O 	0.88060 0.53870 0.14460 -0.48300
N 	N 	0.94980 0.28970 0.20780 -0.20700
C 	C 	0.88350 0.98490 0.16700 0.12100
N 	N 	0.82560 0.97470 0.12170 -0.16900
N 	N 	0.88600 0.53650 0.27870 -0.32900
C 	C 	0.96980 0.19400 0.22100 0.06000
C 	C 	0.78150 0.60880 0.15380 0.48400
C 	C 	0.73670 0.64330 0.21160 -0.39700
H 	H 	0.64900 0.71900 0.20800 0.08800
C 	C 	0.71950 0.65120 0.09290 -0.93500
H 	H 	0.76310 0.61800 0.05670 0.29200
H 	H 	0.72070 0.74000 0.09090 0.28300
H 	H 	0.63540 0.62260 0.09230 0.27900
C 	C 	0.78040 0.60190 0.27150 0.36400
C 	C 	0.70510 0.63360 0.33080 -0.86600
H 	H 	0.74520 0.60010 0.36790 0.28400
H 	H 	0.62370 0.59870 0.32690 0.26800
H 	H 	0.69890 0.72190 0.33490 0.29400
C 	C 	0.93950 0.49570 0.33920 0.29100
H 	H 	0.90620 0.54590 0.37370 -0.07300
H 	H 	0.91580 0.41040 0.34710 -0.07100
O 	O 	0.11940 0.46130 0.14460 -0.54400
N 	N 	0.05020 0.71030 0.20780 -0.23800
C 	C 	0.11650 0.01510 0.16700 -0.09100
N 	N 	0.17440 0.02530 0.12170 -0.20200
N 	N 	0.11400 0.46350 0.27870 -0.27500
C 	C 	0.03020 0.80600 0.22100 0.02400
C 	C 	0.21850 0.39120 0.15380 0.44900
C 	C 	0.26330 0.35670 0.21160 -0.38400
H 	H 	0.35100 0.28100 0.20800 0.08000
C 	C 	0.28050 0.34880 0.09290 -0.87300
H 	H 	0.23690 0.38200 0.05670 0.25400
H 	H 	0.27930 0.26000 0.09090 0.24000
H 	H 	0.36460 0.37740 0.09230 0.25900
C 	C 	0.21960 0.39810 0.27150 0.29500
C 	C 	0.29490 0.36640 0.33080 -0.76700
H 	H 	0.25480 0.39990 0.36790 0.23500
H 	H 	0.37630 0.40130 0.32690 0.23900
H 	H 	0.30110 0.27810 0.33490 0.24200
C 	C 	0.06050 0.50430 0.33920 -0.40100
H 	H 	0.09380 0.45410 0.37370 0.09300
H 	H 	0.08420 0.58960 0.34710 0.10500
O 	O 	0.46130 0.88060 0.35540 -0.47800
N 	N 	0.71030 0.94980 0.29220 -0.21400
C 	C 	0.01510 0.88350 0.33300 0.00500
N 	N 	0.02530 0.82560 0.37830 -0.19500
N 	N 	0.46350 0.88600 0.22130 -0.32700
C 	C 	0.80600 0.96980 0.27900 0.12000
C 	C 	0.39120 0.78150 0.34620 0.47800
C 	C 	0.35670 0.73670 0.28840 -0.39300
H 	H 	0.28100 0.64900 0.29200 0.08600
C 	C 	0.34880 0.71950 0.40710 -0.92400
H 	H 	0.38200 0.76310 0.44330 0.29400
H 	H 	0.26000 0.72070 0.40910 0.27000
H 	H 	0.37740 0.63540 0.40770 0.27800
C 	C 	0.39810 0.78040 0.22850 0.35700
C 	C 	0.36640 0.70510 0.16920 -0.84300
H 	H 	0.39990 0.74520 0.13210 0.27200
H 	H 	0.40130 0.62370 0.17310 0.26000
H 	H 	0.27810 0.69890 0.16510 0.27900
C 	C 	0.50430 0.93950 0.16080 0.28900
H 	H 	0.45410 0.90620 0.12630 -0.07500
H 	H 	0.58960 0.91580 0.15290 -0.06900
O 	O 	0.53870 0.11940 0.35540 -0.54700
N 	N 	0.28970 0.05020 0.29220 -0.23000
C 	C 	0.98490 0.11650 0.33300 0.02900
N 	N 	0.97470 0.17440 0.37830 -0.17100
N 	N 	0.53650 0.11400 0.22130 -0.27700
C 	C 	0.19400 0.03020 0.27900 -0.03600
C 	C 	0.60880 0.21850 0.34620 0.46800
C 	C 	0.64330 0.26330 0.28840 -0.39300
H 	H 	0.71900 0.35100 0.29200 0.08400
C 	C 	0.65120 0.28050 0.40710 -0.92000
H 	H 	0.61800 0.23690 0.44330 0.27600
H 	H 	0.74000 0.27930 0.40910 0.26900
H 	H 	0.62260 0.36460 0.40770 0.27700
C 	C 	0.60190 0.21960 0.22850 0.30200
C 	C 	0.63360 0.29490 0.16920 -0.78400
H 	H 	0.60010 0.25480 0.13210 0.24200
H 	H 	0.59870 0.37630 0.17310 0.24400
H 	H 	0.72190 0.30110 0.16510 0.25300
C 	C 	0.49570 0.06050 0.16080 -0.39800
H 	H 	0.54590 0.09380 0.12630 0.09300
H 	H 	0.41040 0.08420 0.15290 0.10300
O 	O 	0.11940 0.46130 0.85540 -0.54300
N 	N 	0.05020 0.71030 0.79220 -0.23700
C 	C 	0.11650 0.01510 0.83300 -0.08900
N 	N 	0.17440 0.02530 0.87830 -0.19500
N 	N 	0.11400 0.46350 0.72130 -0.27500
C 	C 	0.03020 0.80600 0.77900 0.02600
C 	C 	0.21850 0.39120 0.84620 0.46400
C 	C 	0.26330 0.35670 0.78840 -0.39100
H 	H 	0.35100 0.28100 0.79200 0.08200
C 	C 	0.28050 0.34880 0.90710 -0.91700
H 	H 	0.23690 0.38200 0.94330 0.28200
H 	H 	0.27930 0.26000 0.90910 0.26000
H 	H 	0.36460 0.37740 0.90770 0.27900
C 	C 	0.21960 0.39810 0.72850 0.29800
C 	C 	0.29490 0.36640 0.66920 -0.77000
H 	H 	0.25480 0.39990 0.63210 0.23500
H 	H 	0.37630 0.40130 0.67310 0.24000
H 	H 	0.30110 0.27810 0.66510 0.24300
C 	C 	0.06050 0.50430 0.66080 -0.40100
H 	H 	0.09380 0.45410 0.62630 0.09300
H 	H 	0.08420 0.58960 0.65290 0.10500
O 	O 	0.88060 0.53870 0.85540 -0.48100
N 	N 	0.94980 0.28970 0.79220 -0.20600
C 	C 	0.88350 0.98490 0.83300 0.12400
N 	N 	0.82560 0.97470 0.87830 -0.16300
N 	N 	0.88600 0.53650 0.72130 -0.32900
C 	C 	0.96980 0.19400 0.77900 0.06200
C 	C 	0.78150 0.60880 0.84620 0.50000
C 	C 	0.73670 0.64330 0.78840 -0.40400
H 	H 	0.64900 0.71900 0.79200 0.08900
C 	C 	0.71950 0.65120 0.90710 -0.97900
H 	H 	0.76310 0.61800 0.94330 0.32000
H 	H 	0.72070 0.74000 0.90910 0.30400
H 	H 	0.63540 0.62260 0.90770 0.29900
C 	C 	0.78040 0.60190 0.72850 0.36700
C 	C 	0.70510 0.63360 0.66920 -0.86900
H 	H 	0.74520 0.60010 0.63210 0.28500
H 	H 	0.62370 0.59870 0.67310 0.26900
H 	H 	0.69890 0.72190 0.66510 0.29500
C 	C 	0.93950 0.49570 0.66080 0.29200
H 	H 	0.90620 0.54590 0.62630 -0.07400
H 	H 	0.91580 0.41040 0.65290 -0.07100
W 	W 	-0.00000 0.00000 0.75000 0.12400
W 	W 	0.00000 0.00000 0.25000 0.12400
Mn	Mn	0.50000 0.00000 0.70668 1.28400
Mn	Mn	0.00000 0.50000 0.20668 1.28400
Mn	Mn	0.50000 0.00000 0.29332 1.28400
Mn	Mn	0.00000 0.50000 0.79332 1.28400
O 	O 	0.83500 0.52500 0.50000 -0.29500
K 	K 	0.97030 0.29930 0.50000 0.63400
O 	O 	0.16500 0.47500 0.50000 -0.36200
K 	K 	0.02970 0.70070 0.50000 0.61000
O 	O 	0.47500 0.83500 -0.00000 -0.31200
K 	K 	0.70070 0.97030 -0.00000 0.63700
O 	O 	0.52500 0.16500 -0.00000 -0.37000
K 	K 	0.29930 0.02970 -0.00000 0.59800
