data_crystal

_cell_length_a 10.19200
_cell_length_b 11.61100
_cell_length_c 16.84800
_cell_angle_alpha 110.04000
_cell_angle_beta  97.66000
_cell_angle_gamma 92.04000

_symmetry_space_group_name_	'P 1'
_symmetry_space_group_name_H-M	'P 1'

loop_
_symmetry_equiv_pos_as_xyz
  x,y,z

loop_
_atom_site_label
_atom_site_type_symbol
_atom_site_fract_x
_atom_site_fract_y
_atom_site_fract_z
_atom_site_charge
Cd	Cd	0.47790 0.52750 0.86884 1.19300
Cd	Cd	0.55435 0.96901 0.25420 1.18600
Cd	Cd	0.44790 0.43226 0.58961 1.22400
C 	C 	0.81000 0.44830 0.72050 -0.09800
C 	C 	0.83500 0.36070 0.64500 0.00800
H 	H 	0.76340 0.30530 0.61170 0.01800
C 	C 	0.95100 0.34850 0.61550 -0.05100
H 	H 	0.96050 0.28560 0.56510 0.05400
C 	C 	0.06600 0.43950 0.66660 -0.04900
C 	C 	0.04600 0.53110 0.74020 -0.03100
H 	H 	0.11530 0.59020 0.77220 0.04300
C 	C 	0.92400 0.53500 0.76620 -0.00100
H 	H 	0.91370 0.59740 0.81660 0.04400
C 	C 	0.68000 0.45500 0.75090 0.33600
C 	C 	0.19700 0.42800 0.64140 0.27900
C 	C 	0.11300 0.33560 0.86390 -0.02100
C 	C 	0.04900 0.35300 0.93500 -0.06700
H 	H 	0.08220 0.41450 0.98670 0.06700
C 	C 	0.93900 0.28030 0.92880 0.02900
H 	H 	0.90300 0.29130 0.97850 0.03500
C 	C 	0.87700 0.19280 0.85620 -0.10400
C 	C 	0.94600 0.18070 0.78080 0.01600
H 	H 	0.90720 0.12580 0.72750 0.03300
C 	C 	0.06100 0.24480 0.78610 -0.06300
H 	H 	0.10510 0.22890 0.73900 0.06200
C 	C 	0.24500 0.41240 0.86610 0.30000
C 	C 	0.75800 0.12400 0.84810 0.31100
C 	C 	0.98050 0.15610 0.29500 -0.01000
C 	C 	0.08690 0.14440 0.24990 -0.08100
H 	H 	0.08110 0.08390 0.19610 0.07700
C 	C 	0.20210 0.22320 0.28520 0.03500
H 	H 	0.27330 0.21540 0.25500 0.01400
C 	C 	0.21080 0.31370 0.36560 -0.12400
C 	C 	0.10430 0.32540 0.41070 0.02200
H 	H 	0.11020 0.38590 0.46450 0.03400
C 	C 	0.98920 0.24660 0.37540 -0.06600
H 	H 	0.91800 0.25440 0.40560 0.05800
C 	C 	0.83300 0.07830 0.25350 0.34800
C 	C 	0.33000 0.40690 0.40070 0.38700
C 	C 	0.65200 0.77830 0.99750 0.23000
C 	C 	0.51000 0.71930 0.07030 0.16900
C 	C 	0.54900 0.20110 0.43630 0.18600
C 	C 	0.39800 0.05340 0.42590 0.22400
O 	O 	0.67800 0.53200 0.82520 -0.43300
O 	O 	0.57900 0.38540 0.70580 -0.44300
O 	O 	0.28100 0.52470 0.66010 -0.39500
O 	O 	0.22700 0.32390 0.59560 -0.34100
O 	O 	0.28300 0.50190 0.93260 -0.39700
O 	O 	0.30100 0.38670 0.80170 -0.42400
O 	O 	0.65880 0.11320 0.77970 -0.40500
O 	O 	0.74400 0.07750 0.90140 -0.29200
O 	O 	0.77100 0.06160 0.29910 -0.47500
O 	O 	0.83600 0.04300 0.17020 -0.29600
O 	O 	0.41400 0.39530 0.35320 -0.45500
O 	O 	0.34180 0.48150 0.47300 -0.48400
N 	N 	0.58300 0.82290 0.12280 -0.21300
N 	N 	0.66600 0.85640 0.07360 -0.22100
H 	H 	0.72000 0.92190 0.09220 0.14300
N 	N 	0.55900 0.68610 0.98950 -0.28800
N 	N 	0.71800 0.78340 0.93490 -0.35100
H 	H 	0.77690 0.84370 0.94430 0.17100
H 	H 	0.70250 0.72630 0.88530 0.15200
N 	N 	0.42900 0.64810 0.08960 -0.35200
H 	H 	0.41700 0.66490 0.14180 0.10500
H 	H 	0.38710 0.58400 0.05020 0.10900
N 	N 	0.47800 0.24570 0.50300 -0.22100
N 	N 	0.38800 0.14640 0.49110 -0.21100
H 	H 	0.33120 0.14780 0.52480 0.11600
N 	N 	0.50000 0.08180 0.38550 -0.28200
N 	N 	0.65100 0.26050 0.42300 -0.34600
H 	H 	0.67920 0.33350 0.45760 0.16000
H 	H 	0.69030 0.22620 0.37960 0.14900
N 	N 	0.32800 0.94640 0.40300 -0.34700
H 	H 	0.27050 0.93550 0.43330 0.15700
H 	H 	0.34020 0.88730 0.35780 0.15400
Cd	Cd	0.52210 0.47250 0.13116 1.19300
Cd	Cd	0.44565 0.03099 0.74580 1.18600
Cd	Cd	0.55210 0.56774 0.41039 1.22400
C 	C 	0.19000 0.55170 0.27950 -0.09800
C 	C 	0.16500 0.63930 0.35500 0.00800
H 	H 	0.23660 0.69470 0.38830 0.01800
C 	C 	0.04900 0.65150 0.38450 -0.05100
H 	H 	0.03950 0.71440 0.43490 0.05400
C 	C 	0.93400 0.56050 0.33340 -0.04900
C 	C 	0.95400 0.46890 0.25980 -0.03100
H 	H 	0.88470 0.40980 0.22780 0.04300
C 	C 	0.07600 0.46500 0.23380 -0.00100
H 	H 	0.08630 0.40260 0.18340 0.04400
C 	C 	0.32000 0.54500 0.24910 0.33600
C 	C 	0.80300 0.57200 0.35860 0.27900
C 	C 	0.88700 0.66440 0.13610 -0.02100
C 	C 	0.95100 0.64700 0.06500 -0.06700
H 	H 	0.91780 0.58550 0.01330 0.06700
C 	C 	0.06100 0.71970 0.07120 0.02900
H 	H 	0.09700 0.70870 0.02150 0.03500
C 	C 	0.12300 0.80720 0.14380 -0.10400
C 	C 	0.05400 0.81930 0.21920 0.01600
H 	H 	0.09280 0.87420 0.27250 0.03300
C 	C 	0.93900 0.75520 0.21390 -0.06300
H 	H 	0.89490 0.77110 0.26100 0.06200
C 	C 	0.75500 0.58760 0.13390 0.30000
C 	C 	0.24200 0.87600 0.15190 0.31100
C 	C 	0.01950 0.84390 0.70500 -0.01000
C 	C 	0.91310 0.85560 0.75010 -0.08100
H 	H 	0.91890 0.91610 0.80390 0.07700
C 	C 	0.79790 0.77680 0.71480 0.03500
H 	H 	0.72670 0.78460 0.74500 0.01400
C 	C 	0.78920 0.68630 0.63440 -0.12400
C 	C 	0.89570 0.67460 0.58930 0.02200
H 	H 	0.88980 0.61410 0.53550 0.03400
C 	C 	0.01080 0.75340 0.62460 -0.06600
H 	H 	0.08200 0.74560 0.59440 0.05800
C 	C 	0.16700 0.92170 0.74650 0.34800
C 	C 	0.67000 0.59310 0.59930 0.38700
C 	C 	0.34800 0.22170 0.00250 0.23000
C 	C 	0.49000 0.28070 0.92970 0.16900
C 	C 	0.45100 0.79890 0.56370 0.18600
C 	C 	0.60200 0.94660 0.57410 0.22400
O 	O 	0.32200 0.46800 0.17480 -0.43300
O 	O 	0.42100 0.61460 0.29420 -0.44300
O 	O 	0.71900 0.47530 0.33990 -0.39500
O 	O 	0.77300 0.67610 0.40440 -0.34100
O 	O 	0.71700 0.49810 0.06740 -0.39700
O 	O 	0.69900 0.61330 0.19830 -0.42400
O 	O 	0.34120 0.88680 0.22030 -0.40500
O 	O 	0.25600 0.92250 0.09860 -0.29200
O 	O 	0.22900 0.93840 0.70090 -0.47500
O 	O 	0.16400 0.95700 0.82980 -0.29600
O 	O 	0.58600 0.60470 0.64680 -0.45500
O 	O 	0.65820 0.51850 0.52700 -0.48400
N 	N 	0.41700 0.17710 0.87720 -0.21300
N 	N 	0.33400 0.14360 0.92640 -0.22100
H 	H 	0.28000 0.07810 0.90780 0.14300
N 	N 	0.44100 0.31390 0.01050 -0.28800
N 	N 	0.28200 0.21660 0.06510 -0.35100
H 	H 	0.22310 0.15630 0.05570 0.17100
H 	H 	0.29750 0.27370 0.11470 0.15200
N 	N 	0.57100 0.35190 0.91040 -0.35200
H 	H 	0.58300 0.33510 0.85820 0.10500
H 	H 	0.61290 0.41600 0.94980 0.10900
N 	N 	0.52200 0.75430 0.49700 -0.22100
N 	N 	0.61200 0.85360 0.50890 -0.21100
H 	H 	0.66880 0.85220 0.47520 0.11600
N 	N 	0.50000 0.91820 0.61450 -0.28200
N 	N 	0.34900 0.73950 0.57700 -0.34600
H 	H 	0.32080 0.66650 0.54240 0.16000
H 	H 	0.30970 0.77380 0.62040 0.14900
N 	N 	0.67200 0.05360 0.59700 -0.34700
H 	H 	0.72950 0.06450 0.56670 0.15700
H 	H 	0.65980 0.11270 0.64220 0.15400
