data_crystal

_cell_length_a 12.54700
_cell_length_b 12.50200
_cell_length_c 8.20100
_cell_angle_alpha 75.93000
_cell_angle_beta  82.21000
_cell_angle_gamma 76.05000

_symmetry_space_group_name_	'P 1'
_symmetry_space_group_name_H-M	'P 1'

loop_
_symmetry_equiv_pos_as_xyz
  x,y,z

loop_
_atom_site_label
_atom_site_type_symbol
_atom_site_fract_x
_atom_site_fract_y
_atom_site_fract_z
_atom_site_charge
Cu	Cu	0.37121 0.49041 0.16700 0.81000
Cu	Cu	0.21895 0.33830 0.27180 0.82200
Cu	Cu	0.39090 0.19992 0.15100 0.75100
Cu	Cu	0.51130 0.66440 0.99770 0.55000
Cu	Cu	0.53030 0.67090 0.10120 0.49500
Cu	Cu	0.44037 0.15385 0.50840 0.80800
Cu	Cu	0.50579 0.91292 0.16330 0.79400
Cu	Cu	0.31959 0.26841 0.76280 0.74000
Cu	Cu	0.41683 0.41641 0.58220 0.80600
Cu	Cu	0.11020 0.43120 0.57240 0.87400
Cl	Cl	0.54540 0.08300 0.28970 -0.77800
Cl	Cl	0.34740 0.68470 0.07180 -0.70900
Cl	Cl	0.35280 0.05080 0.04560 -0.74600
Cl	Cl	0.53350 0.44640 0.29850 -0.87300
Cl	Cl	0.14210 0.29850 0.81860 -0.62900
Cl	Cl	0.26460 0.16610 0.45010 -0.73300
Cl	Cl	0.03530 0.39860 0.34810 -0.64200
Cl	Cl	0.25390 0.52050 0.47040 -0.76100
O 	O 	0.11270 0.61010 0.04310 -0.13900
O 	O 	0.74590 0.19510 0.62480 -0.15900
C 	C 	0.33700 0.36290 0.06690 -0.84200
C 	C 	0.25810 0.44730 0.05090 -0.02500
C 	C 	0.17360 0.53530 0.95600 -0.10500
C 	C 	0.46970 0.24900 0.67300 -0.80000
C 	C 	0.55650 0.18760 0.62370 -0.05900
C 	C 	0.67620 0.16820 0.54990 -0.07300
H 	H 	0.21400 0.58100 0.85200 0.09100
H 	H 	0.12400 0.50100 0.90800 0.09000
H 	H 	0.69900 0.08700 0.54200 0.09600
H 	H 	0.67400 0.21500 0.42700 0.09500
H 	H 	0.68700 0.23000 0.70500 0.14800
H 	H 	0.09800 0.61000 0.19200 0.10200
Cu	Cu	0.62879 0.50959 0.83300 0.81100
Cu	Cu	0.78105 0.66170 0.72820 0.82300
Cu	Cu	0.60910 0.80008 0.84900 0.75100
Cu	Cu	0.48870 0.33560 0.00230 0.55000
Cu	Cu	0.46970 0.32910 0.89880 0.49500
Cu	Cu	0.55963 0.84615 0.49160 0.80800
Cu	Cu	0.49421 0.08708 0.83670 0.79400
Cu	Cu	0.68041 0.73159 0.23720 0.74000
Cu	Cu	0.58317 0.58359 0.41780 0.80600
Cu	Cu	0.88980 0.56880 0.42760 0.87400
Cl	Cl	0.45460 0.91700 0.71030 -0.77800
Cl	Cl	0.65260 0.31530 0.92820 -0.70900
Cl	Cl	0.64720 0.94920 0.95440 -0.74600
Cl	Cl	0.46650 0.55360 0.70150 -0.87300
Cl	Cl	0.85790 0.70150 0.18140 -0.62900
Cl	Cl	0.73540 0.83390 0.54990 -0.73300
Cl	Cl	0.96470 0.60140 0.65190 -0.64200
Cl	Cl	0.74610 0.47950 0.52960 -0.76100
O 	O 	0.88730 0.38990 0.95690 -0.13900
O 	O 	0.25410 0.80490 0.37520 -0.15900
C 	C 	0.66300 0.63710 0.93310 -0.84200
C 	C 	0.74190 0.55270 0.94910 -0.02500
C 	C 	0.82640 0.46470 0.04400 -0.10500
C 	C 	0.53030 0.75100 0.32700 -0.80000
C 	C 	0.44350 0.81240 0.37630 -0.05900
C 	C 	0.32380 0.83180 0.45010 -0.07300
H 	H 	0.78600 0.41900 0.14800 0.09100
H 	H 	0.87600 0.49900 0.09200 0.09000
H 	H 	0.30100 0.91300 0.45800 0.09600
H 	H 	0.32600 0.78500 0.57300 0.09500
H 	H 	0.31300 0.77000 0.29500 0.14800
H 	H 	0.90200 0.39000 0.80800 0.10200
