data_crystal

_cell_length_a 10.64000
_cell_length_b 11.23900
_cell_length_c 15.23200
_cell_angle_alpha 99.35100
_cell_angle_beta  99.51100
_cell_angle_gamma 92.48200

_symmetry_space_group_name_	'P 1'
_symmetry_space_group_name_H-M	'P 1'

loop_
_symmetry_equiv_pos_as_xyz
  x,y,z

loop_
_atom_site_label
_atom_site_type_symbol
_atom_site_fract_x
_atom_site_fract_y
_atom_site_fract_z
_atom_site_charge
Tb	Tb	0.60297 0.23768 0.13181 1.77300
Tb	Tb	0.70995 0.30690 0.40564 1.76600
O 	O 	0.63200 0.44530 0.19300 -0.49800
O 	O 	0.64420 0.47930 0.34210 -0.48200
O 	O 	0.70370 0.38220 0.56020 -0.42700
O 	O 	0.69070 0.10280 0.34240 -0.49600
O 	O 	0.66230 0.06530 0.19190 -0.49700
O 	O 	0.81620 0.29660 0.28160 -0.54800
C 	C 	0.64230 0.51410 0.26910 0.47200
O 	O 	0.48370 0.30210 0.39780 -0.45400
C 	C 	0.43250 0.27520 0.31480 0.46000
O 	O 	0.49950 0.25290 0.25460 -0.55400
C 	C 	0.29010 0.27320 0.29140 -0.18200
C 	C 	0.22910 0.23980 0.20220 -0.05800
H 	H 	0.27800 0.21710 0.15770 0.04800
C 	C 	0.09770 0.23930 0.17730 0.23400
C 	C 	0.21480 0.30710 0.35760 0.25100
C 	C 	0.08600 0.30810 0.33330 -0.08500
H 	H 	0.03770 0.33340 0.37760 0.04300
O 	O 	0.26760 0.34060 0.44690 -0.45400
H 	H 	0.34510 0.33600 0.45320 0.29900
C 	C 	0.67810 0.28120 0.58220 0.32800
C 	C 	0.67510 0.27360 0.67840 -0.11500
C 	C 	0.69830 0.37910 0.74300 -0.11500
H 	H 	0.71580 0.45260 0.72540 0.10300
C 	C 	0.69560 0.37520 0.83300 0.24000
C 	C 	0.67050 0.26450 0.85960 -0.13500
C 	C 	0.64990 0.15930 0.79530 -0.09000
H 	H 	0.63450 0.08550 0.81320 0.08600
C 	C 	0.65180 0.16290 0.70590 0.21800
O 	O 	0.63080 0.05420 0.64650 -0.42000
H 	H 	0.62380 0.06710 0.59450 0.28300
C 	C 	0.65470 0.25980 0.95420 0.35300
O 	O 	0.72020 0.48150 0.89410 -0.43400
H 	H 	0.73630 0.46630 0.94540 0.29300
O 	O 	0.65590 0.18660 0.52310 -0.39300
C 	C 	0.88160 0.26950 0.22140 0.44800
C 	C 	0.02370 0.27250 0.24400 -0.17300
O 	O 	0.04500 0.20460 0.08810 -0.41600
H 	H 	0.96730 0.19290 0.08320 0.28300
O 	O 	0.82950 0.23840 0.13920 -0.45400
C 	C 	0.67620 0.03080 0.26730 0.47900
C 	C 	0.67380 0.90020 0.27050 -0.18400
C 	C 	0.65970 0.81720 0.18860 -0.08000
H 	H 	0.65840 0.84640 0.13480 0.07600
C 	C 	0.64800 0.69450 0.18650 0.23400
C 	C 	0.67970 0.85450 0.35080 0.25800
O 	O 	0.69290 0.92570 0.43300 -0.42600
H 	H 	0.65110 0.98480 0.42900 0.27900
C 	C 	0.66770 0.73000 0.34850 -0.10400
H 	H 	0.67010 0.70110 0.40250 0.10300
C 	C 	0.65250 0.64740 0.26830 -0.16200
O 	O 	0.63530 0.61940 0.10490 -0.44200
H 	H 	0.63550 0.54900 0.11280 0.29100
O 	O 	0.67500 0.35670 0.01260 -0.37800
O 	O 	0.61960 0.16290 0.97700 -0.44300
Tb	Tb	0.39703 0.76232 0.86819 1.77200
Tb	Tb	0.29005 0.69310 0.59436 1.76500
O 	O 	0.36800 0.55470 0.80700 -0.49900
O 	O 	0.35580 0.52070 0.65790 -0.48300
O 	O 	0.29630 0.61780 0.43980 -0.42700
O 	O 	0.30930 0.89720 0.65760 -0.49600
O 	O 	0.33770 0.93470 0.80810 -0.49700
O 	O 	0.18380 0.70340 0.71840 -0.54800
C 	C 	0.35770 0.48590 0.73090 0.47200
O 	O 	0.51630 0.69790 0.60220 -0.45400
C 	C 	0.56750 0.72480 0.68520 0.46000
O 	O 	0.50050 0.74710 0.74540 -0.55400
C 	C 	0.70990 0.72680 0.70860 -0.18200
C 	C 	0.77090 0.76020 0.79780 -0.05800
H 	H 	0.72200 0.78290 0.84230 0.04800
C 	C 	0.90230 0.76070 0.82270 0.23400
C 	C 	0.78520 0.69290 0.64240 0.25100
C 	C 	0.91400 0.69190 0.66670 -0.08500
H 	H 	0.96230 0.66660 0.62240 0.04300
O 	O 	0.73240 0.65940 0.55310 -0.45400
H 	H 	0.65490 0.66400 0.54680 0.29900
C 	C 	0.32190 0.71880 0.41780 0.32800
C 	C 	0.32490 0.72640 0.32160 -0.11500
C 	C 	0.30170 0.62090 0.25700 -0.11500
H 	H 	0.28420 0.54740 0.27460 0.10300
C 	C 	0.30440 0.62480 0.16700 0.24000
C 	C 	0.32950 0.73550 0.14040 -0.13500
C 	C 	0.35010 0.84070 0.20470 -0.09000
H 	H 	0.36550 0.91450 0.18680 0.08600
C 	C 	0.34820 0.83710 0.29410 0.21800
O 	O 	0.36920 0.94580 0.35350 -0.42000
H 	H 	0.37620 0.93290 0.40550 0.28300
C 	C 	0.34530 0.74020 0.04580 0.35300
O 	O 	0.27980 0.51850 0.10590 -0.43400
H 	H 	0.26370 0.53370 0.05460 0.29300
O 	O 	0.34410 0.81340 0.47690 -0.39300
C 	C 	0.11840 0.73050 0.77860 0.44800
C 	C 	0.97630 0.72750 0.75600 -0.17300
O 	O 	0.95500 0.79540 0.91190 -0.41600
H 	H 	0.03270 0.80710 0.91680 0.28300
O 	O 	0.17050 0.76160 0.86080 -0.45400
C 	C 	0.32380 0.96920 0.73270 0.47900
C 	C 	0.32620 0.09980 0.72950 -0.18400
C 	C 	0.34030 0.18280 0.81140 -0.08000
H 	H 	0.34160 0.15360 0.86520 0.07600
C 	C 	0.35200 0.30550 0.81350 0.23400
C 	C 	0.32030 0.14550 0.64920 0.25800
O 	O 	0.30710 0.07430 0.56700 -0.42600
H 	H 	0.34890 0.01520 0.57100 0.27900
C 	C 	0.33230 0.27000 0.65150 -0.10400
H 	H 	0.32990 0.29890 0.59750 0.10300
C 	C 	0.34750 0.35260 0.73170 -0.16200
O 	O 	0.36470 0.38060 0.89510 -0.44200
H 	H 	0.36450 0.45100 0.88720 0.29100
O 	O 	0.32500 0.64330 0.98740 -0.37800
O 	O 	0.38040 0.83710 0.02300 -0.44300
