data_crystal

_cell_length_a 22.42610
_cell_length_b 22.42610
_cell_length_c 22.42610
_cell_angle_alpha 92.82450
_cell_angle_beta  118.38300
_cell_angle_gamma 118.38300

_symmetry_space_group_name_	'P 1'
_symmetry_space_group_name_H-M	'P 1'

loop_
_symmetry_equiv_pos_as_xyz
  x,y,z

loop_
_atom_site_label
_atom_site_type_symbol
_atom_site_fract_x
_atom_site_fract_y
_atom_site_fract_z
_atom_site_charge
Cu	Cu	0.42580 0.97992 0.97992 0.90400
Cu	Cu	0.57420 0.55412 0.55412 0.91700
Cu	Cu	0.00000 0.97992 0.55412 0.87000
Cu	Cu	-0.00000 0.55412 0.97992 0.87000
Cu	Cu	-0.00000 0.44588 0.02008 0.87800
Cu	Cu	-0.00000 0.02008 0.44588 0.87800
Cu	Cu	0.42580 0.44588 0.44588 0.91300
Cu	Cu	0.57420 0.02008 0.02008 0.92000
H 	H 	0.51740 0.95680 0.81140 0.03800
H 	H 	0.48440 0.93180 0.69360 0.07900
H 	H 	0.33730 0.97930 0.76300 0.04400
H 	H 	0.48260 0.29400 0.43940 0.03500
H 	H 	0.51560 0.20920 0.44740 0.07900
H 	H 	0.66270 0.42570 0.64200 0.05300
H 	H 	0.85460 0.81140 0.29400 0.05200
H 	H 	0.76180 0.69360 0.20920 0.08500
H 	H 	0.78370 0.76300 0.42570 0.05600
H 	H 	0.14540 0.43940 0.95680 0.02200
H 	H 	0.23820 0.44740 0.93180 0.07300
H 	H 	0.21630 0.64200 0.97930 0.04200
H 	H 	0.14540 0.70600 0.18860 0.02400
H 	H 	0.23820 0.79080 0.30640 0.07400
H 	H 	0.21630 0.57430 0.23700 0.04300
H 	H 	0.85460 0.04320 0.56060 0.05300
H 	H 	0.76180 0.06820 0.55260 0.08600
H 	H 	0.78370 0.02070 0.35800 0.05700
H 	H 	0.51740 0.56060 0.70600 0.03900
H 	H 	0.48440 0.55260 0.79080 0.08000
H 	H 	0.33730 0.35800 0.57430 0.04600
H 	H 	0.48260 0.18860 0.04320 0.03600
H 	H 	0.51560 0.30640 0.06820 0.08000
H 	H 	0.66270 0.23700 0.02070 0.05400
H 	H 	0.48260 0.04320 0.18860 0.03600
H 	H 	0.51560 0.06820 0.30640 0.08000
H 	H 	0.66270 0.02070 0.23700 0.05400
H 	H 	0.51740 0.70600 0.56060 0.03900
H 	H 	0.48440 0.79080 0.55260 0.08000
H 	H 	0.33730 0.57430 0.35800 0.04600
H 	H 	0.14540 0.18860 0.70600 0.02400
H 	H 	0.23820 0.30640 0.79080 0.07400
H 	H 	0.21630 0.23700 0.57430 0.04300
H 	H 	0.85460 0.56060 0.04320 0.05300
H 	H 	0.76180 0.55260 0.06820 0.08600
H 	H 	0.78370 0.35800 0.02070 0.05700
H 	H 	0.85460 0.29400 0.81140 0.05200
H 	H 	0.76180 0.20920 0.69360 0.08500
H 	H 	0.78370 0.42570 0.76300 0.05600
H 	H 	0.14540 0.95680 0.43940 0.02200
H 	H 	0.23820 0.93180 0.44740 0.07300
H 	H 	0.21630 0.97930 0.64200 0.04200
H 	H 	0.48260 0.43940 0.29400 0.03500
H 	H 	0.51560 0.44740 0.20920 0.07900
H 	H 	0.66270 0.64200 0.42570 0.05300
H 	H 	0.51740 0.81140 0.95680 0.03800
H 	H 	0.48440 0.69360 0.93180 0.07900
H 	H 	0.33730 0.76300 0.97930 0.04400
H 	H 	0.45860 0.02410 0.56550 0.10100
H 	H 	0.54140 0.10690 0.56550 0.09000
H 	H 	0.54140 0.56550 0.10690 0.09000
H 	H 	0.45860 0.56550 0.02410 0.10100
H 	H 	0.45860 0.89310 0.43450 0.08800
H 	H 	0.54140 0.97590 0.43450 0.07900
H 	H 	0.45860 0.43450 0.89310 0.08800
H 	H 	0.54140 0.43450 0.97590 0.07900
H 	H 	0.30530 0.80530 0.50000 0.10300
H 	H 	0.69470 0.19470 0.50000 0.11700
H 	H 	0.69470 0.50000 0.19470 0.11700
H 	H 	0.30530 0.50000 0.80530 0.10300
C 	C 	0.47050 0.98440 0.87990 0.35000
C 	C 	0.43390 0.97110 0.80340 -0.10200
C 	C 	0.47150 0.95650 0.77620 0.03500
C 	C 	0.45420 0.94120 0.70660 -0.12700
C 	C 	0.38640 0.94200 0.65900 0.09100
C 	C 	0.34220 0.95590 0.67810 -0.02800
C 	C 	0.36740 0.97000 0.74980 0.00300
C 	C 	0.52950 0.40940 0.51390 0.37300
C 	C 	0.56610 0.36950 0.53720 -0.10500
C 	C 	0.52850 0.30470 0.48500 0.04200
C 	C 	0.54580 0.25240 0.48700 -0.12700
C 	C 	0.61360 0.27260 0.55560 0.09700
C 	C 	0.65780 0.33590 0.61370 -0.02500
C 	C 	0.63260 0.38240 0.60260 0.01100
C 	C 	0.89550 0.87990 0.40940 0.36600
C 	C 	0.83230 0.80340 0.36950 -0.09100
C 	C 	0.81970 0.77620 0.30470 0.03800
C 	C 	0.76540 0.70660 0.25240 -0.11800
C 	C 	0.71700 0.65900 0.27260 0.09600
C 	C 	0.72220 0.67810 0.33590 -0.01900
C 	C 	0.77980 0.74980 0.38240 0.00600
C 	C 	0.10450 0.51390 0.98440 0.35400
C 	C 	0.16770 0.53720 0.97110 -0.11400
C 	C 	0.18030 0.48500 0.95650 0.03800
C 	C 	0.23460 0.48700 0.94120 -0.13500
C 	C 	0.28300 0.55560 0.94200 0.09200
C 	C 	0.27780 0.61370 0.95590 -0.03300
C 	C 	0.22020 0.60260 0.97000 0.00700
C 	C 	0.10450 0.59060 0.12010 0.37200
C 	C 	0.16770 0.63050 0.19660 -0.11800
C 	C 	0.18030 0.69530 0.22380 0.04200
C 	C 	0.23460 0.74760 0.29340 -0.13600
C 	C 	0.28300 0.72740 0.34100 0.09300
C 	C 	0.27780 0.66410 0.32190 -0.03200
C 	C 	0.22020 0.61760 0.25020 0.01100
C 	C 	0.89550 0.01560 0.48610 0.37600
C 	C 	0.83230 0.02890 0.46280 -0.09400
C 	C 	0.81970 0.04350 0.51500 0.04100
C 	C 	0.76540 0.05880 0.51300 -0.11800
C 	C 	0.71700 0.05800 0.44440 0.09700
C 	C 	0.72220 0.04410 0.38630 -0.01900
C 	C 	0.77980 0.03000 0.39740 0.00800
C 	C 	0.47050 0.48610 0.59060 0.37100
C 	C 	0.43390 0.46280 0.63050 -0.10700
C 	C 	0.47150 0.51500 0.69530 0.04000
C 	C 	0.45420 0.51300 0.74760 -0.12800
C 	C 	0.38640 0.44440 0.72740 0.09300
C 	C 	0.34220 0.38630 0.66410 -0.02800
C 	C 	0.36740 0.39740 0.61760 0.00800
C 	C 	0.52950 0.12010 0.01560 0.38000
C 	C 	0.56610 0.19660 0.02890 -0.10700
C 	C 	0.52850 0.22380 0.04350 0.04400
C 	C 	0.54580 0.29340 0.05880 -0.12700
C 	C 	0.61360 0.34100 0.05800 0.09700
C 	C 	0.65780 0.32190 0.04410 -0.02400
C 	C 	0.63260 0.25020 0.03000 0.01200
C 	C 	0.52950 0.01560 0.12010 0.38000
C 	C 	0.56610 0.02890 0.19660 -0.10700
C 	C 	0.52850 0.04350 0.22380 0.04400
C 	C 	0.54580 0.05880 0.29340 -0.12700
C 	C 	0.61360 0.05800 0.34100 0.09700
C 	C 	0.65780 0.04410 0.32190 -0.02400
C 	C 	0.63260 0.03000 0.25020 0.01200
C 	C 	0.47050 0.59060 0.48610 0.37100
C 	C 	0.43390 0.63050 0.46280 -0.10700
C 	C 	0.47150 0.69530 0.51500 0.04000
C 	C 	0.45420 0.74760 0.51300 -0.12800
C 	C 	0.38640 0.72740 0.44440 0.09300
C 	C 	0.34220 0.66410 0.38630 -0.02800
C 	C 	0.36740 0.61760 0.39740 0.00800
C 	C 	0.10450 0.12010 0.59060 0.37200
C 	C 	0.16770 0.19660 0.63050 -0.11800
C 	C 	0.18030 0.22380 0.69530 0.04200
C 	C 	0.23460 0.29340 0.74760 -0.13600
C 	C 	0.28300 0.34100 0.72740 0.09300
C 	C 	0.27780 0.32190 0.66410 -0.03200
C 	C 	0.22020 0.25020 0.61760 0.01100
C 	C 	0.89550 0.48610 0.01560 0.37600
C 	C 	0.83230 0.46280 0.02890 -0.09400
C 	C 	0.81970 0.51500 0.04350 0.04100
C 	C 	0.76540 0.51300 0.05880 -0.11800
C 	C 	0.71700 0.44440 0.05800 0.09700
C 	C 	0.72220 0.38630 0.04410 -0.01900
C 	C 	0.77980 0.39740 0.03000 0.00800
C 	C 	0.89550 0.40940 0.87990 0.36600
C 	C 	0.83230 0.36950 0.80340 -0.09100
C 	C 	0.81970 0.30470 0.77620 0.03800
C 	C 	0.76540 0.25240 0.70660 -0.11800
C 	C 	0.71700 0.27260 0.65900 0.09600
C 	C 	0.72220 0.33590 0.67810 -0.01900
C 	C 	0.77980 0.38240 0.74980 0.00600
C 	C 	0.10450 0.98440 0.51390 0.35400
C 	C 	0.16770 0.97110 0.53720 -0.11400
C 	C 	0.18030 0.95650 0.48500 0.03800
C 	C 	0.23460 0.94120 0.48700 -0.13500
C 	C 	0.28300 0.94200 0.55560 0.09200
C 	C 	0.27780 0.95590 0.61370 -0.03300
C 	C 	0.22020 0.97000 0.60260 0.00700
C 	C 	0.52950 0.51390 0.40940 0.37300
C 	C 	0.56610 0.53720 0.36950 -0.10500
C 	C 	0.52850 0.48500 0.30470 0.04200
C 	C 	0.54580 0.48700 0.25240 -0.12700
C 	C 	0.61360 0.55560 0.27260 0.09700
C 	C 	0.65780 0.61370 0.33590 -0.02500
C 	C 	0.63260 0.60260 0.38240 0.01100
C 	C 	0.47050 0.87990 0.98440 0.35000
C 	C 	0.43390 0.80340 0.97110 -0.10200
C 	C 	0.47150 0.77620 0.95650 0.03500
C 	C 	0.45420 0.70660 0.94120 -0.12700
C 	C 	0.38640 0.65900 0.94200 0.09100
C 	C 	0.34220 0.67810 0.95590 -0.02800
C 	C 	0.36740 0.74980 0.97000 0.00300
C 	C 	0.37740 0.91611 0.53871 0.15200
C 	C 	0.43800 0.97683 0.53883 -0.18100
C 	C 	0.62260 0.16131 0.53871 0.15300
C 	C 	0.56200 0.10083 0.53883 -0.16500
C 	C 	0.62260 0.53871 0.16131 0.15300
C 	C 	0.56200 0.53883 0.10083 -0.16500
C 	C 	0.37740 0.53871 0.91611 0.15200
C 	C 	0.43800 0.53883 0.97683 -0.18100
C 	C 	0.37740 0.83869 0.46129 0.14800
C 	C 	0.43800 0.89917 0.46117 -0.16400
C 	C 	0.62260 0.08389 0.46129 0.14900
C 	C 	0.56200 0.02317 0.46117 -0.15100
C 	C 	0.37740 0.46129 0.83869 0.14800
C 	C 	0.43800 0.46117 0.89917 -0.16400
C 	C 	0.62260 0.46129 0.08389 0.14900
C 	C 	0.56200 0.46117 0.02317 -0.15100
C 	C 	0.34660 0.84660 0.50000 -0.20300
C 	C 	0.46860 0.96860 0.50000 0.06700
C 	C 	0.65340 0.15340 0.50000 -0.20000
C 	C 	0.53140 0.03140 0.50000 0.07400
C 	C 	0.65340 0.50000 0.15340 -0.20000
C 	C 	0.53140 0.50000 0.03140 0.07400
C 	C 	0.34660 0.50000 0.84660 -0.20300
C 	C 	0.46860 0.50000 0.96860 0.06700
N 	N 	0.34710 0.92930 0.58220 -0.15300
N 	N 	0.65290 0.23510 0.58220 -0.14900
N 	N 	0.65290 0.58220 0.23510 -0.14900
N 	N 	0.34710 0.58220 0.92930 -0.15300
N 	N 	0.34710 0.76490 0.41780 -0.15200
N 	N 	0.65290 0.07070 0.41780 -0.14900
N 	N 	0.34710 0.41780 0.76490 -0.15200
N 	N 	0.65290 0.41780 0.07070 -0.14900
O 	O 	0.40710 0.97140 0.88590 -0.39500
O 	O 	0.53650 0.00240 0.92150 -0.42800
O 	O 	0.59290 0.47880 0.56430 -0.38500
O 	O 	0.46350 0.38500 0.46590 -0.44900
O 	O 	0.91450 0.88590 0.47880 -0.34800
O 	O 	0.91910 0.92150 0.38500 -0.40500
O 	O 	0.08550 0.56430 0.97140 -0.41200
O 	O 	0.08090 0.46590 0.00240 -0.45300
O 	O 	0.08550 0.52120 0.11410 -0.40900
O 	O 	0.08090 0.61500 0.07850 -0.46400
O 	O 	0.91450 0.02860 0.43570 -0.34900
O 	O 	0.91910 0.99760 0.53410 -0.41100
O 	O 	0.40710 0.43570 0.52120 -0.39400
O 	O 	0.53650 0.53410 0.61500 -0.44400
O 	O 	0.59290 0.11410 0.02860 -0.38400
O 	O 	0.46350 0.07850 0.99760 -0.45100
O 	O 	0.59290 0.02860 0.11410 -0.38400
O 	O 	0.46350 0.99760 0.07850 -0.45100
O 	O 	0.40710 0.52120 0.43570 -0.39400
O 	O 	0.53650 0.61500 0.53410 -0.44400
O 	O 	0.08550 0.11410 0.52120 -0.40900
O 	O 	0.08090 0.07850 0.61500 -0.46400
O 	O 	0.91450 0.43570 0.02860 -0.34900
O 	O 	0.91910 0.53410 0.99760 -0.41100
O 	O 	0.91450 0.47880 0.88590 -0.34800
O 	O 	0.91910 0.38500 0.92150 -0.40500
O 	O 	0.08550 0.97140 0.56430 -0.41200
O 	O 	0.08090 0.00240 0.46590 -0.45300
O 	O 	0.59290 0.56430 0.47880 -0.38500
O 	O 	0.46350 0.46590 0.38500 -0.44900
O 	O 	0.40710 0.88590 0.97140 -0.39500
O 	O 	0.53650 0.92150 0.00240 -0.42800
