data_crystal

_cell_length_a 12.84700
_cell_length_b 14.84400
_cell_length_c 15.14800
_cell_angle_alpha 90.00000
_cell_angle_beta  90.00000
_cell_angle_gamma 90.00000

_symmetry_space_group_name_	'P 1'
_symmetry_space_group_name_H-M	'P 1'

loop_
_symmetry_equiv_pos_as_xyz
  x,y,z

loop_
_atom_site_label
_atom_site_type_symbol
_atom_site_fract_x
_atom_site_fract_y
_atom_site_fract_z
_atom_site_charge
Mg	Mg	0.55671 0.23764 -0.00000 1.46200
Mg	Mg	0.44329 0.76236 -0.00000 1.46200
Mg	Mg	0.94329 0.73764 0.50000 1.47600
Mg	Mg	0.05671 0.26236 0.50000 1.46200
Mg	Mg	0.00000 0.50000 0.50000 1.48100
Mg	Mg	0.50000 0.00000 -0.00000 1.48000
H 	H 	0.41700 0.46510 0.12340 0.04900
H 	H 	0.22580 0.55360 0.31390 0.08300
H 	H 	0.25240 0.28880 0.26720 0.03100
H 	H 	0.32440 0.65780 0.22330 0.15700
H 	H 	0.39650 0.62470 0.15340 0.13800
H 	H 	0.08800 0.65400 0.54580 0.44800
H 	H 	0.58300 0.53490 0.12340 0.05200
H 	H 	0.77420 0.44640 0.31390 0.09100
H 	H 	0.74760 0.71120 0.26720 0.04100
H 	H 	0.67560 0.34220 0.22330 0.16000
H 	H 	0.60350 0.37530 0.15340 0.14100
H 	H 	0.91200 0.34600 0.54580 0.44100
H 	H 	0.08300 0.96510 0.37660 0.03700
H 	H 	0.27420 0.05360 0.18610 0.08800
H 	H 	0.24760 0.78880 0.23280 0.03500
H 	H 	0.17560 0.15780 0.27670 0.14400
H 	H 	0.10350 0.12470 0.34660 0.11200
H 	H 	0.41200 0.15400 0.95420 0.56500
H 	H 	0.91700 0.03490 0.37660 0.09000
H 	H 	0.72580 0.94640 0.18610 0.08000
H 	H 	0.75240 0.21120 0.23280 0.03500
H 	H 	0.82440 0.84220 0.27670 0.17200
H 	H 	0.89650 0.87530 0.34660 0.17700
H 	H 	0.58800 0.84600 0.95420 0.56300
H 	H 	0.58300 0.53490 0.87660 0.08200
H 	H 	0.77420 0.44640 0.68610 0.09700
H 	H 	0.74760 0.71120 0.73280 0.04800
H 	H 	0.67560 0.34220 0.77670 0.16800
H 	H 	0.60350 0.37530 0.84660 0.15900
H 	H 	0.91200 0.34600 0.45420 0.44000
H 	H 	0.41700 0.46510 0.87660 0.07900
H 	H 	0.22580 0.55360 0.68610 0.08900
H 	H 	0.25240 0.28880 0.73280 0.03800
H 	H 	0.32440 0.65780 0.77670 0.16500
H 	H 	0.39650 0.62470 0.84660 0.15600
H 	H 	0.08800 0.65400 0.45420 0.44700
H 	H 	0.91700 0.03490 0.62340 0.09200
H 	H 	0.72580 0.94640 0.81390 0.09400
H 	H 	0.75240 0.21120 0.76720 0.04600
H 	H 	0.82440 0.84220 0.72330 0.17900
H 	H 	0.89650 0.87530 0.65340 0.18000
H 	H 	0.58800 0.84600 0.04580 0.49300
H 	H 	0.08300 0.96510 0.62340 0.04000
H 	H 	0.27420 0.05360 0.81390 0.10000
H 	H 	0.24760 0.78880 0.76720 0.04400
H 	H 	0.17560 0.15780 0.72330 0.15200
H 	H 	0.10350 0.12470 0.65340 0.11600
H 	H 	0.41200 0.15400 0.04580 0.49000
C 	C 	0.34060 0.36567 0.18641 -0.08000
C 	C 	0.32620 0.52481 0.21580 0.11400
C 	C 	0.36900 0.45347 0.16798 -0.08400
C 	C 	0.38620 0.28981 0.13283 0.35900
C 	C 	0.25540 0.50641 0.28224 -0.08100
C 	C 	0.22793 0.41847 0.30213 -0.09800
C 	C 	0.27064 0.34794 0.25406 0.02200
C 	C 	0.15133 0.40140 0.37537 0.45300
C 	C 	0.65940 0.63433 0.18641 -0.06700
C 	C 	0.67380 0.47519 0.21580 0.12500
C 	C 	0.63100 0.54653 0.16798 -0.08700
C 	C 	0.61380 0.71019 0.13283 0.35700
C 	C 	0.74460 0.49359 0.28224 -0.08500
C 	C 	0.77207 0.58153 0.30213 -0.07800
C 	C 	0.72936 0.65206 0.25406 0.01900
C 	C 	0.84867 0.59860 0.37537 0.44600
C 	C 	0.15940 0.86567 0.31359 -0.08900
C 	C 	0.17380 0.02481 0.28420 0.05900
C 	C 	0.13100 0.95347 0.33202 -0.01000
C 	C 	0.11380 0.78981 0.36717 0.36600
C 	C 	0.24460 0.00641 0.21776 -0.14600
C 	C 	0.27207 0.91847 0.19787 -0.03400
C 	C 	0.22936 0.84794 0.24594 0.01100
C 	C 	0.34867 0.90140 0.12463 0.43100
C 	C 	0.84060 0.13433 0.31359 -0.04200
C 	C 	0.82620 0.97519 0.28420 0.18200
C 	C 	0.86900 0.04653 0.33202 -0.15700
C 	C 	0.88620 0.21019 0.36717 0.34600
C 	C 	0.75540 0.99359 0.21776 -0.03000
C 	C 	0.72793 0.08153 0.19787 -0.14200
C 	C 	0.77064 0.15206 0.24594 0.02500
C 	C 	0.65133 0.09860 0.12463 0.46600
C 	C 	0.65940 0.63433 0.81359 -0.04000
C 	C 	0.67380 0.47519 0.78420 0.15000
C 	C 	0.63100 0.54653 0.83202 -0.09900
C 	C 	0.61380 0.71019 0.86717 0.35300
C 	C 	0.74460 0.49359 0.71776 -0.09300
C 	C 	0.77207 0.58153 0.69787 -0.06400
C 	C 	0.72936 0.65206 0.74594 0.01100
C 	C 	0.84867 0.59860 0.62463 0.44500
C 	C 	0.34060 0.36567 0.81359 -0.05200
C 	C 	0.32620 0.52481 0.78420 0.13800
C 	C 	0.36900 0.45347 0.83202 -0.09600
C 	C 	0.38620 0.28981 0.86717 0.35400
C 	C 	0.25540 0.50641 0.71776 -0.08900
C 	C 	0.22793 0.41847 0.69787 -0.08400
C 	C 	0.27064 0.34794 0.74594 0.01300
C 	C 	0.15133 0.40140 0.62463 0.45100
C 	C 	0.84060 0.13433 0.68641 -0.03100
C 	C 	0.82620 0.97519 0.71580 0.19400
C 	C 	0.86900 0.04653 0.66798 -0.15800
C 	C 	0.88620 0.21019 0.63283 0.34600
C 	C 	0.75540 0.99359 0.78224 -0.04300
C 	C 	0.72793 0.08153 0.80213 -0.11200
C 	C 	0.77064 0.15206 0.75406 0.01700
C 	C 	0.65133 0.09860 0.87537 0.45700
C 	C 	0.15940 0.86567 0.68641 -0.08000
C 	C 	0.17380 0.02481 0.71580 0.07300
C 	C 	0.13100 0.95347 0.66798 -0.01800
C 	C 	0.11380 0.78981 0.63283 0.36600
C 	C 	0.24460 0.00641 0.78224 -0.14400
C 	C 	0.27207 0.91847 0.80213 -0.01800
C 	C 	0.22936 0.84794 0.75406 0.00800
C 	C 	0.34867 0.90140 0.87537 0.42600
N 	N 	0.35240 0.61390 0.19480 -0.30900
N 	N 	0.64760 0.38610 0.19480 -0.31100
N 	N 	0.14760 0.11390 0.30520 -0.29600
N 	N 	0.85240 0.88610 0.30520 -0.32500
N 	N 	0.64760 0.38610 0.80520 -0.31600
N 	N 	0.35240 0.61390 0.80520 -0.31500
N 	N 	0.85240 0.88610 0.69480 -0.32700
N 	N 	0.14760 0.11390 0.69480 -0.29800
O 	O 	0.47116 0.30510 0.09454 -0.51800
O 	O 	0.33680 0.21675 0.12913 -0.35400
O 	O 	0.14142 0.32269 0.40150 -0.54300
O 	O 	0.10404 0.46772 0.40486 -0.50900
O 	O 	0.52884 0.69490 0.09454 -0.51500
O 	O 	0.66320 0.78325 0.12913 -0.33200
O 	O 	0.85858 0.67731 0.40150 -0.49900
O 	O 	0.89596 0.53228 0.40486 -0.46100
O 	O 	0.02884 0.80510 0.40546 -0.52500
O 	O 	0.16320 0.71675 0.37087 -0.33100
O 	O 	0.35858 0.82269 0.09850 -0.53500
O 	O 	0.39596 0.96772 0.09514 -0.46700
O 	O 	0.97116 0.19490 0.40546 -0.45900
O 	O 	0.83680 0.28325 0.37087 -0.31500
O 	O 	0.64142 0.17731 0.09850 -0.54400
O 	O 	0.60404 0.03228 0.09514 -0.52600
O 	O 	0.52884 0.69490 0.90546 -0.46500
O 	O 	0.66320 0.78325 0.87087 -0.30300
O 	O 	0.85858 0.67731 0.59850 -0.49700
O 	O 	0.89596 0.53228 0.59514 -0.45700
O 	O 	0.47116 0.30510 0.90546 -0.46600
O 	O 	0.33680 0.21675 0.87087 -0.32200
O 	O 	0.14142 0.32269 0.59850 -0.54000
O 	O 	0.10404 0.46772 0.59514 -0.50500
O 	O 	0.97116 0.19490 0.59454 -0.45600
O 	O 	0.83680 0.28325 0.62913 -0.31100
O 	O 	0.64142 0.17731 0.90150 -0.48700
O 	O 	0.60404 0.03228 0.90486 -0.47100
O 	O 	0.02884 0.80510 0.59454 -0.52300
O 	O 	0.16320 0.71675 0.62913 -0.32800
O 	O 	0.35858 0.82269 0.90150 -0.48300
O 	O 	0.39596 0.96772 0.90486 -0.42000
O 	O 	0.05996 0.63269 0.50000 -1.15100
O 	O 	0.94004 0.36731 0.50000 -1.08400
O 	O 	0.44004 0.13269 -0.00000 -1.31600
O 	O 	0.55996 0.86731 -0.00000 -1.28400
