data_crystal

_cell_length_a 13.38900
_cell_length_b 14.48400
_cell_length_c 14.70940
_cell_angle_alpha 91.49190
_cell_angle_beta  90.00000
_cell_angle_gamma 90.00000

_symmetry_space_group_name_	'P 1'
_symmetry_space_group_name_H-M	'P 1'

loop_
_symmetry_equiv_pos_as_xyz
  x,y,z

loop_
_atom_site_label
_atom_site_type_symbol
_atom_site_fract_x
_atom_site_fract_y
_atom_site_fract_z
_atom_site_charge
Mg	Mg	0.94059 0.75790 0.00609 1.47100
Mg	Mg	0.44059 0.74210 0.49391 1.47000
Mg	Mg	0.05941 0.24210 0.99391 1.46800
Mg	Mg	0.55941 0.25790 0.50609 1.47000
Mg	Mg	-0.00000 0.00000 -0.00000 1.47100
Mg	Mg	0.50000 0.50000 0.50000 1.48700
H 	H 	0.61110 0.68250 0.59300 0.13000
H 	H 	0.57380 0.13730 0.33270 0.13700
H 	H 	0.60520 0.15450 0.24400 0.14100
H 	H 	0.71010 0.15890 0.73950 0.15100
H 	H 	0.61150 0.13950 0.69040 0.13200
H 	H 	0.76370 0.07060 0.18630 0.09900
H 	H 	0.56430 0.97510 0.36450 0.06200
H 	H 	0.74030 0.79790 0.22420 0.04800
H 	H 	0.74220 0.78210 0.75910 0.06300
H 	H 	0.59700 0.97780 0.62320 0.06200
H 	H 	0.79670 0.04990 0.81520 0.09800
H 	H 	0.08070 0.84940 0.06070 0.46800
H 	H 	0.09160 0.84570 0.97000 0.49900
H 	H 	0.11110 0.81750 0.90700 0.10600
H 	H 	0.07380 0.36270 0.16730 0.12000
H 	H 	0.10520 0.34550 0.25600 0.13400
H 	H 	0.21010 0.34110 0.76050 0.14200
H 	H 	0.11150 0.36050 0.80960 0.11200
H 	H 	0.26370 0.42940 0.31370 0.08400
H 	H 	0.06430 0.52490 0.13550 0.04100
H 	H 	0.24030 0.70210 0.27580 0.03800
H 	H 	0.24220 0.71790 0.74090 0.05100
H 	H 	0.09700 0.52220 0.87680 0.05300
H 	H 	0.29670 0.45010 0.68480 0.07800
H 	H 	0.58070 0.65060 0.43930 0.43600
H 	H 	0.59160 0.65430 0.53000 0.41700
H 	H 	0.38890 0.31750 0.40700 0.13200
H 	H 	0.42620 0.86270 0.66730 0.15300
H 	H 	0.39480 0.84550 0.75600 0.15900
H 	H 	0.28990 0.84110 0.26050 0.14700
H 	H 	0.38850 0.86050 0.30960 0.13800
H 	H 	0.23630 0.92940 0.81370 0.08200
H 	H 	0.43570 0.02490 0.63550 0.07100
H 	H 	0.25970 0.20210 0.77580 0.03800
H 	H 	0.25780 0.21790 0.24090 0.04100
H 	H 	0.40300 0.02220 0.37680 0.06500
H 	H 	0.20330 0.95010 0.18480 0.06300
H 	H 	0.91930 0.15060 0.93930 0.39000
H 	H 	0.90840 0.15430 0.03000 0.29500
H 	H 	0.88890 0.18250 0.09300 0.16600
H 	H 	0.92620 0.63730 0.83270 0.17300
H 	H 	0.89480 0.65450 0.74400 0.16600
H 	H 	0.78990 0.65890 0.23950 0.15400
H 	H 	0.88850 0.63950 0.19040 0.15200
H 	H 	0.73630 0.57060 0.68630 0.09800
H 	H 	0.93570 0.47510 0.86450 0.09700
H 	H 	0.75970 0.29790 0.72420 0.05000
H 	H 	0.75780 0.28210 0.25910 0.05400
H 	H 	0.90300 0.47780 0.12320 0.06800
H 	H 	0.70330 0.54990 0.31520 0.08200
H 	H 	0.41930 0.34940 0.56070 0.43400
H 	H 	0.40840 0.34570 0.47000 0.41200
C 	C 	0.84613 0.91249 0.12465 0.41500
C 	C 	0.76470 0.93083 0.19423 -0.02100
C 	C 	0.73382 0.02083 0.21435 -0.13600
C 	C 	0.65817 0.03492 0.27665 0.06800
C 	C 	0.61410 0.96336 0.32167 -0.02800
C 	C 	0.64512 0.87312 0.30228 -0.06700
C 	C 	0.59826 0.79327 0.35086 0.35700
C 	C 	0.71990 0.85800 0.23804 0.00100
C 	C 	0.85493 0.88877 0.87119 0.40900
C 	C 	0.78077 0.91187 0.79837 -0.01700
C 	C 	0.73005 0.84417 0.74852 0.00700
C 	C 	0.66120 0.86871 0.68284 -0.07600
C 	C 	0.60859 0.79507 0.62753 0.40200
C 	C 	0.64283 0.96138 0.66745 -0.02600
C 	C 	0.69227 0.02968 0.71763 0.08300
C 	C 	0.76210 0.00443 0.78234 -0.13000
C 	C 	0.34613 0.58751 0.37535 0.43200
C 	C 	0.26470 0.56917 0.30577 -0.08800
C 	C 	0.23382 0.47917 0.28565 -0.07400
C 	C 	0.15817 0.46508 0.22335 0.08600
C 	C 	0.11410 0.53664 0.17833 -0.07700
C 	C 	0.14512 0.62688 0.19772 -0.08300
C 	C 	0.09826 0.70673 0.14914 0.35800
C 	C 	0.21990 0.64200 0.26196 0.01800
C 	C 	0.35493 0.61123 0.62881 0.42800
C 	C 	0.28077 0.58813 0.70163 -0.08500
C 	C 	0.23005 0.65583 0.75148 0.02100
C 	C 	0.16120 0.63129 0.81716 -0.08500
C 	C 	0.10859 0.70493 0.87247 0.39400
C 	C 	0.14283 0.53862 0.83255 -0.07300
C 	C 	0.19227 0.47032 0.78237 0.10000
C 	C 	0.26210 0.49557 0.71766 -0.07300
C 	C 	0.15387 0.08751 0.87535 0.44700
C 	C 	0.23530 0.06917 0.80577 -0.13300
C 	C 	0.26618 0.97917 0.78565 -0.02600
C 	C 	0.34183 0.96508 0.72335 0.14900
C 	C 	0.38590 0.03664 0.67833 -0.14800
C 	C 	0.35488 0.12688 0.69772 -0.05700
C 	C 	0.40174 0.20673 0.64914 0.35000
C 	C 	0.28010 0.14200 0.76196 0.02200
C 	C 	0.14507 0.11123 0.12881 0.44800
C 	C 	0.21923 0.08813 0.20163 -0.16000
C 	C 	0.26995 0.15583 0.25148 0.03600
C 	C 	0.33880 0.13129 0.31716 -0.08100
C 	C 	0.39141 0.20493 0.37247 0.39500
C 	C 	0.35717 0.03862 0.33255 -0.13800
C 	C 	0.30773 0.97032 0.28237 0.14200
C 	C 	0.23790 0.99557 0.21766 -0.00800
C 	C 	0.65387 0.41249 0.62465 0.43000
C 	C 	0.73530 0.43083 0.69423 -0.06200
C 	C 	0.76618 0.52083 0.71435 -0.09200
C 	C 	0.84183 0.53492 0.77665 0.13600
C 	C 	0.88590 0.46336 0.82167 -0.10100
C 	C 	0.85488 0.37312 0.80228 -0.03500
C 	C 	0.90174 0.29327 0.85086 0.34700
C 	C 	0.78010 0.35800 0.73804 0.00200
C 	C 	0.64507 0.38877 0.37119 0.42700
C 	C 	0.71923 0.41187 0.29837 -0.07900
C 	C 	0.76995 0.34417 0.24852 0.01900
C 	C 	0.83880 0.36871 0.18284 -0.07700
C 	C 	0.89141 0.29507 0.12753 0.40800
C 	C 	0.85717 0.46138 0.16745 -0.07900
C 	C 	0.80773 0.52968 0.21763 0.11700
C 	C 	0.73790 0.50443 0.28234 -0.08000
N 	N 	0.62383 0.12990 0.29402 -0.27700
N 	N 	0.67638 0.12378 0.70031 -0.28000
N 	N 	0.12383 0.37010 0.20598 -0.27600
N 	N 	0.17638 0.37622 0.79969 -0.27300
N 	N 	0.37617 0.87010 0.70598 -0.29300
N 	N 	0.32362 0.87622 0.29969 -0.28500
N 	N 	0.87617 0.62990 0.79402 -0.29600
N 	N 	0.82362 0.62378 0.20031 -0.29000
O 	O 	0.85797 0.83037 0.09905 -0.50900
O 	O 	0.89435 0.98086 0.09880 -0.44000
O 	O 	0.05313 0.86361 0.01120 -1.24300
O 	O 	0.64418 0.71814 0.34963 -0.32800
O 	O 	0.51608 0.80916 0.39006 -0.47500
O 	O 	0.86323 0.80574 0.89404 -0.44700
O 	O 	0.90334 0.95462 0.90423 -0.42900
O 	O 	0.64568 0.71705 0.62496 -0.44000
O 	O 	0.52858 0.81829 0.58742 -0.48900
O 	O 	0.35797 0.66963 0.40095 -0.51900
O 	O 	0.39435 0.51914 0.40120 -0.47500
O 	O 	0.55313 0.63639 0.48880 -1.12200
O 	O 	0.14418 0.78186 0.15037 -0.34300
O 	O 	0.01608 0.69084 0.10994 -0.51700
O 	O 	0.36323 0.69426 0.60596 -0.49100
O 	O 	0.40334 0.54538 0.59577 -0.49500
O 	O 	0.14568 0.78295 0.87504 -0.42400
O 	O 	0.02858 0.68171 0.91258 -0.50800
O 	O 	0.14203 0.16963 0.90095 -0.53100
O 	O 	0.10565 0.01914 0.90120 -0.50800
O 	O 	0.94687 0.13639 0.98880 -0.94000
O 	O 	0.35582 0.28186 0.65037 -0.33100
O 	O 	0.48392 0.19084 0.60994 -0.47900
O 	O 	0.13677 0.19426 0.10596 -0.53200
O 	O 	0.09666 0.04538 0.09577 -0.56100
O 	O 	0.35432 0.28295 0.37504 -0.45000
O 	O 	0.47142 0.18171 0.41258 -0.49700
O 	O 	0.64203 0.33037 0.59905 -0.51500
O 	O 	0.60565 0.48086 0.59880 -0.46900
O 	O 	0.44687 0.36361 0.51120 -1.12000
O 	O 	0.85582 0.21814 0.84963 -0.30900
O 	O 	0.98392 0.30916 0.89006 -0.42700
O 	O 	0.63677 0.30574 0.39404 -0.49000
O 	O 	0.59666 0.45462 0.40423 -0.49500
O 	O 	0.85432 0.21705 0.12496 -0.47400
O 	O 	0.97142 0.31829 0.08742 -0.48600
