data_crystal

_cell_length_a 14.97400
_cell_length_b 19.70600
_cell_length_c 19.76000
_cell_angle_alpha 90.00000
_cell_angle_beta  90.00000
_cell_angle_gamma 90.00000

_symmetry_space_group_name_	'P 1'
_symmetry_space_group_name_H-M	'P 1'

loop_
_symmetry_equiv_pos_as_xyz
  x,y,z

loop_
_atom_site_label
_atom_site_type_symbol
_atom_site_fract_x
_atom_site_fract_y
_atom_site_fract_z
_atom_site_charge
Mg	Mg	0.73545 0.52583 0.97468 1.47300
Mg	Mg	0.26455 0.97417 0.47468 1.47300
Mg	Mg	0.23545 0.47417 0.52532 1.46900
Mg	Mg	0.76455 0.02583 0.02532 1.46000
Mg	Mg	0.26455 0.47417 0.02532 1.46400
Mg	Mg	0.73545 0.02583 0.52532 1.46400
Mg	Mg	0.76455 0.52583 0.47468 1.46900
Mg	Mg	0.23545 0.97417 0.97468 1.47600
Mg	Mg	0.50000 0.50000 -0.00000 1.48300
Mg	Mg	0.50000 0.00000 0.50000 1.48200
Mg	Mg	0.00000 0.50000 0.50000 1.48300
Mg	Mg	-0.00000 0.00000 -0.00000 1.47300
H 	H 	0.82080 0.49110 0.61320 0.18800
H 	H 	0.34680 0.79840 0.03990 0.15400
H 	H 	0.38050 0.86940 0.04330 0.15100
H 	H 	0.34590 0.53240 0.69980 0.16500
H 	H 	0.38030 0.53410 0.62910 0.15000
H 	H 	0.44680 0.70500 0.02320 0.09200
H 	H 	0.71080 0.74130 0.00980 0.04300
H 	H 	0.53760 0.89470 0.03370 0.07700
H 	H 	0.53840 0.52810 0.60350 0.06200
H 	H 	0.70980 0.50880 0.75840 0.04700
H 	H 	0.44770 0.52210 0.79490 0.09400
H 	H 	0.65800 0.48500 0.06000 0.33300
H 	H 	0.66300 0.44400 0.00300 0.33500
H 	H 	0.17920 0.00890 0.11320 0.19500
H 	H 	0.65320 0.70160 0.53990 0.16400
H 	H 	0.61950 0.63060 0.54330 0.15600
H 	H 	0.65410 0.96760 0.19980 0.18100
H 	H 	0.61970 0.96590 0.12910 0.15900
H 	H 	0.55320 0.79500 0.52320 0.10100
H 	H 	0.28920 0.75870 0.50980 0.04300
H 	H 	0.46240 0.60530 0.53370 0.07000
H 	H 	0.46160 0.97190 0.10350 0.05900
H 	H 	0.29020 0.99120 0.25840 0.05700
H 	H 	0.55230 0.97790 0.29490 0.09700
H 	H 	0.34200 0.01500 0.56000 0.31700
H 	H 	0.33700 0.05600 0.50300 0.34000
H 	H 	0.32080 0.50890 0.88680 0.18400
H 	H 	0.84680 0.20160 0.46010 0.16300
H 	H 	0.88050 0.13060 0.45670 0.15800
H 	H 	0.84590 0.46760 0.80020 0.17000
H 	H 	0.88030 0.46590 0.87090 0.16300
H 	H 	0.94680 0.29500 0.47680 0.08700
H 	H 	0.21080 0.25870 0.49020 0.03500
H 	H 	0.03760 0.10530 0.46630 0.06700
H 	H 	0.03840 0.47190 0.89650 0.07400
H 	H 	0.20980 0.49120 0.74160 0.03800
H 	H 	0.94770 0.47790 0.70510 0.08100
H 	H 	0.15800 0.51500 0.44000 0.33600
H 	H 	0.16300 0.55600 0.49700 0.35200
H 	H 	0.67920 0.99110 0.38680 0.16300
H 	H 	0.15320 0.29840 0.96010 0.16600
H 	H 	0.11950 0.36940 0.95670 0.15200
H 	H 	0.15410 0.03240 0.30020 0.14200
H 	H 	0.11970 0.03410 0.37090 0.12600
H 	H 	0.05320 0.20500 0.97680 0.10800
H 	H 	0.78920 0.24130 0.99020 0.04900
H 	H 	0.96240 0.39470 0.96630 0.06300
H 	H 	0.96160 0.02810 0.39650 0.05000
H 	H 	0.79020 0.00880 0.24160 0.03200
H 	H 	0.05230 0.02210 0.20510 0.09400
H 	H 	0.84200 0.98500 0.94000 0.34600
H 	H 	0.83700 0.94400 0.99700 0.36700
H 	H 	0.17920 0.50890 0.38680 0.17700
H 	H 	0.65320 0.20160 0.96010 0.16900
H 	H 	0.61950 0.13060 0.95670 0.15800
H 	H 	0.65410 0.46760 0.30020 0.16300
H 	H 	0.61970 0.46590 0.37090 0.14900
H 	H 	0.55320 0.29500 0.97680 0.10100
H 	H 	0.28920 0.25870 0.99020 0.04200
H 	H 	0.46240 0.10530 0.96630 0.06100
H 	H 	0.46160 0.47190 0.39650 0.06100
H 	H 	0.29020 0.49120 0.24160 0.04000
H 	H 	0.55230 0.47790 0.20510 0.08900
H 	H 	0.34200 0.51500 0.94000 0.33400
H 	H 	0.33700 0.55600 0.99700 0.36300
H 	H 	0.82080 0.99110 0.88680 0.17100
H 	H 	0.34680 0.29840 0.46010 0.15900
H 	H 	0.38050 0.36940 0.45670 0.15300
H 	H 	0.34590 0.03240 0.80020 0.14900
H 	H 	0.38030 0.03410 0.87090 0.14100
H 	H 	0.44680 0.20500 0.47680 0.09300
H 	H 	0.71080 0.24130 0.49020 0.04200
H 	H 	0.53760 0.39470 0.46630 0.06800
H 	H 	0.53840 0.02810 0.89650 0.06400
H 	H 	0.70980 0.00880 0.74160 0.03000
H 	H 	0.44770 0.02210 0.70510 0.08600
H 	H 	0.65800 0.98500 0.44000 0.35000
H 	H 	0.66300 0.94400 0.49700 0.35700
H 	H 	0.67920 0.49110 0.11320 0.18000
H 	H 	0.15320 0.79840 0.53990 0.16000
H 	H 	0.11950 0.86940 0.54330 0.15000
H 	H 	0.15410 0.53240 0.19980 0.15900
H 	H 	0.11970 0.53410 0.12910 0.13500
H 	H 	0.05320 0.70500 0.52320 0.10700
H 	H 	0.78920 0.74130 0.50980 0.05000
H 	H 	0.96240 0.89470 0.53370 0.07100
H 	H 	0.96160 0.52810 0.10350 0.04800
H 	H 	0.79020 0.50880 0.25840 0.04900
H 	H 	0.05230 0.52210 0.29490 0.10200
H 	H 	0.84200 0.48500 0.56000 0.33000
H 	H 	0.83700 0.44400 0.50300 0.34600
H 	H 	0.32080 0.00890 0.61320 0.20100
H 	H 	0.84680 0.70160 0.03990 0.15800
H 	H 	0.88050 0.63060 0.04330 0.15700
H 	H 	0.84590 0.96760 0.69980 0.18700
H 	H 	0.88030 0.96590 0.62910 0.17300
H 	H 	0.94680 0.79500 0.02320 0.08700
H 	H 	0.21080 0.75870 0.00980 0.03600
H 	H 	0.03760 0.60530 0.03370 0.07600
H 	H 	0.03840 0.97190 0.60350 0.07200
H 	H 	0.20980 0.99120 0.75840 0.05500
H 	H 	0.94770 0.97790 0.79490 0.08900
H 	H 	0.15800 0.01500 0.06000 0.31800
H 	H 	0.16300 0.05600 0.00300 0.32800
C 	C 	0.58100 0.51500 0.78810 -0.07500
C 	C 	0.58230 0.71120 0.01250 -0.05300
C 	C 	0.47830 0.80310 0.02920 0.14600
C 	C 	0.49420 0.73550 0.02200 -0.11500
C 	C 	0.63540 0.51790 0.67350 -0.07400
C 	C 	0.71090 0.51520 0.62350 0.40700
C 	C 	0.63630 0.82620 0.01760 -0.02600
C 	C 	0.47770 0.52540 0.69630 0.13000
C 	C 	0.59690 0.63700 0.00610 0.35800
C 	C 	0.65240 0.75700 0.01290 -0.02000
C 	C 	0.54870 0.84860 0.02780 -0.11900
C 	C 	0.54930 0.52440 0.64970 -0.08100
C 	C 	0.65160 0.51320 0.74260 0.02400
C 	C 	0.49490 0.52100 0.76440 -0.08700
C 	C 	0.59770 0.51100 0.86350 0.44500
C 	C 	0.71190 0.87570 0.01880 0.27500
C 	C 	0.41900 0.98500 0.28810 -0.07400
C 	C 	0.41770 0.78880 0.51250 -0.07100
C 	C 	0.52170 0.69690 0.52920 0.14300
C 	C 	0.50580 0.76450 0.52200 -0.09800
C 	C 	0.36460 0.98210 0.17350 -0.09500
C 	C 	0.28910 0.98480 0.12350 0.49100
C 	C 	0.36370 0.67380 0.51760 -0.05500
C 	C 	0.52230 0.97460 0.19630 0.13300
C 	C 	0.40310 0.86300 0.50610 0.42500
C 	C 	0.34760 0.74300 0.51290 0.01200
C 	C 	0.45130 0.65140 0.52780 -0.09900
C 	C 	0.45070 0.97560 0.14970 -0.06700
C 	C 	0.34840 0.98680 0.24260 0.03800
C 	C 	0.50510 0.97900 0.26440 -0.08300
C 	C 	0.40230 0.98900 0.36350 0.44500
C 	C 	0.28810 0.62430 0.51880 0.34700
C 	C 	0.08100 0.48500 0.71190 -0.14600
C 	C 	0.08230 0.28880 0.48750 -0.14200
C 	C 	0.97830 0.19690 0.47080 0.17800
C 	C 	0.99420 0.26450 0.47800 -0.03400
C 	C 	0.13540 0.48210 0.82650 -0.06600
C 	C 	0.21090 0.48480 0.87650 0.40000
C 	C 	0.13630 0.17380 0.48240 -0.05800
C 	C 	0.97770 0.47460 0.80370 0.17200
C 	C 	0.09690 0.36300 0.49390 0.44500
C 	C 	0.15240 0.24300 0.48710 0.02700
C 	C 	0.04870 0.15140 0.47220 -0.16300
C 	C 	0.04930 0.47560 0.85030 -0.14500
C 	C 	0.15160 0.48680 0.75740 0.03700
C 	C 	0.99490 0.47900 0.73560 -0.01900
C 	C 	0.09770 0.48900 0.63650 0.46600
C 	C 	0.21190 0.12430 0.48120 0.34300
C 	C 	0.91900 0.01500 0.21190 -0.02500
C 	C 	0.91770 0.21120 0.98750 -0.04200
C 	C 	0.02170 0.30310 0.97080 0.09100
C 	C 	0.00580 0.23550 0.97800 -0.13800
C 	C 	0.86460 0.01790 0.32650 -0.07200
C 	C 	0.78910 0.01520 0.37650 0.32400
C 	C 	0.86370 0.32620 0.98240 -0.08500
C 	C 	0.02230 0.02540 0.30370 0.07600
C 	C 	0.90310 0.13700 0.99390 0.48300
C 	C 	0.84760 0.25700 0.98710 0.03400
C 	C 	0.95130 0.34860 0.97220 -0.01400
C 	C 	0.95070 0.02440 0.35030 -0.02700
C 	C 	0.84840 0.01320 0.25740 -0.00200
C 	C 	0.00510 0.02100 0.23560 -0.15700
C 	C 	0.90230 0.01100 0.13650 0.42800
C 	C 	0.78810 0.37570 0.98120 0.42300
C 	C 	0.41900 0.48500 0.21190 -0.08500
C 	C 	0.41770 0.28880 0.98750 -0.10100
C 	C 	0.52170 0.19690 0.97080 0.13200
C 	C 	0.50580 0.26450 0.97800 -0.07800
C 	C 	0.36460 0.48210 0.32650 -0.08000
C 	C 	0.28910 0.48480 0.37650 0.40400
C 	C 	0.36370 0.17380 0.98240 -0.08700
C 	C 	0.52230 0.47460 0.30370 0.12500
C 	C 	0.40310 0.36300 0.99390 0.50000
C 	C 	0.34760 0.24300 0.98710 0.04800
C 	C 	0.45130 0.15140 0.97220 -0.07600
C 	C 	0.45070 0.47560 0.35030 -0.07900
C 	C 	0.34840 0.48680 0.25740 0.02500
C 	C 	0.50510 0.47900 0.23560 -0.08600
C 	C 	0.40230 0.48900 0.13650 0.44700
C 	C 	0.28810 0.12430 0.98120 0.42500
C 	C 	0.58100 0.01500 0.71190 -0.08600
C 	C 	0.58230 0.21120 0.48750 -0.08100
C 	C 	0.47830 0.30310 0.47080 0.13500
C 	C 	0.49420 0.23550 0.47800 -0.09600
C 	C 	0.63540 0.01790 0.82650 -0.05900
C 	C 	0.71090 0.01520 0.87650 0.32300
C 	C 	0.63630 0.32620 0.48240 -0.05700
C 	C 	0.47770 0.02540 0.80370 0.12300
C 	C 	0.59690 0.13700 0.49390 0.43000
C 	C 	0.65240 0.25700 0.48710 0.01400
C 	C 	0.54870 0.34860 0.47220 -0.09800
C 	C 	0.54930 0.02440 0.85030 -0.09300
C 	C 	0.65160 0.01320 0.75740 0.01100
C 	C 	0.49490 0.02100 0.73560 -0.09000
C 	C 	0.59770 0.01100 0.63650 0.44700
C 	C 	0.71190 0.37570 0.48120 0.34500
C 	C 	0.91900 0.51500 0.28810 -0.01200
C 	C 	0.91770 0.71120 0.51250 -0.00900
C 	C 	0.02170 0.80310 0.52920 0.09900
C 	C 	0.00580 0.73550 0.52200 -0.16200
C 	C 	0.86460 0.51790 0.17350 -0.08800
C 	C 	0.78910 0.51520 0.12350 0.41100
C 	C 	0.86370 0.82620 0.51760 -0.05400
C 	C 	0.02230 0.52540 0.19630 0.08100
C 	C 	0.90310 0.63700 0.50610 0.40900
C 	C 	0.84760 0.75700 0.51290 -0.00100
C 	C 	0.95130 0.84860 0.52780 -0.03200
C 	C 	0.95070 0.52440 0.14970 -0.01200
C 	C 	0.84840 0.51320 0.24260 0.01100
C 	C 	0.00510 0.52100 0.26440 -0.15600
C 	C 	0.90230 0.51100 0.36350 0.42600
C 	C 	0.78810 0.87570 0.51880 0.34900
C 	C 	0.08100 0.98500 0.78810 -0.13300
C 	C 	0.08230 0.78880 0.01250 -0.11500
C 	C 	0.97830 0.69690 0.02920 0.19200
C 	C 	0.99420 0.76450 0.02200 -0.05200
C 	C 	0.13540 0.98210 0.67350 -0.08000
C 	C 	0.21090 0.98480 0.62350 0.48400
C 	C 	0.13630 0.67380 0.01760 -0.02500
C 	C 	0.97770 0.97460 0.69630 0.18100
C 	C 	0.09690 0.86300 0.00610 0.37300
C 	C 	0.15240 0.74300 0.01290 -0.00800
C 	C 	0.04870 0.65140 0.02780 -0.18900
C 	C 	0.04930 0.97560 0.64970 -0.13400
C 	C 	0.15160 0.98680 0.74260 0.04900
C 	C 	0.99490 0.97900 0.76440 -0.01800
C 	C 	0.09770 0.98900 0.86350 0.46300
C 	C 	0.21190 0.62430 0.01880 0.26800
N 	N 	0.39050 0.82670 0.03870 -0.31800
N 	N 	0.39000 0.53140 0.67190 -0.31400
N 	N 	0.60950 0.67330 0.53870 -0.31800
N 	N 	0.61000 0.96860 0.17190 -0.31700
N 	N 	0.89050 0.17330 0.46130 -0.32300
N 	N 	0.89000 0.46860 0.82810 -0.32100
N 	N 	0.10950 0.32670 0.96130 -0.31000
N 	N 	0.11000 0.03140 0.32810 -0.30200
N 	N 	0.60950 0.17330 0.96130 -0.31600
N 	N 	0.61000 0.46860 0.32810 -0.31300
N 	N 	0.39050 0.32670 0.46130 -0.31700
N 	N 	0.39000 0.03140 0.82810 -0.31000
N 	N 	0.10950 0.82670 0.53870 -0.31200
N 	N 	0.11000 0.53140 0.17190 -0.30600
N 	N 	0.89050 0.67330 0.03870 -0.32500
N 	N 	0.89000 0.96860 0.67190 -0.32500
O 	O 	0.53170 0.59760 0.01400 -0.47800
O 	O 	0.67420 0.61670 0.99080 -0.44500
O 	O 	0.53110 0.50700 0.90050 -0.46800
O 	O 	0.67680 0.51300 0.88260 -0.51500
O 	O 	0.69590 0.93530 0.03780 -0.46700
O 	O 	0.78680 0.85500 0.99850 -0.21700
O 	O 	0.78430 0.49040 0.64400 -0.46000
O 	O 	0.69630 0.53670 0.56480 -0.51700
O 	O 	0.63140 0.47040 0.02590 -1.00400
O 	O 	0.46830 0.90240 0.51400 -0.45400
O 	O 	0.32580 0.88330 0.49080 -0.50600
O 	O 	0.46890 0.99300 0.40050 -0.46100
O 	O 	0.32320 0.98700 0.38260 -0.50300
O 	O 	0.30410 0.56470 0.53780 -0.49200
O 	O 	0.21320 0.64500 0.49850 -0.30200
O 	O 	0.21570 0.00960 0.14400 -0.55100
O 	O 	0.30370 0.96330 0.06480 -0.53600
O 	O 	0.36860 0.02960 0.52590 -1.00000
O 	O 	0.03170 0.40240 0.48600 -0.50700
O 	O 	0.17420 0.38330 0.50920 -0.52500
O 	O 	0.03110 0.49300 0.59950 -0.51500
O 	O 	0.17680 0.48700 0.61740 -0.53600
O 	O 	0.19590 0.06470 0.46220 -0.51700
O 	O 	0.28680 0.14500 0.50150 -0.30400
O 	O 	0.28430 0.50960 0.85600 -0.45800
O 	O 	0.19630 0.46330 0.93520 -0.50100
O 	O 	0.13140 0.52960 0.47410 -1.00600
O 	O 	0.96830 0.09760 0.98600 -0.45700
O 	O 	0.82580 0.11670 0.00920 -0.59200
O 	O 	0.96890 0.00700 0.09950 -0.48500
O 	O 	0.82320 0.01300 0.11740 -0.55900
O 	O 	0.80410 0.43530 0.96220 -0.49000
O 	O 	0.71320 0.35500 0.00150 -0.36500
O 	O 	0.71570 0.99040 0.35600 -0.37800
O 	O 	0.80370 0.03670 0.43520 -0.51600
O 	O 	0.86860 0.97040 0.97410 -0.93900
O 	O 	0.46830 0.40240 0.98600 -0.47100
O 	O 	0.32580 0.38330 0.00920 -0.59200
O 	O 	0.46890 0.49300 0.09950 -0.49800
O 	O 	0.32320 0.48700 0.11740 -0.54200
O 	O 	0.30410 0.06470 0.96220 -0.51500
O 	O 	0.21320 0.14500 0.00150 -0.38100
O 	O 	0.21570 0.50960 0.35600 -0.46400
O 	O 	0.30370 0.46330 0.43520 -0.51900
O 	O 	0.36860 0.52960 0.97410 -0.97100
O 	O 	0.53170 0.09760 0.48600 -0.49400
O 	O 	0.67420 0.11670 0.50920 -0.52700
O 	O 	0.53110 0.00700 0.59950 -0.50400
O 	O 	0.67680 0.01300 0.61740 -0.55300
O 	O 	0.69590 0.43530 0.46220 -0.49100
O 	O 	0.78680 0.35500 0.50150 -0.29100
O 	O 	0.78430 0.99040 0.85600 -0.37600
O 	O 	0.69630 0.03670 0.93520 -0.49900
O 	O 	0.63140 0.97040 0.47410 -0.97400
O 	O 	0.96830 0.59760 0.51400 -0.44200
O 	O 	0.82580 0.61670 0.49080 -0.50800
O 	O 	0.96890 0.50700 0.40050 -0.45000
O 	O 	0.82320 0.51300 0.38260 -0.52000
O 	O 	0.80410 0.93530 0.53780 -0.46600
O 	O 	0.71320 0.85500 0.49850 -0.28900
O 	O 	0.71570 0.49040 0.14400 -0.46600
O 	O 	0.80370 0.53670 0.06480 -0.53400
O 	O 	0.86860 0.47040 0.52590 -0.96900
O 	O 	0.03170 0.90240 0.01400 -0.48800
O 	O 	0.17420 0.88330 0.99080 -0.44200
O 	O 	0.03110 0.99300 0.90050 -0.47700
O 	O 	0.17680 0.98700 0.88260 -0.49800
O 	O 	0.19590 0.56470 0.03780 -0.49400
O 	O 	0.28680 0.64500 0.99850 -0.22600
O 	O 	0.28430 0.00960 0.64400 -0.54200
O 	O 	0.19630 0.96330 0.56480 -0.51900
O 	O 	0.13140 0.02960 0.02590 -1.03100
