data_crystal

_cell_length_a 18.61530
_cell_length_b 18.61530
_cell_length_c 38.37500
_cell_angle_alpha 90.00000
_cell_angle_beta  90.00000
_cell_angle_gamma 120.00000

_symmetry_space_group_name_	'P 1'
_symmetry_space_group_name_H-M	'P 1'

loop_
_symmetry_equiv_pos_as_xyz
  x,y,z

loop_
_atom_site_label
_atom_site_type_symbol
_atom_site_fract_x
_atom_site_fract_y
_atom_site_fract_z
_atom_site_charge
C 	C 	0.36019 0.45241 0.47354 0.39600
C 	C 	0.27935 0.42990 0.45642 -0.21800
C 	C 	0.26413 0.39960 0.42277 0.17800
H 	H 	0.30210 0.38880 0.41160 -0.05200
C 	C 	0.18340 0.28830 0.35812 -1.24500
C 	C 	0.17340 0.26740 0.32267 0.33200
H 	H 	0.18040 0.22260 0.31440 -0.11400
O 	O 	0.41087 0.44161 0.45604 -0.43400
O 	O 	0.37108 0.48173 0.50392 -0.42600
N 	N 	0.19330 0.22720 0.38390 -2.38100
H 	H 	0.18830 0.17830 0.37770 0.68900
H 	H 	0.19990 0.24240 0.40650 0.56900
H 	H 	0.19300 0.25430 0.37520 2.05100
C 	C 	0.02686 0.78574 0.80687 0.39700
C 	C 	0.94602 0.76323 0.78975 -0.22200
C 	C 	0.93080 0.73293 0.75610 0.19000
H 	H 	0.96877 0.72213 0.74493 -0.05500
C 	C 	0.85007 0.62163 0.69145 -1.28100
C 	C 	0.84007 0.60073 0.65600 0.35900
H 	H 	0.84707 0.55593 0.64773 -0.12100
O 	O 	0.07754 0.77494 0.78937 -0.43300
O 	O 	0.03775 0.81506 0.83725 -0.42500
N 	N 	0.85997 0.56053 0.71723 -2.41600
H 	H 	0.85497 0.51163 0.71103 0.69900
H 	H 	0.86657 0.57573 0.73983 0.57700
H 	H 	0.85967 0.58763 0.70853 2.08800
C 	C 	0.69352 0.11908 0.14021 0.39800
C 	C 	0.61268 0.09657 0.12309 -0.22100
C 	C 	0.59746 0.06627 0.08944 0.18500
H 	H 	0.63543 0.05547 0.07827 -0.05400
C 	C 	0.51673 0.95497 0.02479 -1.25000
C 	C 	0.50673 0.93407 0.98934 0.34100
H 	H 	0.51373 0.88927 0.98107 -0.11600
O 	O 	0.74420 0.10828 0.12271 -0.43300
O 	O 	0.70441 0.14840 0.17059 -0.42500
N 	N 	0.52663 0.89387 0.05057 -2.38600
H 	H 	0.52163 0.84497 0.04437 0.69100
H 	H 	0.53323 0.90907 0.07317 0.57000
H 	H 	0.52633 0.92097 0.04187 2.05700
C 	C 	0.54759 0.90778 0.47354 0.39700
C 	C 	0.57010 0.84945 0.45642 -0.21700
C 	C 	0.60040 0.86453 0.42277 0.17900
H 	H 	0.61120 0.91330 0.41160 -0.05100
C 	C 	0.71170 0.89510 0.35812 -1.22500
C 	C 	0.73260 0.90600 0.32267 0.32700
H 	H 	0.77740 0.95780 0.31440 -0.11000
O 	O 	0.55839 0.96926 0.45604 -0.43200
O 	O 	0.51827 0.88935 0.50392 -0.42500
N 	N 	0.77280 0.96610 0.38390 -2.35600
H 	H 	0.82170 0.01000 0.37770 0.68100
H 	H 	0.75760 0.95750 0.40650 0.56400
H 	H 	0.74570 0.93870 0.37520 2.02900
C 	C 	0.21426 0.24111 0.80687 0.39900
C 	C 	0.23677 0.18278 0.78975 -0.22400
C 	C 	0.26707 0.19786 0.75610 0.19100
H 	H 	0.27787 0.24663 0.74493 -0.05600
C 	C 	0.37837 0.22843 0.69145 -1.25500
C 	C 	0.39927 0.23933 0.65600 0.34800
H 	H 	0.44407 0.29113 0.64773 -0.11800
O 	O 	0.22506 0.30259 0.78937 -0.43300
O 	O 	0.18494 0.22268 0.83725 -0.42500
N 	N 	0.43947 0.29943 0.71723 -2.38900
H 	H 	0.48837 0.34333 0.71103 0.69100
H 	H 	0.42427 0.29083 0.73983 0.57100
H 	H 	0.41237 0.27203 0.70853 2.06100
C 	C 	0.88092 0.57445 0.14021 0.39800
C 	C 	0.90343 0.51612 0.12309 -0.22100
C 	C 	0.93373 0.53120 0.08944 0.18500
H 	H 	0.94453 0.57997 0.07827 -0.05400
C 	C 	0.04503 0.56177 0.02479 -1.24900
C 	C 	0.06593 0.57267 0.98934 0.34100
H 	H 	0.11073 0.62447 0.98107 -0.11500
O 	O 	0.89172 0.63593 0.12271 -0.43300
O 	O 	0.85160 0.55602 0.17059 -0.42500
N 	N 	0.10613 0.63277 0.05057 -2.38500
H 	H 	0.15503 0.67667 0.04437 0.69000
H 	H 	0.09093 0.62417 0.07317 0.57000
H 	H 	0.07903 0.60537 0.04187 2.05600
C 	C 	0.09222 0.63981 0.47354 0.39500
C 	C 	0.15055 0.72065 0.45642 -0.21300
C 	C 	0.13547 0.73587 0.42277 0.17100
H 	H 	0.08670 0.69790 0.41160 -0.04800
C 	C 	0.10490 0.81660 0.35812 -1.21300
C 	C 	0.09400 0.82660 0.32267 0.31500
H 	H 	0.04220 0.81960 0.31440 -0.10600
O 	O 	0.03074 0.58913 0.45604 -0.43200
O 	O 	0.11065 0.62892 0.50392 -0.42400
N 	N 	0.03390 0.80670 0.38390 -2.34500
H 	H 	0.99000 0.81170 0.37770 0.67800
H 	H 	0.04250 0.80010 0.40650 0.56100
H 	H 	0.06130 0.80700 0.37520 2.01700
C 	C 	0.75889 0.97314 0.80687 0.39900
C 	C 	0.81722 0.05398 0.78975 -0.22500
C 	C 	0.80214 0.06920 0.75610 0.19800
H 	H 	0.75337 0.03123 0.74493 -0.05800
C 	C 	0.77157 0.14993 0.69145 -1.28900
C 	C 	0.76067 0.15993 0.65600 0.36900
H 	H 	0.70887 0.15293 0.64773 -0.12400
O 	O 	0.69741 0.92246 0.78937 -0.43400
O 	O 	0.77732 0.96225 0.83725 -0.42500
N 	N 	0.70057 0.14003 0.71723 -2.42300
H 	H 	0.65667 0.14503 0.71103 0.70100
H 	H 	0.70917 0.13343 0.73983 0.57800
H 	H 	0.72797 0.14033 0.70853 2.09500
C 	C 	0.42555 0.30648 0.14021 0.39800
C 	C 	0.48388 0.38732 0.12309 -0.22100
C 	C 	0.46880 0.40254 0.08944 0.18600
H 	H 	0.42003 0.36457 0.07827 -0.05400
C 	C 	0.43823 0.48327 0.02479 -1.25200
C 	C 	0.42733 0.49327 0.98934 0.34200
H 	H 	0.37553 0.48627 0.98107 -0.11600
O 	O 	0.36407 0.25580 0.12271 -0.43300
O 	O 	0.44398 0.29559 0.17059 -0.42500
N 	N 	0.36723 0.47337 0.05057 -2.38700
H 	H 	0.32333 0.47837 0.04437 0.69100
H 	H 	0.37583 0.46677 0.07317 0.57000
H 	H 	0.39463 0.47367 0.04187 2.05800
C 	C 	0.45241 0.36019 0.52646 0.39700
C 	C 	0.42990 0.27935 0.54358 -0.21700
C 	C 	0.39960 0.26413 0.57723 0.17900
H 	H 	0.38880 0.30210 0.58840 -0.05100
C 	C 	0.28830 0.18340 0.64188 -1.24400
C 	C 	0.26740 0.17340 0.67733 0.33300
H 	H 	0.22260 0.18040 0.68560 -0.11300
O 	O 	0.44161 0.41087 0.54396 -0.43300
O 	O 	0.48173 0.37108 0.49608 -0.42500
N 	N 	0.22720 0.19330 0.61610 -2.38000
H 	H 	0.17830 0.18830 0.62230 0.68900
H 	H 	0.24240 0.19990 0.59350 0.56900
H 	H 	0.25430 0.19300 0.62480 2.05100
C 	C 	0.11908 0.69352 0.85979 0.39800
C 	C 	0.09657 0.61268 0.87691 -0.22100
C 	C 	0.06627 0.59746 0.91056 0.18500
H 	H 	0.05547 0.63543 0.92173 -0.05400
C 	C 	0.95497 0.51673 0.97521 -1.25000
C 	C 	0.93407 0.50673 0.01066 0.34100
H 	H 	0.88927 0.51373 0.01893 -0.11600
O 	O 	0.10828 0.74420 0.87729 -0.43300
O 	O 	0.14840 0.70441 0.82941 -0.42500
N 	N 	0.89387 0.52663 0.94943 -2.38600
H 	H 	0.84497 0.52163 0.95563 0.69100
H 	H 	0.90907 0.53323 0.92683 0.57000
H 	H 	0.92097 0.52633 0.95813 2.05700
C 	C 	0.78574 0.02686 0.19313 0.39700
C 	C 	0.76323 0.94602 0.21025 -0.22200
C 	C 	0.73293 0.93080 0.24390 0.19000
H 	H 	0.72213 0.96877 0.25507 -0.05500
C 	C 	0.62163 0.85007 0.30855 -1.28100
C 	C 	0.60073 0.84007 0.34400 0.35900
H 	H 	0.55593 0.84707 0.35227 -0.12100
O 	O 	0.77494 0.07754 0.21063 -0.43300
O 	O 	0.81506 0.03775 0.16275 -0.42500
N 	N 	0.56053 0.85997 0.28277 -2.41600
H 	H 	0.51163 0.85497 0.28897 0.69900
H 	H 	0.57573 0.86657 0.26017 0.57700
H 	H 	0.58763 0.85967 0.29147 2.08800
C 	C 	0.90778 0.54759 0.52646 0.39700
C 	C 	0.84945 0.57010 0.54358 -0.21700
C 	C 	0.86453 0.60040 0.57723 0.17900
H 	H 	0.91330 0.61120 0.58840 -0.05100
C 	C 	0.89510 0.71170 0.64188 -1.22500
C 	C 	0.90600 0.73260 0.67733 0.32700
H 	H 	0.95780 0.77740 0.68560 -0.11000
O 	O 	0.96926 0.55839 0.54396 -0.43200
O 	O 	0.88935 0.51827 0.49608 -0.42500
N 	N 	0.96610 0.77280 0.61610 -2.35600
H 	H 	0.01000 0.82170 0.62230 0.68100
H 	H 	0.95750 0.75760 0.59350 0.56400
H 	H 	0.93870 0.74570 0.62480 2.02900
C 	C 	0.57445 0.88092 0.85979 0.39800
C 	C 	0.51612 0.90343 0.87691 -0.22100
C 	C 	0.53120 0.93373 0.91056 0.18500
H 	H 	0.57997 0.94453 0.92173 -0.05400
C 	C 	0.56177 0.04503 0.97521 -1.24900
C 	C 	0.57267 0.06593 0.01066 0.34100
H 	H 	0.62447 0.11073 0.01893 -0.11500
O 	O 	0.63593 0.89172 0.87729 -0.43300
O 	O 	0.55602 0.85160 0.82941 -0.42500
N 	N 	0.63277 0.10613 0.94943 -2.38500
H 	H 	0.67667 0.15503 0.95563 0.69000
H 	H 	0.62417 0.09093 0.92683 0.57000
H 	H 	0.60537 0.07903 0.95813 2.05600
C 	C 	0.24111 0.21426 0.19313 0.39900
C 	C 	0.18278 0.23677 0.21025 -0.22400
C 	C 	0.19786 0.26707 0.24390 0.19100
H 	H 	0.24663 0.27787 0.25507 -0.05600
C 	C 	0.22843 0.37837 0.30855 -1.25500
C 	C 	0.23933 0.39927 0.34400 0.34800
H 	H 	0.29113 0.44407 0.35227 -0.11800
O 	O 	0.30259 0.22506 0.21063 -0.43300
O 	O 	0.22268 0.18494 0.16275 -0.42500
N 	N 	0.29943 0.43947 0.28277 -2.38900
H 	H 	0.34333 0.48837 0.28897 0.69100
H 	H 	0.29083 0.42427 0.26017 0.57100
H 	H 	0.27203 0.41237 0.29147 2.06100
C 	C 	0.63981 0.09222 0.52646 0.39500
C 	C 	0.72065 0.15055 0.54358 -0.21300
C 	C 	0.73587 0.13547 0.57723 0.17100
H 	H 	0.69790 0.08670 0.58840 -0.04800
C 	C 	0.81660 0.10490 0.64188 -1.21300
C 	C 	0.82660 0.09400 0.67733 0.31500
H 	H 	0.81960 0.04220 0.68560 -0.10600
O 	O 	0.58913 0.03074 0.54396 -0.43200
O 	O 	0.62892 0.11065 0.49608 -0.42400
N 	N 	0.80670 0.03390 0.61610 -2.34500
H 	H 	0.81170 0.99000 0.62230 0.67800
H 	H 	0.80010 0.04250 0.59350 0.56100
H 	H 	0.80700 0.06130 0.62480 2.01700
C 	C 	0.30648 0.42555 0.85979 0.39800
C 	C 	0.38732 0.48388 0.87691 -0.22100
C 	C 	0.40254 0.46880 0.91056 0.18600
H 	H 	0.36457 0.42003 0.92173 -0.05400
C 	C 	0.48327 0.43823 0.97521 -1.25200
C 	C 	0.49327 0.42733 0.01066 0.34200
H 	H 	0.48627 0.37553 0.01893 -0.11600
O 	O 	0.25580 0.36407 0.87729 -0.43300
O 	O 	0.29559 0.44398 0.82941 -0.42500
N 	N 	0.47337 0.36723 0.94943 -2.38700
H 	H 	0.47837 0.32333 0.95563 0.69100
H 	H 	0.46677 0.37583 0.92683 0.57000
H 	H 	0.47367 0.39463 0.95813 2.05800
C 	C 	0.97314 0.75889 0.19313 0.39900
C 	C 	0.05398 0.81722 0.21025 -0.22500
C 	C 	0.06920 0.80214 0.24390 0.19800
H 	H 	0.03123 0.75337 0.25507 -0.05800
C 	C 	0.14993 0.77157 0.30855 -1.28900
C 	C 	0.15993 0.76067 0.34400 0.36900
H 	H 	0.15293 0.70887 0.35227 -0.12400
O 	O 	0.92246 0.69741 0.21063 -0.43400
O 	O 	0.96225 0.77732 0.16275 -0.42500
N 	N 	0.14003 0.70057 0.28277 -2.42300
H 	H 	0.14503 0.65667 0.28897 0.70100
H 	H 	0.13343 0.70917 0.26017 0.57800
H 	H 	0.14033 0.72797 0.29147 2.09500
C 	C 	0.63981 0.54759 0.52646 0.39700
C 	C 	0.72065 0.57010 0.54358 -0.21700
C 	C 	0.73587 0.60040 0.57723 0.17900
H 	H 	0.69790 0.61120 0.58840 -0.05100
C 	C 	0.81660 0.71170 0.64188 -1.24400
C 	C 	0.82660 0.73260 0.67733 0.33300
H 	H 	0.81960 0.77740 0.68560 -0.11300
O 	O 	0.58913 0.55839 0.54396 -0.43300
O 	O 	0.62892 0.51827 0.49608 -0.42500
N 	N 	0.80670 0.77280 0.61610 -2.38000
H 	H 	0.81170 0.82170 0.62230 0.68900
H 	H 	0.80010 0.75760 0.59350 0.56900
H 	H 	0.80700 0.74570 0.62480 2.05100
C 	C 	0.30648 0.88092 0.85979 0.39800
C 	C 	0.38732 0.90343 0.87691 -0.22100
C 	C 	0.40254 0.93373 0.91056 0.18500
H 	H 	0.36457 0.94453 0.92173 -0.05400
C 	C 	0.48327 0.04503 0.97521 -1.25000
C 	C 	0.49327 0.06593 0.01066 0.34100
H 	H 	0.48627 0.11073 0.01893 -0.11600
O 	O 	0.25580 0.89172 0.87729 -0.43300
O 	O 	0.29559 0.85160 0.82941 -0.42500
N 	N 	0.47337 0.10613 0.94943 -2.38600
H 	H 	0.47837 0.15503 0.95563 0.69100
H 	H 	0.46677 0.09093 0.92683 0.57000
H 	H 	0.47367 0.07903 0.95813 2.05700
C 	C 	0.97314 0.21426 0.19313 0.39700
C 	C 	0.05398 0.23677 0.21025 -0.22200
C 	C 	0.06920 0.26707 0.24390 0.19000
H 	H 	0.03123 0.27787 0.25507 -0.05500
C 	C 	0.14993 0.37837 0.30855 -1.28100
C 	C 	0.15993 0.39927 0.34400 0.35900
H 	H 	0.15293 0.44407 0.35227 -0.12100
O 	O 	0.92246 0.22506 0.21063 -0.43300
O 	O 	0.96225 0.18494 0.16275 -0.42500
N 	N 	0.14003 0.43947 0.28277 -2.41600
H 	H 	0.14503 0.48837 0.28897 0.69900
H 	H 	0.13343 0.42427 0.26017 0.57700
H 	H 	0.14033 0.41237 0.29147 2.08800
C 	C 	0.45241 0.09222 0.52646 0.39700
C 	C 	0.42990 0.15055 0.54358 -0.21700
C 	C 	0.39960 0.13547 0.57723 0.17900
H 	H 	0.38880 0.08670 0.58840 -0.05100
C 	C 	0.28830 0.10490 0.64188 -1.22500
C 	C 	0.26740 0.09400 0.67733 0.32700
H 	H 	0.22260 0.04220 0.68560 -0.11000
O 	O 	0.44161 0.03074 0.54396 -0.43200
O 	O 	0.48173 0.11065 0.49608 -0.42500
N 	N 	0.22720 0.03390 0.61610 -2.35600
H 	H 	0.17830 0.99000 0.62230 0.68100
H 	H 	0.24240 0.04250 0.59350 0.56400
H 	H 	0.25430 0.06130 0.62480 2.02900
C 	C 	0.11908 0.42555 0.85979 0.39800
C 	C 	0.09657 0.48388 0.87691 -0.22100
C 	C 	0.06627 0.46880 0.91056 0.18500
H 	H 	0.05547 0.42003 0.92173 -0.05400
C 	C 	0.95497 0.43823 0.97521 -1.24900
C 	C 	0.93407 0.42733 0.01066 0.34100
H 	H 	0.88927 0.37553 0.01893 -0.11500
O 	O 	0.10828 0.36407 0.87729 -0.43300
O 	O 	0.14840 0.44398 0.82941 -0.42500
N 	N 	0.89387 0.36723 0.94943 -2.38500
H 	H 	0.84497 0.32333 0.95563 0.69000
H 	H 	0.90907 0.37583 0.92683 0.57000
H 	H 	0.92097 0.39463 0.95813 2.05600
C 	C 	0.78574 0.75889 0.19313 0.39900
C 	C 	0.76323 0.81722 0.21025 -0.22400
C 	C 	0.73293 0.80214 0.24390 0.19100
H 	H 	0.72213 0.75337 0.25507 -0.05600
C 	C 	0.62163 0.77157 0.30855 -1.25500
C 	C 	0.60073 0.76067 0.34400 0.34800
H 	H 	0.55593 0.70887 0.35227 -0.11800
O 	O 	0.77494 0.69741 0.21063 -0.43300
O 	O 	0.81506 0.77732 0.16275 -0.42500
N 	N 	0.56053 0.70057 0.28277 -2.38900
H 	H 	0.51163 0.65667 0.28897 0.69100
H 	H 	0.57573 0.70917 0.26017 0.57100
H 	H 	0.58763 0.72797 0.29147 2.06100
C 	C 	0.90778 0.36019 0.52646 0.39500
C 	C 	0.84945 0.27935 0.54358 -0.21300
C 	C 	0.86453 0.26413 0.57723 0.17100
H 	H 	0.91330 0.30210 0.58840 -0.04800
C 	C 	0.89510 0.18340 0.64188 -1.21300
C 	C 	0.90600 0.17340 0.67733 0.31500
H 	H 	0.95780 0.18040 0.68560 -0.10600
O 	O 	0.96926 0.41087 0.54396 -0.43200
O 	O 	0.88935 0.37108 0.49608 -0.42400
N 	N 	0.96610 0.19330 0.61610 -2.34500
H 	H 	0.01000 0.18830 0.62230 0.67800
H 	H 	0.95750 0.19990 0.59350 0.56100
H 	H 	0.93870 0.19300 0.62480 2.01700
C 	C 	0.57445 0.69352 0.85979 0.39800
C 	C 	0.51612 0.61268 0.87691 -0.22100
C 	C 	0.53120 0.59746 0.91056 0.18600
H 	H 	0.57997 0.63543 0.92173 -0.05400
C 	C 	0.56177 0.51673 0.97521 -1.25200
C 	C 	0.57267 0.50673 0.01066 0.34200
H 	H 	0.62447 0.51373 0.01893 -0.11600
O 	O 	0.63593 0.74420 0.87729 -0.43300
O 	O 	0.55602 0.70441 0.82941 -0.42500
N 	N 	0.63277 0.52663 0.94943 -2.38700
H 	H 	0.67667 0.52163 0.95563 0.69100
H 	H 	0.62417 0.53323 0.92683 0.57000
H 	H 	0.60537 0.52633 0.95813 2.05800
C 	C 	0.24111 0.02686 0.19313 0.39900
C 	C 	0.18278 0.94602 0.21025 -0.22500
C 	C 	0.19786 0.93080 0.24390 0.19800
H 	H 	0.24663 0.96877 0.25507 -0.05800
C 	C 	0.22843 0.85007 0.30855 -1.28900
C 	C 	0.23933 0.84007 0.34400 0.36900
H 	H 	0.29113 0.84707 0.35227 -0.12400
O 	O 	0.30259 0.07754 0.21063 -0.43400
O 	O 	0.22268 0.03775 0.16275 -0.42500
N 	N 	0.29943 0.85997 0.28277 -2.42300
H 	H 	0.34333 0.85497 0.28897 0.70100
H 	H 	0.29083 0.86657 0.26017 0.57800
H 	H 	0.27203 0.85967 0.29147 2.09500
C 	C 	0.54759 0.63981 0.47354 0.39700
C 	C 	0.57010 0.72065 0.45642 -0.21700
C 	C 	0.60040 0.73587 0.42277 0.17900
H 	H 	0.61120 0.69790 0.41160 -0.05100
C 	C 	0.71170 0.81660 0.35812 -1.24400
C 	C 	0.73260 0.82660 0.32267 0.33300
H 	H 	0.77740 0.81960 0.31440 -0.11300
O 	O 	0.55839 0.58913 0.45604 -0.43300
O 	O 	0.51827 0.62892 0.50392 -0.42500
N 	N 	0.77280 0.80670 0.38390 -2.38000
H 	H 	0.82170 0.81170 0.37770 0.68900
H 	H 	0.75760 0.80010 0.40650 0.56900
H 	H 	0.74570 0.80700 0.37520 2.05100
C 	C 	0.21426 0.97314 0.80687 0.39700
C 	C 	0.23677 0.05398 0.78975 -0.22200
C 	C 	0.26707 0.06920 0.75610 0.19000
H 	H 	0.27787 0.03123 0.74493 -0.05500
C 	C 	0.37837 0.14993 0.69145 -1.28100
C 	C 	0.39927 0.15993 0.65600 0.35900
H 	H 	0.44407 0.15293 0.64773 -0.12100
O 	O 	0.22506 0.92246 0.78937 -0.43300
O 	O 	0.18494 0.96225 0.83725 -0.42500
N 	N 	0.43947 0.14003 0.71723 -2.41600
H 	H 	0.48837 0.14503 0.71103 0.69900
H 	H 	0.42427 0.13343 0.73983 0.57700
H 	H 	0.41237 0.14033 0.70853 2.08800
C 	C 	0.88092 0.30648 0.14021 0.39800
C 	C 	0.90343 0.38732 0.12309 -0.22100
C 	C 	0.93373 0.40254 0.08944 0.18500
H 	H 	0.94453 0.36457 0.07827 -0.05400
C 	C 	0.04503 0.48327 0.02479 -1.25000
C 	C 	0.06593 0.49327 0.98934 0.34100
H 	H 	0.11073 0.48627 0.98107 -0.11600
O 	O 	0.89172 0.25580 0.12271 -0.43300
O 	O 	0.85160 0.29559 0.17059 -0.42500
N 	N 	0.10613 0.47337 0.05057 -2.38600
H 	H 	0.15503 0.47837 0.04437 0.69100
H 	H 	0.09093 0.46677 0.07317 0.57000
H 	H 	0.07903 0.47367 0.04187 2.05700
C 	C 	0.09222 0.45241 0.47354 0.39700
C 	C 	0.15055 0.42990 0.45642 -0.21700
C 	C 	0.13547 0.39960 0.42277 0.17900
H 	H 	0.08670 0.38880 0.41160 -0.05100
C 	C 	0.10490 0.28830 0.35812 -1.22500
C 	C 	0.09400 0.26740 0.32267 0.32700
H 	H 	0.04220 0.22260 0.31440 -0.11000
O 	O 	0.03074 0.44161 0.45604 -0.43200
O 	O 	0.11065 0.48173 0.50392 -0.42500
N 	N 	0.03390 0.22720 0.38390 -2.35600
H 	H 	0.99000 0.17830 0.37770 0.68100
H 	H 	0.04250 0.24240 0.40650 0.56400
H 	H 	0.06130 0.25430 0.37520 2.02900
C 	C 	0.75889 0.78574 0.80687 0.39900
C 	C 	0.81722 0.76323 0.78975 -0.22400
C 	C 	0.80214 0.73293 0.75610 0.19100
H 	H 	0.75337 0.72213 0.74493 -0.05600
C 	C 	0.77157 0.62163 0.69145 -1.25500
C 	C 	0.76067 0.60073 0.65600 0.34800
H 	H 	0.70887 0.55593 0.64773 -0.11800
O 	O 	0.69741 0.77494 0.78937 -0.43300
O 	O 	0.77732 0.81506 0.83725 -0.42500
N 	N 	0.70057 0.56053 0.71723 -2.38900
H 	H 	0.65667 0.51163 0.71103 0.69100
H 	H 	0.70917 0.57573 0.73983 0.57100
H 	H 	0.72797 0.58763 0.70853 2.06100
C 	C 	0.42555 0.11908 0.14021 0.39800
C 	C 	0.48388 0.09657 0.12309 -0.22100
C 	C 	0.46880 0.06627 0.08944 0.18500
H 	H 	0.42003 0.05547 0.07827 -0.05400
C 	C 	0.43823 0.95497 0.02479 -1.24900
C 	C 	0.42733 0.93407 0.98934 0.34100
H 	H 	0.37553 0.88927 0.98107 -0.11500
O 	O 	0.36407 0.10828 0.12271 -0.43300
O 	O 	0.44398 0.14840 0.17059 -0.42500
N 	N 	0.36723 0.89387 0.05057 -2.38500
H 	H 	0.32333 0.84497 0.04437 0.69000
H 	H 	0.37583 0.90907 0.07317 0.57000
H 	H 	0.39463 0.92097 0.04187 2.05600
C 	C 	0.36019 0.90778 0.47354 0.39500
C 	C 	0.27935 0.84945 0.45642 -0.21300
C 	C 	0.26413 0.86453 0.42277 0.17100
H 	H 	0.30210 0.91330 0.41160 -0.04800
C 	C 	0.18340 0.89510 0.35812 -1.21300
C 	C 	0.17340 0.90600 0.32267 0.31500
H 	H 	0.18040 0.95780 0.31440 -0.10600
O 	O 	0.41087 0.96926 0.45604 -0.43200
O 	O 	0.37108 0.88935 0.50392 -0.42400
N 	N 	0.19330 0.96610 0.38390 -2.34500
H 	H 	0.18830 0.01000 0.37770 0.67800
H 	H 	0.19990 0.95750 0.40650 0.56100
H 	H 	0.19300 0.93870 0.37520 2.01700
C 	C 	0.02686 0.24111 0.80687 0.39900
C 	C 	0.94602 0.18278 0.78975 -0.22500
C 	C 	0.93080 0.19786 0.75610 0.19800
H 	H 	0.96877 0.24663 0.74493 -0.05800
C 	C 	0.85007 0.22843 0.69145 -1.28900
C 	C 	0.84007 0.23933 0.65600 0.36900
H 	H 	0.84707 0.29113 0.64773 -0.12400
O 	O 	0.07754 0.30259 0.78937 -0.43400
O 	O 	0.03775 0.22268 0.83725 -0.42500
N 	N 	0.85997 0.29943 0.71723 -2.42300
H 	H 	0.85497 0.34333 0.71103 0.70100
H 	H 	0.86657 0.29083 0.73983 0.57800
H 	H 	0.85967 0.27203 0.70853 2.09500
C 	C 	0.69352 0.57445 0.14021 0.39800
C 	C 	0.61268 0.51612 0.12309 -0.22100
C 	C 	0.59746 0.53120 0.08944 0.18600
H 	H 	0.63543 0.57997 0.07827 -0.05400
C 	C 	0.51673 0.56177 0.02479 -1.25200
C 	C 	0.50673 0.57267 0.98934 0.34200
H 	H 	0.51373 0.62447 0.98107 -0.11600
O 	O 	0.74420 0.63593 0.12271 -0.43300
O 	O 	0.70441 0.55602 0.17059 -0.42500
N 	N 	0.52663 0.63277 0.05057 -2.38700
H 	H 	0.52163 0.67667 0.04437 0.69100
H 	H 	0.53323 0.62417 0.07317 0.57000
H 	H 	0.52633 0.60537 0.04187 2.05800
C 	C 	0.22260 0.44520 0.47340 0.13400
H 	H 	0.23275 0.46550 0.49610 0.00800
C 	C 	0.19250 0.38500 0.40543 -0.40300
C 	C 	0.17790 0.35580 0.36822 0.62900
C 	C 	0.88927 0.77853 0.80673 0.14000
H 	H 	0.89942 0.79883 0.82943 0.00600
C 	C 	0.85917 0.71833 0.73876 -0.42400
C 	C 	0.84457 0.68913 0.70155 0.67100
C 	C 	0.55593 0.11187 0.14007 0.13800
H 	H 	0.56608 0.13217 0.16277 0.00600
C 	C 	0.52583 0.05167 0.07210 -0.41400
C 	C 	0.51123 0.02247 0.03489 0.64900
C 	C 	0.55480 0.77740 0.47340 0.13400
H 	H 	0.53450 0.76725 0.49610 0.00800
C 	C 	0.61500 0.80750 0.40543 -0.40300
C 	C 	0.64420 0.82210 0.36822 0.62900
C 	C 	0.22147 0.11073 0.80673 0.14000
H 	H 	0.20117 0.10058 0.82943 0.00600
C 	C 	0.28167 0.14083 0.73876 -0.42400
C 	C 	0.31087 0.15543 0.70155 0.67100
C 	C 	0.88813 0.44407 0.14007 0.13800
H 	H 	0.86783 0.43392 0.16277 0.00600
C 	C 	0.94833 0.47417 0.07210 -0.41400
C 	C 	0.97753 0.48877 0.03489 0.64900
C 	C 	0.22260 0.77740 0.47340 0.13000
H 	H 	0.23275 0.76725 0.49610 0.00900
C 	C 	0.19250 0.80750 0.40543 -0.39000
C 	C 	0.17790 0.82210 0.36822 0.60100
C 	C 	0.88927 0.11073 0.80673 0.14200
H 	H 	0.89942 0.10058 0.82943 0.00600
C 	C 	0.85917 0.14083 0.73876 -0.43600
C 	C 	0.84457 0.15543 0.70155 0.69700
C 	C 	0.55593 0.44407 0.14007 0.13800
H 	H 	0.56608 0.43392 0.16277 0.00700
C 	C 	0.52583 0.47417 0.07210 -0.41400
C 	C 	0.51123 0.48877 0.03489 0.65100
C 	C 	0.44520 0.22260 0.52660 0.13400
H 	H 	0.46550 0.23275 0.50390 0.00800
C 	C 	0.38500 0.19250 0.59457 -0.40300
C 	C 	0.35580 0.17790 0.63178 0.62900
C 	C 	0.11187 0.55593 0.85993 0.13800
H 	H 	0.13217 0.56608 0.83723 0.00600
C 	C 	0.05167 0.52583 0.92790 -0.41400
C 	C 	0.02247 0.51123 0.96511 0.64900
C 	C 	0.77853 0.88927 0.19327 0.14000
H 	H 	0.79883 0.89942 0.17057 0.00600
C 	C 	0.71833 0.85917 0.26124 -0.42400
C 	C 	0.68913 0.84457 0.29845 0.67100
C 	C 	0.77740 0.55480 0.52660 0.13400
H 	H 	0.76725 0.53450 0.50390 0.00800
C 	C 	0.80750 0.61500 0.59457 -0.40300
C 	C 	0.82210 0.64420 0.63178 0.62900
C 	C 	0.44407 0.88813 0.85993 0.13800
H 	H 	0.43392 0.86783 0.83723 0.00600
C 	C 	0.47417 0.94833 0.92790 -0.41400
C 	C 	0.48877 0.97753 0.96511 0.64900
C 	C 	0.11073 0.22147 0.19327 0.14000
H 	H 	0.10058 0.20117 0.17057 0.00600
C 	C 	0.14083 0.28167 0.26124 -0.42400
C 	C 	0.15543 0.31087 0.29845 0.67100
C 	C 	0.77740 0.22260 0.52660 0.13000
H 	H 	0.76725 0.23275 0.50390 0.00900
C 	C 	0.80750 0.19250 0.59457 -0.39000
C 	C 	0.82210 0.17790 0.63178 0.60100
C 	C 	0.44407 0.55593 0.85993 0.13800
H 	H 	0.43392 0.56608 0.83723 0.00700
C 	C 	0.47417 0.52583 0.92790 -0.41400
C 	C 	0.48877 0.51123 0.96511 0.65100
C 	C 	0.11073 0.88927 0.19327 0.14200
H 	H 	0.10058 0.89942 0.17057 0.00600
C 	C 	0.14083 0.85917 0.26124 -0.43600
C 	C 	0.15543 0.84457 0.29845 0.69700
Cu	Cu	0.52348 0.47652 0.47162 0.90400
Cu	Cu	0.19015 0.80985 0.80495 0.90400
Cu	Cu	0.85682 0.14318 0.13829 0.90400
Cu	Cu	0.52348 0.04696 0.47162 0.90400
Cu	Cu	0.19015 0.38030 0.80495 0.90400
Cu	Cu	0.85682 0.71363 0.13829 0.90400
Cu	Cu	0.95304 0.47652 0.47162 0.90400
Cu	Cu	0.61970 0.80985 0.80495 0.90400
Cu	Cu	0.28637 0.14318 0.13829 0.90400
Cu	Cu	0.47652 0.52348 0.52838 0.90400
Cu	Cu	0.14318 0.85682 0.86171 0.90400
Cu	Cu	0.80985 0.19015 0.19505 0.90400
Cu	Cu	0.04696 0.52348 0.52838 0.90400
Cu	Cu	0.71363 0.85682 0.86171 0.90400
Cu	Cu	0.38030 0.19015 0.19505 0.90400
Cu	Cu	0.47652 0.95304 0.52838 0.90400
Cu	Cu	0.14318 0.28637 0.86171 0.90400
Cu	Cu	0.80985 0.61970 0.19505 0.90400
