data_crystal

_cell_length_a 18.70650
_cell_length_b 18.70650
_cell_length_c 38.48800
_cell_angle_alpha 90.00000
_cell_angle_beta  90.00000
_cell_angle_gamma 120.00000

_symmetry_space_group_name_	'P 1'
_symmetry_space_group_name_H-M	'P 1'

loop_
_symmetry_equiv_pos_as_xyz
  x,y,z

loop_
_atom_site_label
_atom_site_type_symbol
_atom_site_fract_x
_atom_site_fract_y
_atom_site_fract_z
_atom_site_charge
C 	C 	0.45310 0.36010 0.02636 0.46000
C 	C 	0.43180 0.28030 0.04362 -0.23200
C 	C 	0.40160 0.26450 0.07734 0.65300
H 	H 	0.39040 0.30190 0.08850 -0.02700
C 	C 	0.27340 0.18430 0.17790 2.58500
H 	H 	0.23120 0.19590 0.18520 -0.61100
C 	C 	0.30030 0.19700 0.14340 -4.85900
O 	O 	0.48255 0.37154 0.99606 -0.31100
O 	O 	0.44180 0.41065 0.04372 -0.28700
F 	F 	0.25250 0.22110 0.12080 -5.86700
H 	H 	0.27710 0.22000 0.12780 7.28200
C 	C 	0.11977 0.69343 0.35969 0.44100
C 	C 	0.09847 0.61363 0.37695 -0.18500
C 	C 	0.06827 0.59783 0.41067 0.55300
H 	H 	0.05707 0.63523 0.42183 0.00500
C 	C 	0.94007 0.51763 0.51123 2.41500
H 	H 	0.89787 0.52923 0.51853 -0.56500
C 	C 	0.96697 0.53033 0.47673 -4.61100
O 	O 	0.14922 0.70487 0.32939 -0.31100
O 	O 	0.10847 0.74398 0.37705 -0.28500
F 	F 	0.91917 0.55443 0.45413 -5.68100
H 	H 	0.94377 0.55333 0.46113 7.02400
C 	C 	0.78643 0.02677 0.69303 0.41700
C 	C 	0.76513 0.94697 0.71029 -0.12500
C 	C 	0.73493 0.93117 0.74401 0.44800
H 	H 	0.72373 0.96857 0.75517 0.04300
C 	C 	0.60673 0.85097 0.84457 2.23700
H 	H 	0.56453 0.86257 0.85187 -0.51500
C 	C 	0.63363 0.86367 0.81007 -4.34600
O 	O 	0.81588 0.03821 0.66273 -0.30500
O 	O 	0.77513 0.07732 0.71039 -0.28100
F 	F 	0.58583 0.88777 0.78747 -5.47400
H 	H 	0.61043 0.88667 0.79447 6.74300
C 	C 	0.63990 0.09300 0.02636 0.46000
C 	C 	0.71970 0.15150 0.04362 -0.23300
C 	C 	0.73550 0.13710 0.07734 0.65300
H 	H 	0.69810 0.08850 0.08850 -0.02800
C 	C 	0.81570 0.08910 0.17790 2.58800
H 	H 	0.80410 0.03530 0.18520 -0.61200
C 	C 	0.80300 0.10330 0.14340 -4.86200
O 	O 	0.62846 0.11101 0.99606 -0.31200
O 	O 	0.58935 0.03115 0.04372 -0.28700
F 	F 	0.77890 0.03140 0.12080 -5.86800
H 	H 	0.78000 0.05710 0.12780 7.28500
C 	C 	0.30657 0.42633 0.35969 0.44100
C 	C 	0.38637 0.48483 0.37695 -0.18400
C 	C 	0.40217 0.47043 0.41067 0.55400
H 	H 	0.36477 0.42183 0.42183 0.00600
C 	C 	0.48237 0.42243 0.51123 2.41500
H 	H 	0.47077 0.36863 0.51853 -0.56400
C 	C 	0.46967 0.43663 0.47673 -4.61100
O 	O 	0.29513 0.44434 0.32939 -0.31100
O 	O 	0.25602 0.36448 0.37705 -0.28500
F 	F 	0.44557 0.36473 0.45413 -5.68200
H 	H 	0.44667 0.39043 0.46113 7.02500
C 	C 	0.97323 0.75967 0.69303 0.41700
C 	C 	0.05303 0.81817 0.71029 -0.12300
C 	C 	0.06883 0.80377 0.74401 0.44600
H 	H 	0.03143 0.75517 0.75517 0.04400
C 	C 	0.14903 0.75577 0.84457 2.23400
H 	H 	0.13743 0.70197 0.85187 -0.51400
C 	C 	0.13633 0.76997 0.81007 -4.34100
O 	O 	0.96179 0.77768 0.66273 -0.30500
O 	O 	0.92268 0.69782 0.71039 -0.28100
F 	F 	0.11223 0.69807 0.78747 -5.47000
H 	H 	0.11333 0.72377 0.79447 6.73800
C 	C 	0.90700 0.54690 0.02636 0.46000
C 	C 	0.84850 0.56820 0.04362 -0.23300
C 	C 	0.86290 0.59840 0.07734 0.65200
H 	H 	0.91150 0.60960 0.08850 -0.02800
C 	C 	0.91090 0.72660 0.17790 2.58600
H 	H 	0.96470 0.76880 0.18520 -0.61100
C 	C 	0.89670 0.69970 0.14340 -4.86000
O 	O 	0.88899 0.51745 0.99606 -0.31200
O 	O 	0.96885 0.55820 0.04372 -0.28700
F 	F 	0.96860 0.74750 0.12080 -5.86800
H 	H 	0.94290 0.72290 0.12780 7.28400
C 	C 	0.57367 0.88023 0.35969 0.44100
C 	C 	0.51517 0.90153 0.37695 -0.18500
C 	C 	0.52957 0.93173 0.41067 0.55300
H 	H 	0.57817 0.94293 0.42183 0.00600
C 	C 	0.57757 0.05993 0.51123 2.41500
H 	H 	0.63137 0.10213 0.51853 -0.56500
C 	C 	0.56337 0.03303 0.47673 -4.61100
O 	O 	0.55566 0.85078 0.32939 -0.31100
O 	O 	0.63552 0.89153 0.37705 -0.28500
F 	F 	0.63527 0.08083 0.45413 -5.68100
H 	H 	0.60957 0.05623 0.46113 7.02400
C 	C 	0.24033 0.21357 0.69303 0.42100
C 	C 	0.18183 0.23487 0.71029 -0.12800
C 	C 	0.19623 0.26507 0.74401 0.44900
H 	H 	0.24483 0.27627 0.75517 0.04200
C 	C 	0.24423 0.39327 0.84457 2.23600
H 	H 	0.29803 0.43547 0.85187 -0.51500
C 	C 	0.23003 0.36637 0.81007 -4.34500
O 	O 	0.22232 0.18412 0.66273 -0.30500
O 	O 	0.30218 0.22487 0.71039 -0.28100
F 	F 	0.30193 0.41417 0.78747 -5.47400
H 	H 	0.27623 0.38957 0.79447 6.74200
C 	C 	0.36010 0.45310 0.97364 0.45900
C 	C 	0.28030 0.43180 0.95638 -0.23300
C 	C 	0.26450 0.40160 0.92266 0.65200
H 	H 	0.30190 0.39040 0.91150 -0.02800
C 	C 	0.18430 0.27340 0.82210 2.58500
H 	H 	0.19590 0.23120 0.81480 -0.61100
C 	C 	0.19700 0.30030 0.85660 -4.85900
O 	O 	0.37154 0.48255 0.00394 -0.31100
O 	O 	0.41065 0.44180 0.95628 -0.28700
F 	F 	0.22110 0.25250 0.87920 -5.86700
H 	H 	0.22000 0.27710 0.87220 7.28200
C 	C 	0.02677 0.78643 0.30697 0.41700
C 	C 	0.94697 0.76513 0.28971 -0.12500
C 	C 	0.93117 0.73493 0.25599 0.44800
H 	H 	0.96857 0.72373 0.24483 0.04300
C 	C 	0.85097 0.60673 0.15543 2.23700
H 	H 	0.86257 0.56453 0.14813 -0.51500
C 	C 	0.86367 0.63363 0.18993 -4.34600
O 	O 	0.03821 0.81588 0.33727 -0.30500
O 	O 	0.07732 0.77513 0.28961 -0.28100
F 	F 	0.88777 0.58583 0.21253 -5.47400
H 	H 	0.88667 0.61043 0.20553 6.74300
C 	C 	0.69343 0.11977 0.64031 0.44100
C 	C 	0.61363 0.09847 0.62305 -0.18500
C 	C 	0.59783 0.06827 0.58933 0.55300
H 	H 	0.63523 0.05707 0.57817 0.00500
C 	C 	0.51763 0.94007 0.48877 2.41500
H 	H 	0.52923 0.89787 0.48147 -0.56500
C 	C 	0.53033 0.96697 0.52327 -4.61100
O 	O 	0.70487 0.14922 0.67061 -0.31100
O 	O 	0.74398 0.10847 0.62295 -0.28500
F 	F 	0.55443 0.91917 0.54587 -5.68100
H 	H 	0.55333 0.94377 0.53887 7.02400
C 	C 	0.09300 0.63990 0.97364 0.46000
C 	C 	0.15150 0.71970 0.95638 -0.23300
C 	C 	0.13710 0.73550 0.92266 0.65300
H 	H 	0.08850 0.69810 0.91150 -0.02800
C 	C 	0.08910 0.81570 0.82210 2.58800
H 	H 	0.03530 0.80410 0.81480 -0.61200
C 	C 	0.10330 0.80300 0.85660 -4.86200
O 	O 	0.11101 0.62846 0.00394 -0.31200
O 	O 	0.03115 0.58935 0.95628 -0.28700
F 	F 	0.03140 0.77890 0.87920 -5.86800
H 	H 	0.05710 0.78000 0.87220 7.28500
C 	C 	0.75967 0.97323 0.30697 0.41700
C 	C 	0.81817 0.05303 0.28971 -0.12300
C 	C 	0.80377 0.06883 0.25599 0.44600
H 	H 	0.75517 0.03143 0.24483 0.04400
C 	C 	0.75577 0.14903 0.15543 2.23400
H 	H 	0.70197 0.13743 0.14813 -0.51400
C 	C 	0.76997 0.13633 0.18993 -4.34100
O 	O 	0.77768 0.96179 0.33727 -0.30500
O 	O 	0.69782 0.92268 0.28961 -0.28100
F 	F 	0.69807 0.11223 0.21253 -5.47000
H 	H 	0.72377 0.11333 0.20553 6.73800
C 	C 	0.42633 0.30657 0.64031 0.44100
C 	C 	0.48483 0.38637 0.62305 -0.18400
C 	C 	0.47043 0.40217 0.58933 0.55400
H 	H 	0.42183 0.36477 0.57817 0.00600
C 	C 	0.42243 0.48237 0.48877 2.41500
H 	H 	0.36863 0.47077 0.48147 -0.56400
C 	C 	0.43663 0.46967 0.52327 -4.61100
O 	O 	0.44434 0.29513 0.67061 -0.31100
O 	O 	0.36448 0.25602 0.62295 -0.28500
F 	F 	0.36473 0.44557 0.54587 -5.68200
H 	H 	0.39043 0.44667 0.53887 7.02500
C 	C 	0.54690 0.90700 0.97364 0.46000
C 	C 	0.56820 0.84850 0.95638 -0.23300
C 	C 	0.59840 0.86290 0.92266 0.65200
H 	H 	0.60960 0.91150 0.91150 -0.02800
C 	C 	0.72660 0.91090 0.82210 2.58600
H 	H 	0.76880 0.96470 0.81480 -0.61100
C 	C 	0.69970 0.89670 0.85660 -4.86000
O 	O 	0.51745 0.88899 0.00394 -0.31200
O 	O 	0.55820 0.96885 0.95628 -0.28700
F 	F 	0.74750 0.96860 0.87920 -5.86800
H 	H 	0.72290 0.94290 0.87220 7.28400
C 	C 	0.21357 0.24033 0.30697 0.42100
C 	C 	0.23487 0.18183 0.28971 -0.12800
C 	C 	0.26507 0.19623 0.25599 0.44900
H 	H 	0.27627 0.24483 0.24483 0.04200
C 	C 	0.39327 0.24423 0.15543 2.23600
H 	H 	0.43547 0.29803 0.14813 -0.51500
C 	C 	0.36637 0.23003 0.18993 -4.34500
O 	O 	0.18412 0.22232 0.33727 -0.30500
O 	O 	0.22487 0.30218 0.28961 -0.28100
F 	F 	0.41417 0.30193 0.21253 -5.47400
H 	H 	0.38957 0.27623 0.20553 6.74200
C 	C 	0.88023 0.57367 0.64031 0.44100
C 	C 	0.90153 0.51517 0.62305 -0.18500
C 	C 	0.93173 0.52957 0.58933 0.55300
H 	H 	0.94293 0.57817 0.57817 0.00600
C 	C 	0.05993 0.57757 0.48877 2.41500
H 	H 	0.10213 0.63137 0.48147 -0.56500
C 	C 	0.03303 0.56337 0.52327 -4.61100
O 	O 	0.85078 0.55566 0.67061 -0.31100
O 	O 	0.89153 0.63552 0.62295 -0.28500
F 	F 	0.08083 0.63527 0.54587 -5.68100
H 	H 	0.05623 0.60957 0.53887 7.02400
C 	C 	0.54690 0.63990 0.97364 0.45900
C 	C 	0.56820 0.71970 0.95638 -0.23300
C 	C 	0.59840 0.73550 0.92266 0.65200
H 	H 	0.60960 0.69810 0.91150 -0.02800
C 	C 	0.72660 0.81570 0.82210 2.58500
H 	H 	0.76880 0.80410 0.81480 -0.61100
C 	C 	0.69970 0.80300 0.85660 -4.85900
O 	O 	0.51745 0.62846 0.00394 -0.31100
O 	O 	0.55820 0.58935 0.95628 -0.28700
F 	F 	0.74750 0.77890 0.87920 -5.86700
H 	H 	0.72290 0.78000 0.87220 7.28200
C 	C 	0.21357 0.97323 0.30697 0.41700
C 	C 	0.23487 0.05303 0.28971 -0.12500
C 	C 	0.26507 0.06883 0.25599 0.44800
H 	H 	0.27627 0.03143 0.24483 0.04300
C 	C 	0.39327 0.14903 0.15543 2.23700
H 	H 	0.43547 0.13743 0.14813 -0.51500
C 	C 	0.36637 0.13633 0.18993 -4.34600
O 	O 	0.18412 0.96179 0.33727 -0.30500
O 	O 	0.22487 0.92268 0.28961 -0.28100
F 	F 	0.41417 0.11223 0.21253 -5.47400
H 	H 	0.38957 0.11333 0.20553 6.74300
C 	C 	0.88023 0.30657 0.64031 0.44100
C 	C 	0.90153 0.38637 0.62305 -0.18500
C 	C 	0.93173 0.40217 0.58933 0.55300
H 	H 	0.94293 0.36477 0.57817 0.00500
C 	C 	0.05993 0.48237 0.48877 2.41500
H 	H 	0.10213 0.47077 0.48147 -0.56500
C 	C 	0.03303 0.46967 0.52327 -4.61100
O 	O 	0.85078 0.29513 0.67061 -0.31100
O 	O 	0.89153 0.25602 0.62295 -0.28500
F 	F 	0.08083 0.44557 0.54587 -5.68100
H 	H 	0.05623 0.44667 0.53887 7.02400
C 	C 	0.36010 0.90700 0.97364 0.46000
C 	C 	0.28030 0.84850 0.95638 -0.23300
C 	C 	0.26450 0.86290 0.92266 0.65300
H 	H 	0.30190 0.91150 0.91150 -0.02800
C 	C 	0.18430 0.91090 0.82210 2.58800
H 	H 	0.19590 0.96470 0.81480 -0.61200
C 	C 	0.19700 0.89670 0.85660 -4.86200
O 	O 	0.37154 0.88899 0.00394 -0.31200
O 	O 	0.41065 0.96885 0.95628 -0.28700
F 	F 	0.22110 0.96860 0.87920 -5.86800
H 	H 	0.22000 0.94290 0.87220 7.28500
C 	C 	0.02677 0.24033 0.30697 0.41700
C 	C 	0.94697 0.18183 0.28971 -0.12300
C 	C 	0.93117 0.19623 0.25599 0.44600
H 	H 	0.96857 0.24483 0.24483 0.04400
C 	C 	0.85097 0.24423 0.15543 2.23400
H 	H 	0.86257 0.29803 0.14813 -0.51400
C 	C 	0.86367 0.23003 0.18993 -4.34100
O 	O 	0.03821 0.22232 0.33727 -0.30500
O 	O 	0.07732 0.30218 0.28961 -0.28100
F 	F 	0.88777 0.30193 0.21253 -5.47000
H 	H 	0.88667 0.27623 0.20553 6.73800
C 	C 	0.69343 0.57367 0.64031 0.44100
C 	C 	0.61363 0.51517 0.62305 -0.18400
C 	C 	0.59783 0.52957 0.58933 0.55400
H 	H 	0.63523 0.57817 0.57817 0.00600
C 	C 	0.51763 0.57757 0.48877 2.41500
H 	H 	0.52923 0.63137 0.48147 -0.56400
C 	C 	0.53033 0.56337 0.52327 -4.61100
O 	O 	0.70487 0.55566 0.67061 -0.31100
O 	O 	0.74398 0.63552 0.62295 -0.28500
F 	F 	0.55443 0.63527 0.54587 -5.68200
H 	H 	0.55333 0.60957 0.53887 7.02500
C 	C 	0.09300 0.45310 0.97364 0.46000
C 	C 	0.15150 0.43180 0.95638 -0.23300
C 	C 	0.13710 0.40160 0.92266 0.65200
H 	H 	0.08850 0.39040 0.91150 -0.02800
C 	C 	0.08910 0.27340 0.82210 2.58600
H 	H 	0.03530 0.23120 0.81480 -0.61100
C 	C 	0.10330 0.30030 0.85660 -4.86000
O 	O 	0.11101 0.48255 0.00394 -0.31200
O 	O 	0.03115 0.44180 0.95628 -0.28700
F 	F 	0.03140 0.25250 0.87920 -5.86800
H 	H 	0.05710 0.27710 0.87220 7.28400
C 	C 	0.75967 0.78643 0.30697 0.42100
C 	C 	0.81817 0.76513 0.28971 -0.12800
C 	C 	0.80377 0.73493 0.25599 0.44900
H 	H 	0.75517 0.72373 0.24483 0.04200
C 	C 	0.75577 0.60673 0.15543 2.23600
H 	H 	0.70197 0.56453 0.14813 -0.51500
C 	C 	0.76997 0.63363 0.18993 -4.34500
O 	O 	0.77768 0.81588 0.33727 -0.30500
O 	O 	0.69782 0.77513 0.28961 -0.28100
F 	F 	0.69807 0.58583 0.21253 -5.47400
H 	H 	0.72377 0.61043 0.20553 6.74200
C 	C 	0.42633 0.11977 0.64031 0.44100
C 	C 	0.48483 0.09847 0.62305 -0.18500
C 	C 	0.47043 0.06827 0.58933 0.55300
H 	H 	0.42183 0.05707 0.57817 0.00600
C 	C 	0.42243 0.94007 0.48877 2.41500
H 	H 	0.36863 0.89787 0.48147 -0.56500
C 	C 	0.43663 0.96697 0.52327 -4.61100
O 	O 	0.44434 0.14922 0.67061 -0.31100
O 	O 	0.36448 0.10847 0.62295 -0.28500
F 	F 	0.36473 0.91917 0.54587 -5.68100
H 	H 	0.39043 0.94377 0.53887 7.02400
C 	C 	0.63990 0.54690 0.02636 0.45900
C 	C 	0.71970 0.56820 0.04362 -0.23300
C 	C 	0.73550 0.59840 0.07734 0.65200
H 	H 	0.69810 0.60960 0.08850 -0.02800
C 	C 	0.81570 0.72660 0.17790 2.58500
H 	H 	0.80410 0.76880 0.18520 -0.61100
C 	C 	0.80300 0.69970 0.14340 -4.85900
O 	O 	0.62846 0.51745 0.99606 -0.31100
O 	O 	0.58935 0.55820 0.04372 -0.28700
F 	F 	0.77890 0.74750 0.12080 -5.86700
H 	H 	0.78000 0.72290 0.12780 7.28200
C 	C 	0.30657 0.88023 0.35969 0.44100
C 	C 	0.38637 0.90153 0.37695 -0.18500
C 	C 	0.40217 0.93173 0.41067 0.55300
H 	H 	0.36477 0.94293 0.42183 0.00500
C 	C 	0.48237 0.05993 0.51123 2.41500
H 	H 	0.47077 0.10213 0.51853 -0.56500
C 	C 	0.46967 0.03303 0.47673 -4.61100
O 	O 	0.29513 0.85078 0.32939 -0.31100
O 	O 	0.25602 0.89153 0.37705 -0.28500
F 	F 	0.44557 0.08083 0.45413 -5.68100
H 	H 	0.44667 0.05623 0.46113 7.02400
C 	C 	0.97323 0.21357 0.69303 0.41700
C 	C 	0.05303 0.23487 0.71029 -0.12500
C 	C 	0.06883 0.26507 0.74401 0.44800
H 	H 	0.03143 0.27627 0.75517 0.04300
C 	C 	0.14903 0.39327 0.84457 2.23700
H 	H 	0.13743 0.43547 0.85187 -0.51500
C 	C 	0.13633 0.36637 0.81007 -4.34600
O 	O 	0.96179 0.18412 0.66273 -0.30500
O 	O 	0.92268 0.22487 0.71039 -0.28100
F 	F 	0.11223 0.41417 0.78747 -5.47400
H 	H 	0.11333 0.38957 0.79447 6.74300
C 	C 	0.90700 0.36010 0.02636 0.46000
C 	C 	0.84850 0.28030 0.04362 -0.23300
C 	C 	0.86290 0.26450 0.07734 0.65300
H 	H 	0.91150 0.30190 0.08850 -0.02800
C 	C 	0.91090 0.18430 0.17790 2.58800
H 	H 	0.96470 0.19590 0.18520 -0.61200
C 	C 	0.89670 0.19700 0.14340 -4.86200
O 	O 	0.88899 0.37154 0.99606 -0.31200
O 	O 	0.96885 0.41065 0.04372 -0.28700
F 	F 	0.96860 0.22110 0.12080 -5.86800
H 	H 	0.94290 0.22000 0.12780 7.28500
C 	C 	0.57367 0.69343 0.35969 0.44100
C 	C 	0.51517 0.61363 0.37695 -0.18400
C 	C 	0.52957 0.59783 0.41067 0.55400
H 	H 	0.57817 0.63523 0.42183 0.00600
C 	C 	0.57757 0.51763 0.51123 2.41500
H 	H 	0.63137 0.52923 0.51853 -0.56400
C 	C 	0.56337 0.53033 0.47673 -4.61100
O 	O 	0.55566 0.70487 0.32939 -0.31100
O 	O 	0.63552 0.74398 0.37705 -0.28500
F 	F 	0.63527 0.55443 0.45413 -5.68200
H 	H 	0.60957 0.55333 0.46113 7.02500
C 	C 	0.24033 0.02677 0.69303 0.41700
C 	C 	0.18183 0.94697 0.71029 -0.12300
C 	C 	0.19623 0.93117 0.74401 0.44600
H 	H 	0.24483 0.96857 0.75517 0.04400
C 	C 	0.24423 0.85097 0.84457 2.23400
H 	H 	0.29803 0.86257 0.85187 -0.51400
C 	C 	0.23003 0.86367 0.81007 -4.34100
O 	O 	0.22232 0.03821 0.66273 -0.30500
O 	O 	0.30218 0.07732 0.71039 -0.28100
F 	F 	0.30193 0.88777 0.78747 -5.47000
H 	H 	0.27623 0.88667 0.79447 6.73800
C 	C 	0.45310 0.09300 0.02636 0.46000
C 	C 	0.43180 0.15150 0.04362 -0.23300
C 	C 	0.40160 0.13710 0.07734 0.65200
H 	H 	0.39040 0.08850 0.08850 -0.02800
C 	C 	0.27340 0.08910 0.17790 2.58600
H 	H 	0.23120 0.03530 0.18520 -0.61100
C 	C 	0.30030 0.10330 0.14340 -4.86000
O 	O 	0.48255 0.11101 0.99606 -0.31200
O 	O 	0.44180 0.03115 0.04372 -0.28700
F 	F 	0.25250 0.03140 0.12080 -5.86800
H 	H 	0.27710 0.05710 0.12780 7.28400
C 	C 	0.11977 0.42633 0.35969 0.44100
C 	C 	0.09847 0.48483 0.37695 -0.18500
C 	C 	0.06827 0.47043 0.41067 0.55300
H 	H 	0.05707 0.42183 0.42183 0.00600
C 	C 	0.94007 0.42243 0.51123 2.41500
H 	H 	0.89787 0.36863 0.51853 -0.56500
C 	C 	0.96697 0.43663 0.47673 -4.61100
O 	O 	0.14922 0.44434 0.32939 -0.31100
O 	O 	0.10847 0.36448 0.37705 -0.28500
F 	F 	0.91917 0.36473 0.45413 -5.68100
H 	H 	0.94377 0.39043 0.46113 7.02400
C 	C 	0.78643 0.75967 0.69303 0.42100
C 	C 	0.76513 0.81817 0.71029 -0.12800
C 	C 	0.73493 0.80377 0.74401 0.44900
H 	H 	0.72373 0.75517 0.75517 0.04200
C 	C 	0.60673 0.75577 0.84457 2.23600
H 	H 	0.56453 0.70197 0.85187 -0.51500
C 	C 	0.63363 0.76997 0.81007 -4.34500
O 	O 	0.81588 0.77768 0.66273 -0.30500
O 	O 	0.77513 0.69782 0.71039 -0.28100
F 	F 	0.58583 0.69807 0.78747 -5.47400
H 	H 	0.61043 0.72377 0.79447 6.74200
C 	C 	0.44680 0.22340 0.02691 0.31000
H 	H 	0.46700 0.23350 0.00430 0.06500
C 	C 	0.38780 0.19390 0.09475 -0.93000
C 	C 	0.35870 0.17935 0.13153 2.18500
C 	C 	0.11347 0.55673 0.36024 0.26000
H 	H 	0.13367 0.56683 0.33763 0.07700
C 	C 	0.05447 0.52723 0.42808 -0.77500
C 	C 	0.02537 0.51268 0.46486 1.86300
C 	C 	0.78013 0.89007 0.69358 0.20500
H 	H 	0.80033 0.90017 0.67097 0.09700
C 	C 	0.72113 0.86057 0.76142 -0.61300
C 	C 	0.69203 0.84602 0.79820 1.53400
C 	C 	0.77660 0.22340 0.02691 0.31100
H 	H 	0.76650 0.23350 0.00430 0.06500
C 	C 	0.80610 0.19390 0.09475 -0.93100
C 	C 	0.82065 0.17935 0.13153 2.18800
C 	C 	0.44327 0.55673 0.36024 0.26000
H 	H 	0.43317 0.56683 0.33763 0.07700
C 	C 	0.47277 0.52723 0.42808 -0.77600
C 	C 	0.48732 0.51268 0.46486 1.86500
C 	C 	0.10993 0.89007 0.69358 0.20300
H 	H 	0.09983 0.90017 0.67097 0.09900
C 	C 	0.13943 0.86057 0.76142 -0.60900
C 	C 	0.15398 0.84602 0.79820 1.52900
C 	C 	0.77660 0.55320 0.02691 0.31000
H 	H 	0.76650 0.53300 0.00430 0.06500
C 	C 	0.80610 0.61220 0.09475 -0.93000
C 	C 	0.82065 0.64130 0.13153 2.18500
C 	C 	0.44327 0.88653 0.36024 0.26000
H 	H 	0.43317 0.86633 0.33763 0.07700
C 	C 	0.47277 0.94553 0.42808 -0.77500
C 	C 	0.48732 0.97463 0.46486 1.86300
C 	C 	0.10993 0.21987 0.69358 0.20500
H 	H 	0.09983 0.19967 0.67097 0.09700
C 	C 	0.13943 0.27887 0.76142 -0.61300
C 	C 	0.15398 0.30797 0.79820 1.53400
C 	C 	0.22340 0.44680 0.97309 0.31000
H 	H 	0.23350 0.46700 0.99570 0.06500
C 	C 	0.19390 0.38780 0.90525 -0.93000
C 	C 	0.17935 0.35870 0.86847 2.18500
C 	C 	0.89007 0.78013 0.30642 0.20500
H 	H 	0.90017 0.80033 0.32903 0.09700
C 	C 	0.86057 0.72113 0.23858 -0.61300
C 	C 	0.84602 0.69203 0.20180 1.53400
C 	C 	0.55673 0.11347 0.63976 0.26000
H 	H 	0.56683 0.13367 0.66237 0.07700
C 	C 	0.52723 0.05447 0.57192 -0.77500
C 	C 	0.51268 0.02537 0.53514 1.86300
C 	C 	0.22340 0.77660 0.97309 0.31100
H 	H 	0.23350 0.76650 0.99570 0.06500
C 	C 	0.19390 0.80610 0.90525 -0.93100
C 	C 	0.17935 0.82065 0.86847 2.18800
C 	C 	0.89007 0.10993 0.30642 0.20300
H 	H 	0.90017 0.09983 0.32903 0.09900
C 	C 	0.86057 0.13943 0.23858 -0.60900
C 	C 	0.84602 0.15398 0.20180 1.52900
C 	C 	0.55673 0.44327 0.63976 0.26000
H 	H 	0.56683 0.43317 0.66237 0.07700
C 	C 	0.52723 0.47277 0.57192 -0.77600
C 	C 	0.51268 0.48732 0.53514 1.86500
C 	C 	0.55320 0.77660 0.97309 0.31000
H 	H 	0.53300 0.76650 0.99570 0.06500
C 	C 	0.61220 0.80610 0.90525 -0.93000
C 	C 	0.64130 0.82065 0.86847 2.18500
C 	C 	0.21987 0.10993 0.30642 0.20500
H 	H 	0.19967 0.09983 0.32903 0.09700
C 	C 	0.27887 0.13943 0.23858 -0.61300
C 	C 	0.30797 0.15398 0.20180 1.53400
C 	C 	0.88653 0.44327 0.63976 0.26000
H 	H 	0.86633 0.43317 0.66237 0.07700
C 	C 	0.94553 0.47277 0.57192 -0.77500
C 	C 	0.97463 0.48732 0.53514 1.86300
Cu	Cu	0.52331 0.47669 0.97161 0.95600
Cu	Cu	0.18998 0.81002 0.30494 0.95400
Cu	Cu	0.85664 0.14336 0.63828 0.95500
Cu	Cu	0.52331 0.04662 0.97161 0.95600
Cu	Cu	0.18998 0.37995 0.30494 0.95400
Cu	Cu	0.85664 0.71329 0.63828 0.95500
Cu	Cu	0.95338 0.47669 0.97161 0.95600
Cu	Cu	0.62005 0.81002 0.30494 0.95400
Cu	Cu	0.28671 0.14336 0.63828 0.95500
Cu	Cu	0.47669 0.52331 0.02839 0.95600
Cu	Cu	0.14336 0.85664 0.36172 0.95500
Cu	Cu	0.81002 0.18998 0.69506 0.95400
Cu	Cu	0.04662 0.52331 0.02839 0.95600
Cu	Cu	0.71329 0.85664 0.36172 0.95500
Cu	Cu	0.37995 0.18998 0.69506 0.95400
Cu	Cu	0.47669 0.95338 0.02839 0.95600
Cu	Cu	0.14336 0.28671 0.36172 0.95500
Cu	Cu	0.81002 0.62005 0.69506 0.95400
