data_crystal

_cell_length_a 7.81990
_cell_length_b 10.49710
_cell_length_c 19.08100
_cell_angle_alpha 90.00000
_cell_angle_beta  90.00000
_cell_angle_gamma 90.00000

_symmetry_space_group_name_	'P 1'
_symmetry_space_group_name_H-M	'P 1'

loop_
_symmetry_equiv_pos_as_xyz
  x,y,z

loop_
_atom_site_label
_atom_site_type_symbol
_atom_site_fract_x
_atom_site_fract_y
_atom_site_fract_z
_atom_site_charge
Cu	Cu	0.24946 0.41054 0.12240 0.90000
Cu	Cu	0.25054 0.58946 0.62240 0.90000
Cu	Cu	0.75054 0.91054 0.37760 0.90000
Cu	Cu	0.74946 0.08946 0.87760 0.90100
H 	H 	0.85270 0.51210 0.06710 0.08100
H 	H 	0.27060 0.53120 0.34130 0.03600
H 	H 	0.03100 0.79220 0.46070 0.02200
H 	H 	0.61870 0.38760 0.09390 0.00100
H 	H 	0.31650 0.68800 0.09350 0.01100
H 	H 	0.92720 0.77590 0.25880 0.02000
H 	H 	0.81970 0.73160 0.05580 0.02800
H 	H 	0.54420 0.81810 0.06320 0.10000
H 	H 	0.64730 0.48790 0.56710 0.08100
H 	H 	0.22940 0.46880 0.84130 0.03600
H 	H 	0.46900 0.20780 0.96070 0.02200
H 	H 	0.88130 0.61240 0.59390 0.00000
H 	H 	0.18350 0.31200 0.59350 0.01100
H 	H 	0.57280 0.22410 0.75880 0.02000
H 	H 	0.68030 0.26840 0.55580 0.02900
H 	H 	0.95580 0.18190 0.56320 0.10100
H 	H 	0.14730 0.01210 0.43290 0.08100
H 	H 	0.72940 0.03120 0.15870 0.03600
H 	H 	0.96900 0.29220 0.03930 0.02200
H 	H 	0.38130 0.88760 0.40610 0.00100
H 	H 	0.68350 0.18800 0.40650 0.01200
H 	H 	0.07280 0.27590 0.24120 0.02000
H 	H 	0.18030 0.23160 0.44420 0.02900
H 	H 	0.45580 0.31810 0.43680 0.10000
H 	H 	0.35270 0.98790 0.93290 0.08100
H 	H 	0.77060 0.96880 0.65870 0.03600
H 	H 	0.53100 0.70780 0.53930 0.02200
H 	H 	0.11870 0.11240 0.90610 0.00100
H 	H 	0.81650 0.81200 0.90650 0.01100
H 	H 	0.42720 0.72410 0.74120 0.02000
H 	H 	0.31970 0.76840 0.94420 0.02900
H 	H 	0.04420 0.68190 0.93680 0.10100
C 	C 	0.25150 0.60700 0.47669 0.34300
C 	C 	0.12810 0.59020 0.21586 0.33400
C 	C 	0.16490 0.65370 0.41100 -0.12400
C 	C 	0.74340 0.55030 0.07270 -0.11900
C 	C 	0.19180 0.59950 0.34619 0.06200
C 	C 	0.10420 0.64440 0.28820 -0.11900
C 	C 	0.04800 0.75330 0.41624 0.07400
C 	C 	0.60370 0.47690 0.08870 0.07700
C 	C 	0.42690 0.65150 0.08810 0.08300
C 	C 	0.98780 0.74420 0.29828 0.07100
C 	C 	0.72390 0.67860 0.06500 0.06500
C 	C 	0.56230 0.72970 0.07090 -0.13300
C 	C 	0.24850 0.39300 0.97669 0.34300
C 	C 	0.37190 0.40980 0.71586 0.33400
C 	C 	0.33510 0.34630 0.91100 -0.12400
C 	C 	0.75660 0.44970 0.57270 -0.11900
C 	C 	0.30820 0.40050 0.84619 0.06300
C 	C 	0.39580 0.35560 0.78820 -0.11900
C 	C 	0.45200 0.24670 0.91624 0.07400
C 	C 	0.89630 0.52310 0.58870 0.07700
C 	C 	0.07310 0.34850 0.58810 0.08300
C 	C 	0.51220 0.25580 0.79828 0.07200
C 	C 	0.77610 0.32140 0.56500 0.06500
C 	C 	0.93770 0.27030 0.57090 -0.13300
C 	C 	0.74850 0.10700 0.02331 0.34300
C 	C 	0.87190 0.09020 0.28414 0.33500
C 	C 	0.83510 0.15370 0.08900 -0.12400
C 	C 	0.25660 0.05030 0.42730 -0.11700
C 	C 	0.80820 0.09950 0.15381 0.06300
C 	C 	0.89580 0.14440 0.21180 -0.12000
C 	C 	0.95200 0.25330 0.08376 0.07300
C 	C 	0.39630 0.97690 0.41130 0.07500
C 	C 	0.57310 0.15150 0.41190 0.08300
C 	C 	0.01220 0.24420 0.20172 0.07300
C 	C 	0.27610 0.17860 0.43500 0.06400
C 	C 	0.43770 0.22970 0.42910 -0.13200
C 	C 	0.75150 0.89300 0.52331 0.34300
C 	C 	0.62810 0.90980 0.78414 0.33400
C 	C 	0.66490 0.84630 0.58900 -0.12400
C 	C 	0.24340 0.94970 0.92730 -0.11900
C 	C 	0.69180 0.90050 0.65381 0.06300
C 	C 	0.60420 0.85560 0.71180 -0.11900
C 	C 	0.54800 0.74670 0.58376 0.07400
C 	C 	0.10370 0.02310 0.91130 0.07600
C 	C 	0.92690 0.84850 0.91190 0.08400
C 	C 	0.48780 0.75580 0.70172 0.07200
C 	C 	0.22390 0.82140 0.93500 0.06500
C 	C 	0.06230 0.77030 0.92910 -0.13300
N 	N 	0.44590 0.52620 0.09737 -0.21800
N 	N 	0.95780 0.79710 0.36096 -0.21600
N 	N 	0.05410 0.47380 0.59737 -0.21800
N 	N 	0.54220 0.20290 0.86096 -0.21600
N 	N 	0.55410 0.02620 0.40263 -0.21700
N 	N 	0.04220 0.29710 0.13904 -0.21600
N 	N 	0.94590 0.97380 0.90263 -0.21700
N 	N 	0.45780 0.70290 0.63904 -0.21600
O 	O 	0.22160 0.48950 0.21402 -0.39300
O 	O 	0.21400 0.67030 0.53177 -0.39600
O 	O 	0.06000 0.64060 0.16499 -0.29400
O 	O 	0.34780 0.51490 0.47380 -0.29900
O 	O 	0.27840 0.51050 0.71402 -0.39300
O 	O 	0.28600 0.32970 0.03177 -0.39600
O 	O 	0.44000 0.35940 0.66499 -0.29400
O 	O 	0.15220 0.48510 0.97380 -0.29800
O 	O 	0.77840 0.98950 0.28598 -0.39400
O 	O 	0.78600 0.17030 0.96823 -0.39600
O 	O 	0.94000 0.14060 0.33501 -0.29500
O 	O 	0.65220 0.01490 0.02620 -0.29800
O 	O 	0.72160 0.01050 0.78598 -0.39400
O 	O 	0.71400 0.82970 0.46823 -0.39600
O 	O 	0.56000 0.85940 0.83501 -0.29500
O 	O 	0.84780 0.98510 0.52620 -0.29900
