data_crystal

_cell_length_a 27.62500
_cell_length_b 9.90640
_cell_length_c 15.54030
_cell_angle_alpha 90.00000
_cell_angle_beta  119.74200
_cell_angle_gamma 90.00000

_symmetry_space_group_name_	'P 1'
_symmetry_space_group_name_H-M	'P 1'

loop_
_symmetry_equiv_pos_as_xyz
  x,y,z

loop_
_atom_site_label
_atom_site_type_symbol
_atom_site_fract_x
_atom_site_fract_y
_atom_site_fract_z
_atom_site_charge
Co	Co	0.20951 0.13713 0.46752 1.16000
O 	O 	0.23585 0.39080 0.38510 -0.45200
O 	O 	0.16830 0.23510 0.33570 -0.42700
O 	O 	0.23294 0.57710 0.06980 -0.45700
O 	O 	0.16759 0.73680 0.01310 -0.42700
N 	N 	0.01251 0.47570 0.04240 -0.08200
N 	N 	0.16190 0.96840 0.44670 -0.23700
C 	C 	0.15740 0.55150 0.09750 -0.06700
C 	C 	0.18710 0.48010 0.18610 0.00000
H 	H 	0.22590 0.48050 0.21960 0.04200
C 	C 	0.09950 0.55380 0.04830 -0.05800
H 	H 	0.07960 0.60450 0.99080 0.07800
C 	C 	0.19030 0.33850 0.32240 0.36100
C 	C 	0.15880 0.40880 0.22430 -0.06900
C 	C 	0.10090 0.40550 0.17410 -0.05600
H 	H 	0.08180 0.35540 0.19850 0.07400
C 	C 	0.07190 0.47890 0.08660 0.09400
C 	C 	0.18850 0.62880 0.05670 0.38100
N 	N 	0.10900 0.78950 0.38890 -0.18500
C 	C 	0.14350 0.87870 0.37840 0.13100
C 	C 	0.14210 0.93650 0.50860 -0.01800
H 	H 	0.14870 0.98470 0.56480 0.03700
C 	C 	0.11130 0.82270 0.47470 0.04600
H 	H 	0.09460 0.77590 0.50510 0.02400
C 	C 	0.16490 0.86080 0.30300 -0.10300
H 	H 	0.17470 0.94840 0.28830 0.05900
H 	H 	0.13520 0.82360 0.24170 0.08400
C 	C 	0.21840 0.76270 0.34540 -0.41200
H 	H 	0.24640 0.79390 0.40950 0.15200
H 	H 	0.23320 0.76320 0.30100 0.15800
H 	H 	0.20760 0.67250 0.35100 0.15600
C 	C 	0.03190 0.62470 0.31250 0.19500
C 	C 	0.09420 0.64930 0.33380 2.23600
C 	C 	0.00750 0.72770 0.29090 0.40100
C 	C 	0.94160 0.70100 0.19130 -1.78600
H 	H 	0.94860 0.63920 0.15050 0.22500
H 	H 	0.92390 0.64710 0.22010 -0.25200
H 	H 	0.01310 0.56040 0.25890 -0.01700
H 	H 	0.03280 0.58790 0.37110 -0.09900
H 	H 	0.02720 0.79340 0.27350 0.21000
H 	H 	0.00480 0.76250 0.34670 -0.06100
H 	H 	0.11920 0.57880 0.37560 -0.71400
H 	H 	0.09550 0.65400 0.27270 -0.32500
Co	Co	0.70951 0.63713 0.46752 1.16000
O 	O 	0.73585 0.89080 0.38510 -0.45300
O 	O 	0.66830 0.73510 0.33570 -0.42700
O 	O 	0.73294 0.07710 0.06980 -0.45800
O 	O 	0.66759 0.23680 0.01310 -0.42800
N 	N 	0.51251 0.97570 0.04240 -0.08200
N 	N 	0.66190 0.46840 0.44670 -0.23700
C 	C 	0.65740 0.05150 0.09750 -0.06600
C 	C 	0.68710 0.98010 0.18610 0.00000
H 	H 	0.72590 0.98050 0.21960 0.04200
C 	C 	0.59950 0.05380 0.04830 -0.06500
H 	H 	0.57960 0.10450 0.99080 0.08200
C 	C 	0.69030 0.83850 0.32240 0.36100
C 	C 	0.65880 0.90880 0.22430 -0.06800
C 	C 	0.60090 0.90550 0.17410 -0.05700
H 	H 	0.58180 0.85540 0.19850 0.07400
C 	C 	0.57190 0.97890 0.08660 0.09800
C 	C 	0.68850 0.12880 0.05670 0.38000
N 	N 	0.60900 0.28950 0.38890 -0.18500
C 	C 	0.64350 0.37870 0.37840 0.13100
C 	C 	0.64210 0.43650 0.50860 -0.01800
H 	H 	0.64870 0.48470 0.56480 0.03800
C 	C 	0.61130 0.32270 0.47470 0.04700
H 	H 	0.59460 0.27590 0.50510 0.02400
C 	C 	0.66490 0.36080 0.30300 -0.10300
H 	H 	0.67470 0.44840 0.28830 0.05900
H 	H 	0.63520 0.32360 0.24170 0.08400
C 	C 	0.71840 0.26270 0.34540 -0.41200
H 	H 	0.74640 0.29390 0.40950 0.15200
H 	H 	0.73320 0.26320 0.30100 0.15800
H 	H 	0.70760 0.17250 0.35100 0.15600
C 	C 	0.53190 0.12470 0.31250 0.19500
C 	C 	0.59420 0.14930 0.33380 2.23600
C 	C 	0.50750 0.22770 0.29090 0.40000
C 	C 	0.44160 0.20100 0.19130 -1.78600
H 	H 	0.44860 0.13920 0.15050 0.22500
H 	H 	0.42390 0.14710 0.22010 -0.25100
H 	H 	0.51310 0.06040 0.25890 -0.01700
H 	H 	0.53280 0.08790 0.37110 -0.09900
H 	H 	0.52720 0.29340 0.27350 0.21000
H 	H 	0.50480 0.26250 0.34670 -0.06100
H 	H 	0.61920 0.07880 0.37560 -0.71400
H 	H 	0.59550 0.15400 0.27270 -0.32500
Co	Co	0.79049 0.13713 0.03248 1.15900
O 	O 	0.76415 0.39080 0.11490 -0.45300
O 	O 	0.83170 0.23510 0.16430 -0.42800
O 	O 	0.76706 0.57710 0.43020 -0.45800
O 	O 	0.83241 0.73680 0.48690 -0.42800
N 	N 	0.98749 0.47570 0.45760 -0.08200
N 	N 	0.83810 0.96840 0.05330 -0.23600
C 	C 	0.84260 0.55150 0.40250 -0.06700
C 	C 	0.81290 0.48010 0.31390 -0.00000
H 	H 	0.77410 0.48050 0.28040 0.04200
C 	C 	0.90050 0.55380 0.45170 -0.06000
H 	H 	0.92040 0.60450 0.50920 0.08000
C 	C 	0.80970 0.33850 0.17760 0.36100
C 	C 	0.84120 0.40880 0.27570 -0.06900
C 	C 	0.89910 0.40550 0.32590 -0.05600
H 	H 	0.91820 0.35540 0.30150 0.07400
C 	C 	0.92810 0.47890 0.41340 0.09500
C 	C 	0.81150 0.62880 0.44330 0.38000
N 	N 	0.89100 0.78950 0.11110 -0.18600
C 	C 	0.85650 0.87870 0.12160 0.13100
C 	C 	0.85790 0.93650 0.99140 -0.02100
H 	H 	0.85130 0.98470 0.93520 0.03800
C 	C 	0.88870 0.82270 0.02530 0.05000
H 	H 	0.90540 0.77590 0.99490 0.02300
C 	C 	0.83510 0.86080 0.19700 -0.10300
H 	H 	0.82530 0.94840 0.21170 0.05900
H 	H 	0.86480 0.82360 0.25830 0.08400
C 	C 	0.78160 0.76270 0.15460 -0.41300
H 	H 	0.75360 0.79390 0.09050 0.15200
H 	H 	0.76680 0.76320 0.19900 0.15900
H 	H 	0.79240 0.67250 0.14900 0.15700
C 	C 	0.96810 0.62470 0.18750 0.19400
C 	C 	0.90580 0.64930 0.16620 2.24000
C 	C 	0.99250 0.72770 0.20910 0.40100
C 	C 	0.05840 0.70100 0.30870 -1.78500
H 	H 	0.05140 0.63920 0.34950 0.22500
H 	H 	0.07610 0.64710 0.27990 -0.25100
H 	H 	0.98690 0.56040 0.24110 -0.01700
H 	H 	0.96720 0.58790 0.12890 -0.09900
H 	H 	0.97280 0.79340 0.22650 0.21000
H 	H 	0.99520 0.76250 0.15330 -0.06100
H 	H 	0.88080 0.57880 0.12440 -0.71500
H 	H 	0.90450 0.65400 0.22730 -0.32500
Co	Co	0.29049 0.63713 0.03248 1.16000
O 	O 	0.26415 0.89080 0.11490 -0.45300
O 	O 	0.33170 0.73510 0.16430 -0.42700
O 	O 	0.26706 0.07710 0.43020 -0.45800
O 	O 	0.33241 0.23680 0.48690 -0.42800
N 	N 	0.48749 0.97570 0.45760 -0.08200
N 	N 	0.33810 0.46840 0.05330 -0.23700
C 	C 	0.34260 0.05150 0.40250 -0.06700
C 	C 	0.31290 0.98010 0.31390 0.00000
H 	H 	0.27410 0.98050 0.28040 0.04200
C 	C 	0.40050 0.05380 0.45170 -0.06000
H 	H 	0.42040 0.10450 0.50920 0.08000
C 	C 	0.30970 0.83850 0.17760 0.36100
C 	C 	0.34120 0.90880 0.27570 -0.06900
C 	C 	0.39910 0.90550 0.32590 -0.05600
H 	H 	0.41820 0.85540 0.30150 0.07400
C 	C 	0.42810 0.97890 0.41340 0.09500
C 	C 	0.31150 0.12880 0.44330 0.38100
N 	N 	0.39100 0.28950 0.11110 -0.18500
C 	C 	0.35650 0.37870 0.12160 0.13100
C 	C 	0.35790 0.43650 0.99140 -0.01600
H 	H 	0.35130 0.48470 0.93520 0.03700
C 	C 	0.38870 0.32270 0.02530 0.04500
H 	H 	0.40540 0.27590 0.99490 0.02500
C 	C 	0.33510 0.36080 0.19700 -0.10300
H 	H 	0.32530 0.44840 0.21170 0.05900
H 	H 	0.36480 0.32360 0.25830 0.08400
C 	C 	0.28160 0.26270 0.15460 -0.41200
H 	H 	0.25360 0.29390 0.09050 0.15200
H 	H 	0.26680 0.26320 0.19900 0.15800
H 	H 	0.29240 0.17250 0.14900 0.15600
C 	C 	0.46810 0.12470 0.18750 0.19500
C 	C 	0.40580 0.14930 0.16620 2.23700
C 	C 	0.49250 0.22770 0.20910 0.40100
C 	C 	0.55840 0.20100 0.30870 -1.78500
H 	H 	0.55140 0.13920 0.34950 0.22500
H 	H 	0.57610 0.14710 0.27990 -0.25100
H 	H 	0.48690 0.06040 0.24110 -0.01700
H 	H 	0.46720 0.08790 0.12890 -0.10000
H 	H 	0.47280 0.29340 0.22650 0.21000
H 	H 	0.49520 0.26250 0.15330 -0.06200
H 	H 	0.38080 0.07880 0.12440 -0.71400
H 	H 	0.40450 0.15400 0.22730 -0.32500
Co	Co	0.79049 0.86287 0.53248 1.15900
O 	O 	0.76415 0.60920 0.61490 -0.45300
O 	O 	0.83170 0.76490 0.66430 -0.42800
O 	O 	0.76706 0.42290 0.93020 -0.45800
O 	O 	0.83241 0.26320 0.98690 -0.42700
N 	N 	0.98749 0.52430 0.95760 -0.08200
N 	N 	0.83810 0.03160 0.55330 -0.23700
C 	C 	0.84260 0.44850 0.90250 -0.06700
C 	C 	0.81290 0.51990 0.81390 0.00000
H 	H 	0.77410 0.51950 0.78040 0.04200
C 	C 	0.90050 0.44620 0.95170 -0.05800
H 	H 	0.92040 0.39550 0.00920 0.07800
C 	C 	0.80970 0.66150 0.67760 0.36100
C 	C 	0.84120 0.59120 0.77570 -0.06900
C 	C 	0.89910 0.59450 0.82590 -0.05600
H 	H 	0.91820 0.64460 0.80150 0.07400
C 	C 	0.92810 0.52110 0.91340 0.09400
C 	C 	0.81150 0.37120 0.94330 0.38100
N 	N 	0.89100 0.21050 0.61110 -0.18500
C 	C 	0.85650 0.12130 0.62160 0.13100
C 	C 	0.85790 0.06350 0.49140 -0.01800
H 	H 	0.85130 0.01530 0.43520 0.03700
C 	C 	0.88870 0.17730 0.52530 0.04600
H 	H 	0.90540 0.22410 0.49490 0.02400
C 	C 	0.83510 0.13920 0.69700 -0.10300
H 	H 	0.82530 0.05160 0.71170 0.05900
H 	H 	0.86480 0.17640 0.75830 0.08400
C 	C 	0.78160 0.23730 0.65460 -0.41200
H 	H 	0.75360 0.20610 0.59050 0.15200
H 	H 	0.76680 0.23680 0.69900 0.15800
H 	H 	0.79240 0.32750 0.64900 0.15600
C 	C 	0.96810 0.37530 0.68750 0.19500
C 	C 	0.90580 0.35070 0.66620 2.23600
C 	C 	0.99250 0.27230 0.70910 0.40100
C 	C 	0.05840 0.29900 0.80870 -1.78600
H 	H 	0.05140 0.36080 0.84950 0.22500
H 	H 	0.07610 0.35290 0.77990 -0.25200
H 	H 	0.98690 0.43960 0.74110 -0.01700
H 	H 	0.96720 0.41210 0.62890 -0.09900
H 	H 	0.97280 0.20660 0.72650 0.21000
H 	H 	0.99520 0.23750 0.65330 -0.06100
H 	H 	0.88080 0.42120 0.62440 -0.71400
H 	H 	0.90450 0.34600 0.72730 -0.32500
Co	Co	0.29049 0.36287 0.53248 1.16000
O 	O 	0.26415 0.10920 0.61490 -0.45300
O 	O 	0.33170 0.26490 0.66430 -0.42700
O 	O 	0.26706 0.92290 0.93020 -0.45800
O 	O 	0.33241 0.76320 0.98690 -0.42800
N 	N 	0.48749 0.02430 0.95760 -0.08200
N 	N 	0.33810 0.53160 0.55330 -0.23700
C 	C 	0.34260 0.94850 0.90250 -0.06600
C 	C 	0.31290 0.01990 0.81390 0.00000
H 	H 	0.27410 0.01950 0.78040 0.04200
C 	C 	0.40050 0.94620 0.95170 -0.06500
H 	H 	0.42040 0.89550 0.00920 0.08200
C 	C 	0.30970 0.16150 0.67760 0.36100
C 	C 	0.34120 0.09120 0.77570 -0.06800
C 	C 	0.39910 0.09450 0.82590 -0.05700
H 	H 	0.41820 0.14460 0.80150 0.07400
C 	C 	0.42810 0.02110 0.91340 0.09800
C 	C 	0.31150 0.87120 0.94330 0.38000
N 	N 	0.39100 0.71050 0.61110 -0.18500
C 	C 	0.35650 0.62130 0.62160 0.13100
C 	C 	0.35790 0.56350 0.49140 -0.01800
H 	H 	0.35130 0.51530 0.43520 0.03800
C 	C 	0.38870 0.67730 0.52530 0.04700
H 	H 	0.40540 0.72410 0.49490 0.02400
C 	C 	0.33510 0.63920 0.69700 -0.10300
H 	H 	0.32530 0.55160 0.71170 0.05900
H 	H 	0.36480 0.67640 0.75830 0.08400
C 	C 	0.28160 0.73730 0.65460 -0.41200
H 	H 	0.25360 0.70610 0.59050 0.15200
H 	H 	0.26680 0.73680 0.69900 0.15800
H 	H 	0.29240 0.82750 0.64900 0.15600
C 	C 	0.46810 0.87530 0.68750 0.19500
C 	C 	0.40580 0.85070 0.66620 2.23600
C 	C 	0.49250 0.77230 0.70910 0.40000
C 	C 	0.55840 0.79900 0.80870 -1.78600
H 	H 	0.55140 0.86080 0.84950 0.22500
H 	H 	0.57610 0.85290 0.77990 -0.25100
H 	H 	0.48690 0.93960 0.74110 -0.01700
H 	H 	0.46720 0.91210 0.62890 -0.09900
H 	H 	0.47280 0.70660 0.72650 0.21000
H 	H 	0.49520 0.73750 0.65330 -0.06100
H 	H 	0.38080 0.92120 0.62440 -0.71400
H 	H 	0.40450 0.84600 0.72730 -0.32500
Co	Co	0.20951 0.86287 0.96752 1.15900
O 	O 	0.23585 0.60920 0.88510 -0.45300
O 	O 	0.16830 0.76490 0.83570 -0.42800
O 	O 	0.23294 0.42290 0.56980 -0.45800
O 	O 	0.16759 0.26320 0.51310 -0.42800
N 	N 	0.01251 0.52430 0.54240 -0.08200
N 	N 	0.16190 0.03160 0.94670 -0.23600
C 	C 	0.15740 0.44850 0.59750 -0.06700
C 	C 	0.18710 0.51990 0.68610 -0.00000
H 	H 	0.22590 0.51950 0.71960 0.04200
C 	C 	0.09950 0.44620 0.54830 -0.06000
H 	H 	0.07960 0.39550 0.49080 0.08000
C 	C 	0.19030 0.66150 0.82240 0.36100
C 	C 	0.15880 0.59120 0.72430 -0.06900
C 	C 	0.10090 0.59450 0.67410 -0.05600
H 	H 	0.08180 0.64460 0.69850 0.07400
C 	C 	0.07190 0.52110 0.58660 0.09500
C 	C 	0.18850 0.37120 0.55670 0.38000
N 	N 	0.10900 0.21050 0.88890 -0.18600
C 	C 	0.14350 0.12130 0.87840 0.13100
C 	C 	0.14210 0.06350 0.00860 -0.02100
H 	H 	0.14870 0.01530 0.06480 0.03800
C 	C 	0.11130 0.17730 0.97470 0.05000
H 	H 	0.09460 0.22410 0.00510 0.02300
C 	C 	0.16490 0.13920 0.80300 -0.10300
H 	H 	0.17470 0.05160 0.78830 0.05900
H 	H 	0.13520 0.17640 0.74170 0.08400
C 	C 	0.21840 0.23730 0.84540 -0.41300
H 	H 	0.24640 0.20610 0.90950 0.15200
H 	H 	0.23320 0.23680 0.80100 0.15900
H 	H 	0.20760 0.32750 0.85100 0.15700
C 	C 	0.03190 0.37530 0.81250 0.19400
C 	C 	0.09420 0.35070 0.83380 2.24000
C 	C 	0.00750 0.27230 0.79090 0.40100
C 	C 	0.94160 0.29900 0.69130 -1.78500
H 	H 	0.94860 0.36080 0.65050 0.22500
H 	H 	0.92390 0.35290 0.72010 -0.25100
H 	H 	0.01310 0.43960 0.75890 -0.01700
H 	H 	0.03280 0.41210 0.87110 -0.09900
H 	H 	0.02720 0.20660 0.77350 0.21000
H 	H 	0.00480 0.23750 0.84670 -0.06100
H 	H 	0.11920 0.42120 0.87560 -0.71500
H 	H 	0.09550 0.34600 0.77270 -0.32500
Co	Co	0.70951 0.36287 0.96752 1.16000
O 	O 	0.73585 0.10920 0.88510 -0.45300
O 	O 	0.66830 0.26490 0.83570 -0.42700
O 	O 	0.73294 0.92290 0.56980 -0.45800
O 	O 	0.66759 0.76320 0.51310 -0.42800
N 	N 	0.51251 0.02430 0.54240 -0.08200
N 	N 	0.66190 0.53160 0.94670 -0.23700
C 	C 	0.65740 0.94850 0.59750 -0.06700
C 	C 	0.68710 0.01990 0.68610 0.00000
H 	H 	0.72590 0.01950 0.71960 0.04200
C 	C 	0.59950 0.94620 0.54830 -0.06000
H 	H 	0.57960 0.89550 0.49080 0.08000
C 	C 	0.69030 0.16150 0.82240 0.36100
C 	C 	0.65880 0.09120 0.72430 -0.06900
C 	C 	0.60090 0.09450 0.67410 -0.05600
H 	H 	0.58180 0.14460 0.69850 0.07400
C 	C 	0.57190 0.02110 0.58660 0.09500
C 	C 	0.68850 0.87120 0.55670 0.38100
N 	N 	0.60900 0.71050 0.88890 -0.18500
C 	C 	0.64350 0.62130 0.87840 0.13100
C 	C 	0.64210 0.56350 0.00860 -0.01600
H 	H 	0.64870 0.51530 0.06480 0.03700
C 	C 	0.61130 0.67730 0.97470 0.04500
H 	H 	0.59460 0.72410 0.00510 0.02500
C 	C 	0.66490 0.63920 0.80300 -0.10300
H 	H 	0.67470 0.55160 0.78830 0.05900
H 	H 	0.63520 0.67640 0.74170 0.08400
C 	C 	0.71840 0.73730 0.84540 -0.41200
H 	H 	0.74640 0.70610 0.90950 0.15200
H 	H 	0.73320 0.73680 0.80100 0.15800
H 	H 	0.70760 0.82750 0.85100 0.15600
C 	C 	0.53190 0.87530 0.81250 0.19500
C 	C 	0.59420 0.85070 0.83380 2.23700
C 	C 	0.50750 0.77230 0.79090 0.40100
C 	C 	0.44160 0.79900 0.69130 -1.78500
H 	H 	0.44860 0.86080 0.65050 0.22500
H 	H 	0.42390 0.85290 0.72010 -0.25100
H 	H 	0.51310 0.93960 0.75890 -0.01700
H 	H 	0.53280 0.91210 0.87110 -0.10000
H 	H 	0.52720 0.70660 0.77350 0.21000
H 	H 	0.50480 0.73750 0.84670 -0.06200
H 	H 	0.61920 0.92120 0.87560 -0.71400
H 	H 	0.59550 0.84600 0.77270 -0.32500
