data_crystal

_cell_length_a 27.57400
_cell_length_b 9.77600
_cell_length_c 15.55700
_cell_angle_alpha 90.00000
_cell_angle_beta  119.48000
_cell_angle_gamma 90.00000

_symmetry_space_group_name_	'P 1'
_symmetry_space_group_name_H-M	'P 1'

loop_
_symmetry_equiv_pos_as_xyz
  x,y,z

loop_
_atom_site_label
_atom_site_type_symbol
_atom_site_fract_x
_atom_site_fract_y
_atom_site_fract_z
_atom_site_charge
Co	Co	0.29002 0.63531 0.03208 1.15900
N 	N 	0.48764 0.97560 0.45840 -0.07000
O 	O 	0.33284 0.73280 0.16420 -0.42100
C 	C 	0.39100 0.32220 0.02470 0.07400
H 	H 	0.40970 0.27820 0.99660 0.06000
O 	O 	0.26544 0.89010 0.11470 -0.46000
N 	N 	0.39010 0.28550 0.10920 0.00200
C 	C 	0.31341 0.97930 0.31290 -0.00600
H 	H 	0.27470 0.97900 0.27930 0.03900
C 	C 	0.42857 0.98020 0.41280 0.11000
N 	N 	0.33872 0.46890 0.05240 -0.20800
C 	C 	0.40010 0.05500 0.45030 -0.04800
H 	H 	0.41960 0.10640 0.50760 0.09300
C 	C 	0.39974 0.90640 0.32550 -0.06000
H 	H 	0.41910 0.85640 0.30130 0.08400
C 	C 	0.35890 0.43540 0.99090 -0.02400
H 	H 	0.35170 0.48320 0.93420 0.04300
C 	C 	0.34204 0.90760 0.27500 -0.06200
C 	C 	0.31108 0.83740 0.17670 0.36200
C 	C 	0.35680 0.37370 0.12010 0.00400
C 	C 	0.34237 0.05170 0.40100 -0.06600
C 	C 	0.31104 0.12840 0.44180 0.37800
O 	O 	0.26653 0.07670 0.42820 -0.46500
O 	O 	0.33224 0.23760 0.48670 -0.42400
C 	C 	0.33940 0.35980 0.19480 0.21500
H 	H 	0.37160 0.32710 0.25450 -0.00300
H 	H 	0.33160 0.45130 0.20880 -0.03600
C 	C 	0.29290 0.27520 0.17900 -0.78100
H 	H 	0.29590 0.18780 0.15380 0.27100
H 	H 	0.25880 0.31870 0.13220 0.26700
H 	H 	0.29320 0.26280 0.24040 0.27400
C 	C 	0.40390 0.14440 0.16100 1.94600
C 	C 	0.46650 0.12580 0.20270 1.60900
C 	C 	0.43950 0.19980 0.17490 -2.15000
C 	C 	0.50100 0.23560 0.21180 0.00100
H 	H 	0.38340 0.07240 0.11410 -0.54600
H 	H 	0.48410 0.04850 0.25790 -0.42800
H 	H 	0.43340 0.11220 0.14190 -0.19700
H 	H 	0.39460 0.14270 0.21340 -0.59100
H 	H 	0.50820 0.32470 0.20500 0.15500
H 	H 	0.43670 0.18320 0.23380 0.19800
H 	H 	0.47730 0.09750 0.15660 -0.27700
H 	H 	0.52080 0.17270 0.19010 -0.02200
Co	Co	0.79002 0.13531 0.03208 1.16000
N 	N 	0.98764 0.47560 0.45840 -0.06900
O 	O 	0.83284 0.23280 0.16420 -0.42100
C 	C 	0.89100 0.82220 0.02470 0.07800
H 	H 	0.90970 0.77820 0.99660 0.05800
O 	O 	0.76544 0.39010 0.11470 -0.46000
N 	N 	0.89010 0.78550 0.10920 0.00200
C 	C 	0.81341 0.47930 0.31290 -0.00600
H 	H 	0.77470 0.47900 0.27930 0.03900
C 	C 	0.92857 0.48020 0.41280 0.11000
N 	N 	0.83872 0.96890 0.05240 -0.20700
C 	C 	0.90010 0.55500 0.45030 -0.04800
H 	H 	0.91960 0.60640 0.50760 0.09300
C 	C 	0.89974 0.40640 0.32550 -0.06000
H 	H 	0.91910 0.35640 0.30130 0.08400
C 	C 	0.85890 0.93540 0.99090 -0.02800
H 	H 	0.85170 0.98320 0.93420 0.04400
C 	C 	0.84204 0.40760 0.27500 -0.06200
C 	C 	0.81108 0.33740 0.17670 0.36200
C 	C 	0.85680 0.87370 0.12010 0.00400
C 	C 	0.84237 0.55170 0.40100 -0.06600
C 	C 	0.81104 0.62840 0.44180 0.37800
O 	O 	0.76653 0.57670 0.42820 -0.46500
O 	O 	0.83224 0.73760 0.48670 -0.42400
C 	C 	0.83940 0.85980 0.19480 0.21600
H 	H 	0.87160 0.82710 0.25450 -0.00300
H 	H 	0.83160 0.95130 0.20880 -0.03600
C 	C 	0.79290 0.77520 0.17900 -0.78300
H 	H 	0.79590 0.68780 0.15380 0.27200
H 	H 	0.75880 0.81870 0.13220 0.26800
H 	H 	0.79320 0.76280 0.24040 0.27500
C 	C 	0.90390 0.64440 0.16100 1.94700
C 	C 	0.96650 0.62580 0.20270 1.61100
C 	C 	0.93950 0.69980 0.17490 -2.15100
C 	C 	0.00100 0.73560 0.21180 -0.00300
H 	H 	0.88340 0.57240 0.11410 -0.54600
H 	H 	0.98410 0.54850 0.25790 -0.42800
H 	H 	0.93340 0.61220 0.14190 -0.19800
H 	H 	0.89460 0.64270 0.21340 -0.59100
H 	H 	0.00820 0.82470 0.20500 0.15600
H 	H 	0.93670 0.68320 0.23380 0.19800
H 	H 	0.97730 0.59750 0.15660 -0.27800
H 	H 	0.02080 0.67270 0.19010 -0.02100
Co	Co	0.70998 0.63531 0.46792 1.16000
N 	N 	0.51236 0.97560 0.04160 -0.06900
O 	O 	0.66716 0.73280 0.33580 -0.42100
C 	C 	0.60900 0.32220 0.47530 0.07500
H 	H 	0.59030 0.27820 0.50340 0.05900
O 	O 	0.73456 0.89010 0.38530 -0.46000
N 	N 	0.60990 0.28550 0.39080 0.00200
C 	C 	0.68659 0.97930 0.18710 -0.00600
H 	H 	0.72530 0.97900 0.22070 0.04000
C 	C 	0.57143 0.98020 0.08720 0.11200
N 	N 	0.66128 0.46890 0.44760 -0.20800
C 	C 	0.59990 0.05500 0.04970 -0.05300
H 	H 	0.58040 0.10640 0.99240 0.09500
C 	C 	0.60026 0.90640 0.17450 -0.06200
H 	H 	0.58090 0.85640 0.19870 0.08400
C 	C 	0.64110 0.43540 0.50910 -0.02600
H 	H 	0.64830 0.48320 0.56580 0.04300
C 	C 	0.65796 0.90760 0.22500 -0.06100
C 	C 	0.68892 0.83740 0.32330 0.36200
C 	C 	0.64320 0.37370 0.37990 0.00400
C 	C 	0.65763 0.05170 0.09900 -0.06500
C 	C 	0.68896 0.12840 0.05820 0.37700
O 	O 	0.73347 0.07670 0.07180 -0.46600
O 	O 	0.66776 0.23760 0.01330 -0.42400
C 	C 	0.66060 0.35980 0.30520 0.21500
H 	H 	0.62840 0.32710 0.24550 -0.00300
H 	H 	0.66840 0.45130 0.29120 -0.03600
C 	C 	0.70710 0.27520 0.32100 -0.78200
H 	H 	0.70410 0.18780 0.34620 0.27100
H 	H 	0.74120 0.31870 0.36780 0.26700
H 	H 	0.70680 0.26280 0.25960 0.27400
C 	C 	0.59610 0.14440 0.33900 1.94700
C 	C 	0.53350 0.12580 0.29730 1.60900
C 	C 	0.56050 0.19980 0.32510 -2.15000
C 	C 	0.49900 0.23560 0.28820 0.00200
H 	H 	0.61660 0.07240 0.38590 -0.54600
H 	H 	0.51590 0.04850 0.24210 -0.42800
H 	H 	0.56660 0.11220 0.35810 -0.19700
H 	H 	0.60540 0.14270 0.28660 -0.59100
H 	H 	0.49180 0.32470 0.29500 0.15400
H 	H 	0.56330 0.18320 0.26620 0.19800
H 	H 	0.52270 0.09750 0.34340 -0.27700
H 	H 	0.47920 0.17270 0.30990 -0.02200
Co	Co	0.20998 0.13531 0.46792 1.16000
N 	N 	0.01236 0.47560 0.04160 -0.06900
O 	O 	0.16716 0.23280 0.33580 -0.42100
C 	C 	0.10900 0.82220 0.47530 0.07500
H 	H 	0.09030 0.77820 0.50340 0.05900
O 	O 	0.23456 0.39010 0.38530 -0.46000
N 	N 	0.10990 0.78550 0.39080 0.00200
C 	C 	0.18659 0.47930 0.18710 -0.00600
H 	H 	0.22530 0.47900 0.22070 0.03900
C 	C 	0.07143 0.48020 0.08720 0.10900
N 	N 	0.16128 0.96890 0.44760 -0.20800
C 	C 	0.09990 0.55500 0.04970 -0.04700
H 	H 	0.08040 0.60640 0.99240 0.09200
C 	C 	0.10026 0.40640 0.17450 -0.06000
H 	H 	0.08090 0.35640 0.19870 0.08400
C 	C 	0.14110 0.93540 0.50910 -0.02600
H 	H 	0.14830 0.98320 0.56580 0.04300
C 	C 	0.15796 0.40760 0.22500 -0.06200
C 	C 	0.18892 0.33740 0.32330 0.36200
C 	C 	0.14320 0.87370 0.37990 0.00400
C 	C 	0.15763 0.55170 0.09900 -0.06600
C 	C 	0.18896 0.62840 0.05820 0.37800
O 	O 	0.23347 0.57670 0.07180 -0.46500
O 	O 	0.16776 0.73760 0.01330 -0.42300
C 	C 	0.16060 0.85980 0.30520 0.21500
H 	H 	0.12840 0.82710 0.24550 -0.00300
H 	H 	0.16840 0.95130 0.29120 -0.03600
C 	C 	0.20710 0.77520 0.32100 -0.78200
H 	H 	0.20410 0.68780 0.34620 0.27100
H 	H 	0.24120 0.81870 0.36780 0.26700
H 	H 	0.20680 0.76280 0.25960 0.27500
C 	C 	0.09610 0.64440 0.33900 1.94900
C 	C 	0.03350 0.62580 0.29730 1.60900
C 	C 	0.06050 0.69980 0.32510 -2.15300
C 	C 	0.99900 0.73560 0.28820 0.00600
H 	H 	0.11660 0.57240 0.38590 -0.54600
H 	H 	0.01590 0.54850 0.24210 -0.42700
H 	H 	0.06660 0.61220 0.35810 -0.19700
H 	H 	0.10540 0.64270 0.28660 -0.59100
H 	H 	0.99180 0.82470 0.29500 0.15300
H 	H 	0.06330 0.68320 0.26620 0.19900
H 	H 	0.02270 0.59750 0.34340 -0.27700
H 	H 	0.97920 0.67270 0.30990 -0.02400
Co	Co	0.70998 0.36469 0.96792 1.16000
N 	N 	0.51236 0.02440 0.54160 -0.06900
O 	O 	0.66716 0.26720 0.83580 -0.42100
C 	C 	0.60900 0.67780 0.97530 0.07400
H 	H 	0.59030 0.72180 0.00340 0.06000
O 	O 	0.73456 0.10990 0.88530 -0.46000
N 	N 	0.60990 0.71450 0.89080 0.00200
C 	C 	0.68659 0.02070 0.68710 -0.00600
H 	H 	0.72530 0.02100 0.72070 0.03900
C 	C 	0.57143 0.01980 0.58720 0.11000
N 	N 	0.66128 0.53110 0.94760 -0.20800
C 	C 	0.59990 0.94500 0.54970 -0.04800
H 	H 	0.58040 0.89360 0.49240 0.09300
C 	C 	0.60026 0.09360 0.67450 -0.06000
H 	H 	0.58090 0.14360 0.69870 0.08400
C 	C 	0.64110 0.56460 0.00910 -0.02400
H 	H 	0.64830 0.51680 0.06580 0.04300
C 	C 	0.65796 0.09240 0.72500 -0.06200
C 	C 	0.68892 0.16260 0.82330 0.36200
C 	C 	0.64320 0.62630 0.87990 0.00400
C 	C 	0.65763 0.94830 0.59900 -0.06600
C 	C 	0.68896 0.87160 0.55820 0.37800
O 	O 	0.73347 0.92330 0.57180 -0.46500
O 	O 	0.66776 0.76240 0.51330 -0.42400
C 	C 	0.66060 0.64020 0.80520 0.21500
H 	H 	0.62840 0.67290 0.74550 -0.00300
H 	H 	0.66840 0.54870 0.79120 -0.03600
C 	C 	0.70710 0.72480 0.82100 -0.78100
H 	H 	0.70410 0.81220 0.84620 0.27100
H 	H 	0.74120 0.68130 0.86780 0.26700
H 	H 	0.70680 0.73720 0.75960 0.27400
C 	C 	0.59610 0.85560 0.83900 1.94600
C 	C 	0.53350 0.87420 0.79730 1.60900
C 	C 	0.56050 0.80020 0.82510 -2.15000
C 	C 	0.49900 0.76440 0.78820 0.00100
H 	H 	0.61660 0.92760 0.88590 -0.54600
H 	H 	0.51590 0.95150 0.74210 -0.42800
H 	H 	0.56660 0.88780 0.85810 -0.19700
H 	H 	0.60540 0.85730 0.78660 -0.59100
H 	H 	0.49180 0.67530 0.79500 0.15500
H 	H 	0.56330 0.81680 0.76620 0.19800
H 	H 	0.52270 0.90250 0.84340 -0.27700
H 	H 	0.47920 0.82730 0.80990 -0.02200
Co	Co	0.20998 0.86469 0.96792 1.16000
N 	N 	0.01236 0.52440 0.54160 -0.06900
O 	O 	0.16716 0.76720 0.83580 -0.42100
C 	C 	0.10900 0.17780 0.97530 0.07800
H 	H 	0.09030 0.22180 0.00340 0.05800
O 	O 	0.23456 0.60990 0.88530 -0.46000
N 	N 	0.10990 0.21450 0.89080 0.00200
C 	C 	0.18659 0.52070 0.68710 -0.00600
H 	H 	0.22530 0.52100 0.72070 0.03900
C 	C 	0.07143 0.51980 0.58720 0.11000
N 	N 	0.16128 0.03110 0.94760 -0.20700
C 	C 	0.09990 0.44500 0.54970 -0.04800
H 	H 	0.08040 0.39360 0.49240 0.09300
C 	C 	0.10026 0.59360 0.67450 -0.06000
H 	H 	0.08090 0.64360 0.69870 0.08400
C 	C 	0.14110 0.06460 0.00910 -0.02800
H 	H 	0.14830 0.01680 0.06580 0.04400
C 	C 	0.15796 0.59240 0.72500 -0.06200
C 	C 	0.18892 0.66260 0.82330 0.36200
C 	C 	0.14320 0.12630 0.87990 0.00400
C 	C 	0.15763 0.44830 0.59900 -0.06600
C 	C 	0.18896 0.37160 0.55820 0.37800
O 	O 	0.23347 0.42330 0.57180 -0.46500
O 	O 	0.16776 0.26240 0.51330 -0.42400
C 	C 	0.16060 0.14020 0.80520 0.21600
H 	H 	0.12840 0.17290 0.74550 -0.00300
H 	H 	0.16840 0.04870 0.79120 -0.03600
C 	C 	0.20710 0.22480 0.82100 -0.78300
H 	H 	0.20410 0.31220 0.84620 0.27200
H 	H 	0.24120 0.18130 0.86780 0.26800
H 	H 	0.20680 0.23720 0.75960 0.27500
C 	C 	0.09610 0.35560 0.83900 1.94700
C 	C 	0.03350 0.37420 0.79730 1.61100
C 	C 	0.06050 0.30020 0.82510 -2.15100
C 	C 	0.99900 0.26440 0.78820 -0.00300
H 	H 	0.11660 0.42760 0.88590 -0.54600
H 	H 	0.01590 0.45150 0.74210 -0.42800
H 	H 	0.06660 0.38780 0.85810 -0.19800
H 	H 	0.10540 0.35730 0.78660 -0.59100
H 	H 	0.99180 0.17530 0.79500 0.15600
H 	H 	0.06330 0.31680 0.76620 0.19800
H 	H 	0.02270 0.40250 0.84340 -0.27800
H 	H 	0.97920 0.32730 0.80990 -0.02100
Co	Co	0.29002 0.36469 0.53208 1.16000
N 	N 	0.48764 0.02440 0.95840 -0.06900
O 	O 	0.33284 0.26720 0.66420 -0.42100
C 	C 	0.39100 0.67780 0.52470 0.07500
H 	H 	0.40970 0.72180 0.49660 0.05900
O 	O 	0.26544 0.10990 0.61470 -0.46000
N 	N 	0.39010 0.71450 0.60920 0.00200
C 	C 	0.31341 0.02070 0.81290 -0.00600
H 	H 	0.27470 0.02100 0.77930 0.04000
C 	C 	0.42857 0.01980 0.91280 0.11200
N 	N 	0.33872 0.53110 0.55240 -0.20800
C 	C 	0.40010 0.94500 0.95030 -0.05300
H 	H 	0.41960 0.89360 0.00760 0.09500
C 	C 	0.39974 0.09360 0.82550 -0.06200
H 	H 	0.41910 0.14360 0.80130 0.08400
C 	C 	0.35890 0.56460 0.49090 -0.02600
H 	H 	0.35170 0.51680 0.43420 0.04300
C 	C 	0.34204 0.09240 0.77500 -0.06100
C 	C 	0.31108 0.16260 0.67670 0.36200
C 	C 	0.35680 0.62630 0.62010 0.00400
C 	C 	0.34237 0.94830 0.90100 -0.06500
C 	C 	0.31104 0.87160 0.94180 0.37700
O 	O 	0.26653 0.92330 0.92820 -0.46600
O 	O 	0.33224 0.76240 0.98670 -0.42400
C 	C 	0.33940 0.64020 0.69480 0.21500
H 	H 	0.37160 0.67290 0.75450 -0.00300
H 	H 	0.33160 0.54870 0.70880 -0.03600
C 	C 	0.29290 0.72480 0.67900 -0.78200
H 	H 	0.29590 0.81220 0.65380 0.27100
H 	H 	0.25880 0.68130 0.63220 0.26700
H 	H 	0.29320 0.73720 0.74040 0.27400
C 	C 	0.40390 0.85560 0.66100 1.94700
C 	C 	0.46650 0.87420 0.70270 1.60900
C 	C 	0.43950 0.80020 0.67490 -2.15000
C 	C 	0.50100 0.76440 0.71180 0.00200
H 	H 	0.38340 0.92760 0.61410 -0.54600
H 	H 	0.48410 0.95150 0.75790 -0.42800
H 	H 	0.43340 0.88780 0.64190 -0.19700
H 	H 	0.39460 0.85730 0.71340 -0.59100
H 	H 	0.50820 0.67530 0.70500 0.15400
H 	H 	0.43670 0.81680 0.73380 0.19800
H 	H 	0.47730 0.90250 0.65660 -0.27700
H 	H 	0.52080 0.82730 0.69010 -0.02200
Co	Co	0.79002 0.86469 0.53208 1.16000
N 	N 	0.98764 0.52440 0.95840 -0.06900
O 	O 	0.83284 0.76720 0.66420 -0.42100
C 	C 	0.89100 0.17780 0.52470 0.07500
H 	H 	0.90970 0.22180 0.49660 0.05900
O 	O 	0.76544 0.60990 0.61470 -0.46000
N 	N 	0.89010 0.21450 0.60920 0.00200
C 	C 	0.81341 0.52070 0.81290 -0.00600
H 	H 	0.77470 0.52100 0.77930 0.03900
C 	C 	0.92857 0.51980 0.91280 0.10900
N 	N 	0.83872 0.03110 0.55240 -0.20800
C 	C 	0.90010 0.44500 0.95030 -0.04700
H 	H 	0.91960 0.39360 0.00760 0.09200
C 	C 	0.89974 0.59360 0.82550 -0.06000
H 	H 	0.91910 0.64360 0.80130 0.08400
C 	C 	0.85890 0.06460 0.49090 -0.02600
H 	H 	0.85170 0.01680 0.43420 0.04300
C 	C 	0.84204 0.59240 0.77500 -0.06200
C 	C 	0.81108 0.66260 0.67670 0.36200
C 	C 	0.85680 0.12630 0.62010 0.00400
C 	C 	0.84237 0.44830 0.90100 -0.06600
C 	C 	0.81104 0.37160 0.94180 0.37800
O 	O 	0.76653 0.42330 0.92820 -0.46500
O 	O 	0.83224 0.26240 0.98670 -0.42300
C 	C 	0.83940 0.14020 0.69480 0.21500
H 	H 	0.87160 0.17290 0.75450 -0.00300
H 	H 	0.83160 0.04870 0.70880 -0.03600
C 	C 	0.79290 0.22480 0.67900 -0.78200
H 	H 	0.79590 0.31220 0.65380 0.27100
H 	H 	0.75880 0.18130 0.63220 0.26700
H 	H 	0.79320 0.23720 0.74040 0.27500
C 	C 	0.90390 0.35560 0.66100 1.94900
C 	C 	0.96650 0.37420 0.70270 1.60900
C 	C 	0.93950 0.30020 0.67490 -2.15300
C 	C 	0.00100 0.26440 0.71180 0.00600
H 	H 	0.88340 0.42760 0.61410 -0.54600
H 	H 	0.98410 0.45150 0.75790 -0.42700
H 	H 	0.93340 0.38780 0.64190 -0.19700
H 	H 	0.89460 0.35730 0.71340 -0.59100
H 	H 	0.00820 0.17530 0.70500 0.15300
H 	H 	0.93670 0.31680 0.73380 0.19900
H 	H 	0.97730 0.40250 0.65660 -0.27700
H 	H 	0.02080 0.32730 0.69010 -0.02400
