data_crystal

_cell_length_a 9.66800
_cell_length_b 9.65720
_cell_length_c 10.62300
_cell_angle_alpha 74.16100
_cell_angle_beta  74.67500
_cell_angle_gamma 88.97400

_symmetry_space_group_name_	'P 1'
_symmetry_space_group_name_H-M	'P 1'

loop_
_symmetry_equiv_pos_as_xyz
  x,y,z

loop_
_atom_site_label
_atom_site_type_symbol
_atom_site_fract_x
_atom_site_fract_y
_atom_site_fract_z
_atom_site_charge
P 	P 	0.50270 0.96880 0.79450 0.80500
P 	P 	0.27570 0.47590 0.90280 0.68600
P 	P 	0.03420 0.79960 0.64970 0.81800
P 	P 	0.18720 0.76790 0.14010 0.75300
Al	Al	0.23140 0.78650 0.83900 2.39500
Al	Al	0.48480 0.22470 0.92230 2.39800
Al	Al	0.17820 0.95140 0.34210 2.39700
Al	Al	0.97720 0.50050 0.86710 2.39300
O 	O 	0.16710 0.44680 0.83050 -0.67300
O 	O 	0.40370 0.38300 0.87710 -0.71900
O 	O 	0.19930 0.84310 0.99050 -0.74900
O 	O 	0.44740 0.09320 0.85260 -0.82600
O 	O 	0.38810 0.91310 0.74560 -0.64400
O 	O 	0.33730 0.63410 0.83840 -0.69400
O 	O 	0.99260 0.64070 0.70730 -0.66700
O 	O 	0.10550 0.83090 0.49790 -0.77100
O 	O 	0.04840 0.63980 0.94740 -1.16900
O 	O 	0.21080 0.45010 0.05550 -0.67700
O 	O 	0.13550 0.85190 0.71730 -0.78200
O 	O 	0.33510 0.71700 0.15380 -0.77300
O 	O 	0.14570 0.88220 0.21690 -0.76400
O 	O 	0.63850 0.01980 0.67800 -0.74500
O 	O 	0.54600 0.84820 0.90370 -0.82300
O 	O 	0.07980 0.64090 0.19790 -0.66000
O 	O 	0.89690 0.88240 0.66890 -0.76500
H 	H 	0.97310 0.69680 0.96800 0.25600
P 	P 	0.49730 0.03120 0.20550 0.80500
P 	P 	0.72430 0.52410 0.09720 0.68600
P 	P 	0.96580 0.20040 0.35030 0.81800
P 	P 	0.81280 0.23210 0.85990 0.75300
Al	Al	0.76860 0.21350 0.16100 2.39500
Al	Al	0.51520 0.77530 0.07770 2.39800
Al	Al	0.82180 0.04860 0.65790 2.39700
Al	Al	0.02280 0.49950 0.13290 2.39300
O 	O 	0.83290 0.55320 0.16950 -0.67300
O 	O 	0.59630 0.61700 0.12290 -0.71900
O 	O 	0.80070 0.15690 0.00950 -0.74900
O 	O 	0.55260 0.90680 0.14740 -0.82600
O 	O 	0.61190 0.08690 0.25440 -0.64400
O 	O 	0.66270 0.36590 0.16160 -0.69400
O 	O 	0.00740 0.35930 0.29270 -0.66700
O 	O 	0.89450 0.16910 0.50210 -0.77100
O 	O 	0.95160 0.36020 0.05260 -1.16900
O 	O 	0.78920 0.54990 0.94450 -0.67700
O 	O 	0.86450 0.14810 0.28270 -0.78200
O 	O 	0.66490 0.28300 0.84620 -0.77300
O 	O 	0.85430 0.11780 0.78310 -0.76400
O 	O 	0.36150 0.98020 0.32200 -0.74500
O 	O 	0.45400 0.15180 0.09630 -0.82300
O 	O 	0.92020 0.35910 0.80210 -0.66000
O 	O 	0.10310 0.11760 0.33110 -0.76500
H 	H 	0.02690 0.30320 0.03200 0.25600
