data_crystal

_cell_length_a 9.64550
_cell_length_b 9.64060
_cell_length_c 10.59870
_cell_angle_alpha 74.15900
_cell_angle_beta  74.71400
_cell_angle_gamma 88.95500

_symmetry_space_group_name_	'P 1'
_symmetry_space_group_name_H-M	'P 1'

loop_
_symmetry_equiv_pos_as_xyz
  x,y,z

loop_
_atom_site_label
_atom_site_type_symbol
_atom_site_fract_x
_atom_site_fract_y
_atom_site_fract_z
_atom_site_charge
P 	P 	0.50290 0.96890 0.79430 0.84500
P 	P 	0.27590 0.47610 0.90280 0.70200
P 	P 	0.03400 0.79870 0.64960 0.83000
P 	P 	0.18710 0.76810 0.13990 0.76900
Al	Al	0.23160 0.78660 0.83890 2.39500
Al	Al	0.48430 0.22430 0.92290 2.39800
Al	Al	0.17850 0.95120 0.34220 2.39800
Al	Al	0.97720 0.50040 0.86750 2.39300
O 	O 	0.16960 0.44660 0.83040 -0.65900
O 	O 	0.40390 0.38390 0.87720 -0.71500
O 	O 	0.19950 0.84320 0.98980 -0.74900
O 	O 	0.44830 0.09240 0.85120 -0.83000
O 	O 	0.38950 0.91280 0.74520 -0.65000
O 	O 	0.33770 0.63320 0.83770 -0.70000
O 	O 	0.99240 0.64090 0.70720 -0.66900
O 	O 	0.10520 0.83250 0.49840 -0.78000
O 	O 	0.04690 0.64030 0.94710 -0.99600
O 	O 	0.21170 0.45000 0.05520 -0.66800
O 	O 	0.13510 0.85160 0.71730 -0.77700
O 	O 	0.33600 0.71560 0.15390 -0.77200
O 	O 	0.14710 0.88090 0.21580 -0.76100
O 	O 	0.63680 0.02010 0.67890 -0.75100
O 	O 	0.54550 0.84970 0.90250 -0.83200
O 	O 	0.08070 0.64180 0.19670 -0.66100
O 	O 	0.89560 0.88300 0.66850 -0.75900
P 	P 	0.49710 0.03110 0.20570 0.84400
P 	P 	0.72410 0.52390 0.09720 0.70100
P 	P 	0.96600 0.20130 0.35040 0.83000
P 	P 	0.81290 0.23190 0.86010 0.76900
Al	Al	0.76840 0.21340 0.16110 2.39500
Al	Al	0.51570 0.77570 0.07710 2.39800
Al	Al	0.82150 0.04880 0.65780 2.39800
Al	Al	0.02280 0.49960 0.13250 2.39300
O 	O 	0.83040 0.55340 0.16960 -0.65900
O 	O 	0.59610 0.61610 0.12280 -0.71500
O 	O 	0.80050 0.15680 0.01020 -0.74900
O 	O 	0.55170 0.90760 0.14880 -0.83000
O 	O 	0.61050 0.08720 0.25480 -0.65000
O 	O 	0.66230 0.36680 0.16230 -0.70000
O 	O 	0.00760 0.35910 0.29280 -0.66900
O 	O 	0.89480 0.16750 0.50160 -0.78000
O 	O 	0.95310 0.35970 0.05290 -0.99600
O 	O 	0.78830 0.55000 0.94480 -0.66800
O 	O 	0.86490 0.14840 0.28270 -0.77700
O 	O 	0.66400 0.28440 0.84610 -0.77200
O 	O 	0.85290 0.11910 0.78420 -0.76100
O 	O 	0.36320 0.97990 0.32110 -0.75100
O 	O 	0.45450 0.15030 0.09750 -0.83200
O 	O 	0.91930 0.35820 0.80330 -0.66100
O 	O 	0.10440 0.11700 0.33150 -0.75900
