data_crystal

_cell_length_a 15.08820
_cell_length_b 16.18480
_cell_length_c 27.42940
_cell_angle_alpha 90.00000
_cell_angle_beta  105.47900
_cell_angle_gamma 90.00000

_symmetry_space_group_name_	'P 1'
_symmetry_space_group_name_H-M	'P 1'

loop_
_symmetry_equiv_pos_as_xyz
  x,y,z

loop_
_atom_site_label
_atom_site_type_symbol
_atom_site_fract_x
_atom_site_fract_y
_atom_site_fract_z
_atom_site_charge
W 	W 	0.56264 0.22443 0.45023 0.97700
W 	W 	0.75176 0.28142 0.39216 1.00500
W 	W 	0.58577 0.23358 0.57486 1.00500
W 	W 	0.93359 0.36755 0.47611 1.32200
W 	W 	0.89766 0.15965 0.47664 0.96600
W 	W 	0.95847 0.37717 0.61118 0.98000
W 	W 	0.80208 0.30248 0.66761 0.99200
W 	W 	0.70639 0.09371 0.52814 0.98400
W 	W 	0.92098 0.16891 0.61508 0.96200
W 	W 	0.59480 0.43922 0.41777 1.36300
W 	W 	0.37207 0.54726 0.39692 1.37300
Nd	Nd	0.80234 0.56564 0.52554 1.81300
Nd	Nd	0.65099 0.71733 0.26197 1.44600
As	As	0.75749 0.32239 0.52740 0.40600
P 	P 	0.51700 0.56710 0.32277 0.45700
P 	P 	0.41240 0.41050 0.31616 0.44000
O 	O 	0.68560 0.38120 0.39490 -0.48700
O 	O 	0.91260 0.36330 0.67130 -0.46400
O 	O 	0.81960 0.28450 0.48360 -0.37800
O 	O 	0.49970 0.37830 0.35540 -0.38500
O 	O 	0.93350 0.16050 0.54830 -0.46900
O 	O 	0.34960 0.45780 0.34350 -0.41200
O 	O 	0.48590 0.49350 0.42430 -0.51500
O 	O 	0.61570 0.12250 0.56710 -0.44500
O 	O 	0.40200 0.64490 0.43170 -0.47600
O 	O 	0.86190 0.34200 0.40580 -0.48300
O 	O 	0.83600 0.29310 0.58580 -0.35100
O 	O 	0.86830 0.45460 0.48220 -0.56700
O 	O 	0.44550 0.60380 0.34700 -0.37400
O 	O 	0.86600 0.20100 0.66840 -0.46300
O 	O 	0.97570 0.24400 0.47210 -0.47700
O 	O 	0.78270 0.10780 0.48710 -0.45000
O 	O 	0.50990 0.23740 0.50600 -0.46400
O 	O 	0.68500 0.23390 0.52320 -0.35000
O 	O 	0.97950 0.35060 0.54640 -0.50700
O 	O 	0.57670 0.34530 0.45240 -0.47700
O 	O 	0.65200 0.23160 0.41250 -0.45300
O 	O 	0.59460 0.52280 0.36350 -0.41100
O 	O 	0.81990 0.18240 0.40990 -0.46500
O 	O 	0.00350 0.25480 0.63020 -0.46000
O 	O 	0.80080 0.11490 0.58450 -0.45700
O 	O 	0.35960 0.34440 0.28230 -0.48800
O 	O 	0.26650 0.59980 0.35420 -0.48800
O 	O 	0.67280 0.49240 0.46490 -0.58100
O 	O 	0.88510 0.45960 0.58640 -0.53200
O 	O 	0.69290 0.24800 0.62980 -0.44300
O 	O 	0.03050 0.40590 0.46130 -0.61400
O 	O 	0.31300 0.49910 0.43390 -0.58400
O 	O 	0.55640 0.63020 0.29380 -0.46800
O 	O 	0.59760 0.11630 0.47020 -0.45200
O 	O 	0.52100 0.44970 0.25650 -0.39900
H 	H 	0.49550 0.41170 0.23830 0.23200
C 	C 	0.45510 0.48880 0.28060 0.05800
C 	C 	0.37580 0.52690 0.24160 -0.45300
H 	H 	0.33400 0.55190 0.25830 0.14500
H 	H 	0.39860 0.56820 0.22300 0.14000
H 	H 	0.34420 0.48480 0.21880 0.14400
O 	O 	0.61800 0.78880 0.32660 -0.32900
O 	O 	0.55560 0.82200 0.30640 -0.15000
W 	W 	0.43736 0.72443 0.04977 0.97800
W 	W 	0.24824 0.78142 0.10784 1.00600
W 	W 	0.41423 0.73358 0.92514 1.00600
W 	W 	0.06641 0.86755 0.02389 1.32300
W 	W 	0.10234 0.65965 0.02336 0.96800
W 	W 	0.04153 0.87717 0.88882 0.98100
W 	W 	0.19792 0.80248 0.83239 0.99300
W 	W 	0.29361 0.59371 0.97186 0.98600
W 	W 	0.07902 0.66891 0.88492 0.96300
W 	W 	0.40520 0.93922 0.08223 1.36400
W 	W 	0.62793 0.04726 0.10308 1.37400
Nd	Nd	0.19766 0.06564 0.97446 1.81500
Nd	Nd	0.34901 0.21733 0.23803 1.44600
As	As	0.24251 0.82239 0.97260 0.40600
P 	P 	0.48300 0.06710 0.17723 0.45700
P 	P 	0.58760 0.91050 0.18384 0.44000
O 	O 	0.31440 0.88120 0.10510 -0.48700
O 	O 	0.08740 0.86330 0.82870 -0.46400
O 	O 	0.18040 0.78450 0.01640 -0.37800
O 	O 	0.50030 0.87830 0.14460 -0.38500
O 	O 	0.06650 0.66050 0.95170 -0.46900
O 	O 	0.65040 0.95780 0.15650 -0.41200
O 	O 	0.51410 0.99350 0.07570 -0.51500
O 	O 	0.38430 0.62250 0.93290 -0.44500
O 	O 	0.59800 0.14490 0.06830 -0.47600
O 	O 	0.13810 0.84200 0.09420 -0.48300
O 	O 	0.16400 0.79310 0.91420 -0.35100
O 	O 	0.13170 0.95460 0.01780 -0.56700
O 	O 	0.55450 0.10380 0.15300 -0.37400
O 	O 	0.13400 0.70100 0.83160 -0.46300
O 	O 	0.02430 0.74400 0.02790 -0.47600
O 	O 	0.21730 0.60780 0.01290 -0.44900
O 	O 	0.49010 0.73740 0.99400 -0.46400
O 	O 	0.31500 0.73390 0.97680 -0.35000
O 	O 	0.02050 0.85060 0.95360 -0.50700
O 	O 	0.42330 0.84530 0.04760 -0.47700
O 	O 	0.34800 0.73160 0.08750 -0.45300
O 	O 	0.40540 0.02280 0.13650 -0.41100
O 	O 	0.18010 0.68240 0.09010 -0.46500
O 	O 	0.99650 0.75480 0.86980 -0.46000
O 	O 	0.19920 0.61490 0.91550 -0.45700
O 	O 	0.64040 0.84440 0.21770 -0.48800
O 	O 	0.73350 0.09980 0.14580 -0.48800
O 	O 	0.32720 0.99240 0.03510 -0.58100
O 	O 	0.11490 0.95960 0.91360 -0.53200
O 	O 	0.30710 0.74800 0.87020 -0.44300
O 	O 	0.96950 0.90590 0.03870 -0.61400
O 	O 	0.68700 0.99910 0.06610 -0.58400
O 	O 	0.44360 0.13020 0.20620 -0.46800
O 	O 	0.40240 0.61630 0.02980 -0.45200
O 	O 	0.47900 0.94970 0.24350 -0.40000
H 	H 	0.50450 0.91170 0.26170 0.23200
C 	C 	0.54490 0.98880 0.21940 0.05800
C 	C 	0.62420 0.02690 0.25840 -0.45300
H 	H 	0.66600 0.05190 0.24170 0.14500
H 	H 	0.60140 0.06820 0.27700 0.14000
H 	H 	0.65580 0.98480 0.28120 0.14400
O 	O 	0.38200 0.28880 0.17340 -0.32900
O 	O 	0.44440 0.32200 0.19360 -0.15000
W 	W 	0.43736 0.77557 0.54977 0.97800
W 	W 	0.24824 0.71858 0.60784 1.00600
W 	W 	0.41423 0.76642 0.42514 1.00600
W 	W 	0.06641 0.63245 0.52389 1.32300
W 	W 	0.10234 0.84035 0.52336 0.96700
W 	W 	0.04153 0.62283 0.38882 0.98100
W 	W 	0.19792 0.69752 0.33239 0.99300
W 	W 	0.29361 0.90629 0.47186 0.98500
W 	W 	0.07902 0.83109 0.38492 0.96300
W 	W 	0.40520 0.56078 0.58223 1.36400
W 	W 	0.62793 0.45274 0.60308 1.37400
Nd	Nd	0.19766 0.43436 0.47446 1.81400
Nd	Nd	0.34901 0.28267 0.73803 1.44600
As	As	0.24251 0.67761 0.47260 0.40600
P 	P 	0.48300 0.43290 0.67723 0.45700
P 	P 	0.58760 0.58950 0.68384 0.44000
O 	O 	0.31440 0.61880 0.60510 -0.48700
O 	O 	0.08740 0.63670 0.32870 -0.46400
O 	O 	0.18040 0.71550 0.51640 -0.37800
O 	O 	0.50030 0.62170 0.64460 -0.38500
O 	O 	0.06650 0.83950 0.45170 -0.46900
O 	O 	0.65040 0.54220 0.65650 -0.41200
O 	O 	0.51410 0.50650 0.57570 -0.51500
O 	O 	0.38430 0.87750 0.43290 -0.44500
O 	O 	0.59800 0.35510 0.56830 -0.47600
O 	O 	0.13810 0.65800 0.59420 -0.48300
O 	O 	0.16400 0.70690 0.41420 -0.35100
O 	O 	0.13170 0.54540 0.51780 -0.56700
O 	O 	0.55450 0.39620 0.65300 -0.37400
O 	O 	0.13400 0.79900 0.33160 -0.46300
O 	O 	0.02430 0.75600 0.52790 -0.47700
O 	O 	0.21730 0.89220 0.51290 -0.45000
O 	O 	0.49010 0.76260 0.49400 -0.46400
O 	O 	0.31500 0.76610 0.47680 -0.35000
O 	O 	0.02050 0.64940 0.45360 -0.50700
O 	O 	0.42330 0.65470 0.54760 -0.47700
O 	O 	0.34800 0.76840 0.58750 -0.45300
O 	O 	0.40540 0.47720 0.63650 -0.41100
O 	O 	0.18010 0.81760 0.59010 -0.46500
O 	O 	0.99650 0.74520 0.36980 -0.46000
O 	O 	0.19920 0.88510 0.41550 -0.45700
O 	O 	0.64040 0.65560 0.71770 -0.48800
O 	O 	0.73350 0.40020 0.64580 -0.48800
O 	O 	0.32720 0.50760 0.53510 -0.58100
O 	O 	0.11490 0.54040 0.41360 -0.53200
O 	O 	0.30710 0.75200 0.37020 -0.44300
O 	O 	0.96950 0.59410 0.53870 -0.61400
O 	O 	0.68700 0.50090 0.56610 -0.58400
O 	O 	0.44360 0.36980 0.70620 -0.46800
O 	O 	0.40240 0.88370 0.52980 -0.45200
O 	O 	0.47900 0.55030 0.74350 -0.39900
H 	H 	0.50450 0.58830 0.76170 0.23200
C 	C 	0.54490 0.51120 0.71940 0.05800
C 	C 	0.62420 0.47310 0.75840 -0.45300
H 	H 	0.66600 0.44810 0.74170 0.14500
H 	H 	0.60140 0.43180 0.77700 0.14000
H 	H 	0.65580 0.51520 0.78120 0.14400
O 	O 	0.38200 0.21120 0.67340 -0.32900
O 	O 	0.44440 0.17800 0.69360 -0.15000
W 	W 	0.56264 0.27557 0.95023 0.97800
W 	W 	0.75176 0.21858 0.89216 1.00600
W 	W 	0.58577 0.26642 0.07486 1.00600
W 	W 	0.93359 0.13245 0.97611 1.32300
W 	W 	0.89766 0.34035 0.97664 0.96800
W 	W 	0.95847 0.12283 0.11118 0.98100
W 	W 	0.80208 0.19752 0.16761 0.99300
W 	W 	0.70639 0.40629 0.02814 0.98600
W 	W 	0.92098 0.33109 0.11508 0.96300
W 	W 	0.59480 0.06078 0.91777 1.36400
W 	W 	0.37207 0.95274 0.89692 1.37400
Nd	Nd	0.80234 0.93436 0.02554 1.81500
Nd	Nd	0.65099 0.78267 0.76197 1.44600
As	As	0.75749 0.17761 0.02740 0.40600
P 	P 	0.51700 0.93290 0.82277 0.45700
P 	P 	0.41240 0.08950 0.81616 0.44000
O 	O 	0.68560 0.11880 0.89490 -0.48700
O 	O 	0.91260 0.13670 0.17130 -0.46400
O 	O 	0.81960 0.21550 0.98360 -0.37800
O 	O 	0.49970 0.12170 0.85540 -0.38500
O 	O 	0.93350 0.33950 0.04830 -0.46900
O 	O 	0.34960 0.04220 0.84350 -0.41200
O 	O 	0.48590 0.00650 0.92430 -0.51500
O 	O 	0.61570 0.37750 0.06710 -0.44500
O 	O 	0.40200 0.85510 0.93170 -0.47600
O 	O 	0.86190 0.15800 0.90580 -0.48300
O 	O 	0.83600 0.20690 0.08580 -0.35100
O 	O 	0.86830 0.04540 0.98220 -0.56700
O 	O 	0.44550 0.89620 0.84700 -0.37400
O 	O 	0.86600 0.29900 0.16840 -0.46300
O 	O 	0.97570 0.25600 0.97210 -0.47600
O 	O 	0.78270 0.39220 0.98710 -0.44900
O 	O 	0.50990 0.26260 0.00600 -0.46400
O 	O 	0.68500 0.26610 0.02320 -0.35000
O 	O 	0.97950 0.14940 0.04640 -0.50700
O 	O 	0.57670 0.15470 0.95240 -0.47700
O 	O 	0.65200 0.26840 0.91250 -0.45300
O 	O 	0.59460 0.97720 0.86350 -0.41100
O 	O 	0.81990 0.31760 0.90990 -0.46500
O 	O 	0.00350 0.24520 0.13020 -0.46000
O 	O 	0.80080 0.38510 0.08450 -0.45700
O 	O 	0.35960 0.15560 0.78230 -0.48800
O 	O 	0.26650 0.90020 0.85420 -0.48800
O 	O 	0.67280 0.00760 0.96490 -0.58100
O 	O 	0.88510 0.04040 0.08640 -0.53200
O 	O 	0.69290 0.25200 0.12980 -0.44300
O 	O 	0.03050 0.09410 0.96130 -0.61400
O 	O 	0.31300 0.00090 0.93390 -0.58400
O 	O 	0.55640 0.86980 0.79380 -0.46800
O 	O 	0.59760 0.38370 0.97020 -0.45200
O 	O 	0.52100 0.05030 0.75650 -0.40000
H 	H 	0.49550 0.08830 0.73830 0.23200
C 	C 	0.45510 0.01120 0.78060 0.05800
C 	C 	0.37580 0.97310 0.74160 -0.45300
H 	H 	0.33400 0.94810 0.75830 0.14500
H 	H 	0.39860 0.93180 0.72300 0.14000
H 	H 	0.34420 0.01520 0.71880 0.14400
O 	O 	0.61800 0.71120 0.82660 -0.32900
O 	O 	0.55560 0.67800 0.80640 -0.15000
