data_crystal

_cell_length_a 14.98800
_cell_length_b 16.10100
_cell_length_c 27.40400
_cell_angle_alpha 90.00000
_cell_angle_beta  105.19800
_cell_angle_gamma 90.00000

_symmetry_space_group_name_	'P 1'
_symmetry_space_group_name_H-M	'P 1'

loop_
_symmetry_equiv_pos_as_xyz
  x,y,z

loop_
_atom_site_label
_atom_site_type_symbol
_atom_site_fract_x
_atom_site_fract_y
_atom_site_fract_z
_atom_site_charge
W 	W 	0.56315 0.22137 0.45213 0.96000
W 	W 	0.75301 0.27959 0.39359 1.00200
W 	W 	0.58685 0.23087 0.57694 1.00900
W 	W 	0.93512 0.36743 0.47682 1.31900
W 	W 	0.90050 0.15810 0.47760 0.96300
W 	W 	0.95927 0.37788 0.61186 1.00700
W 	W 	0.80341 0.30110 0.66931 1.00600
W 	W 	0.70890 0.09085 0.52983 0.98000
W 	W 	0.92384 0.16787 0.61617 0.97800
W 	W 	0.59471 0.43794 0.41966 1.37000
W 	W 	0.37155 0.54824 0.39561 1.35300
Sm	Sm	0.80210 0.56513 0.52594 1.69500
Sm	Sm	0.65046 0.71448 0.25892 1.35300
As	As	0.75810 0.32087 0.52866 0.40600
P 	P 	0.52100 0.56430 0.32340 0.43200
P 	P 	0.41450 0.40880 0.31710 0.39800
O 	O 	0.68820 0.37940 0.39730 -0.48400
O 	O 	0.91310 0.36040 0.67180 -0.47400
O 	O 	0.82190 0.28320 0.48480 -0.37700
O 	O 	0.50080 0.37480 0.35900 -0.37500
O 	O 	0.93740 0.15750 0.54890 -0.47000
O 	O 	0.35150 0.45850 0.34270 -0.40500
O 	O 	0.48560 0.49470 0.42430 -0.51000
O 	O 	0.61800 0.11900 0.56960 -0.44200
O 	O 	0.40380 0.64760 0.42940 -0.47300
O 	O 	0.86600 0.34140 0.40750 -0.47900
O 	O 	0.83710 0.29240 0.58720 -0.35300
O 	O 	0.86880 0.45380 0.48470 -0.54800
O 	O 	0.44720 0.60160 0.34660 -0.36800
O 	O 	0.87070 0.19830 0.66980 -0.46000
O 	O 	0.97760 0.24480 0.47250 -0.47600
O 	O 	0.78460 0.10450 0.48960 -0.45500
O 	O 	0.51190 0.23350 0.50900 -0.46300
O 	O 	0.68610 0.23210 0.52630 -0.35500
O 	O 	0.97870 0.35350 0.54810 -0.50900
O 	O 	0.57620 0.34530 0.45340 -0.48000
O 	O 	0.65380 0.22850 0.41530 -0.45000
O 	O 	0.59600 0.51900 0.36500 -0.41100
O 	O 	0.82010 0.18060 0.41150 -0.46700
O 	O 	0.00450 0.25380 0.63100 -0.46200
O 	O 	0.80410 0.11150 0.58740 -0.45200
O 	O 	0.35900 0.33840 0.28330 -0.47100
O 	O 	0.26720 0.60070 0.35120 -0.48800
O 	O 	0.67300 0.49140 0.46770 -0.56200
O 	O 	0.88660 0.45980 0.58600 -0.52000
O 	O 	0.69680 0.24670 0.63320 -0.44700
O 	O 	0.03240 0.40820 0.46140 -0.59200
O 	O 	0.31210 0.49830 0.43380 -0.55900
O 	O 	0.56020 0.62880 0.29400 -0.45000
O 	O 	0.59620 0.11010 0.47170 -0.43700
O 	O 	0.52300 0.44300 0.25830 -0.43600
H 	H 	0.49640 0.40510 0.24020 0.24500
C 	C 	0.46200 0.48200 0.28000 0.15400
C 	C 	0.38500 0.51700 0.24170 -0.60900
H 	H 	0.34340 0.54430 0.25770 0.19500
H 	H 	0.40860 0.55680 0.22200 0.18500
H 	H 	0.35350 0.47360 0.22020 0.19400
O 	O 	0.61400 0.79100 0.32000 -0.31200
O 	O 	0.54800 0.80900 0.30200 -0.13600
W 	W 	0.43685 0.72137 0.04787 0.96100
W 	W 	0.24699 0.77959 0.10641 1.00300
W 	W 	0.41315 0.73087 0.92306 1.01000
W 	W 	0.06488 0.86743 0.02318 1.32000
W 	W 	0.09950 0.65810 0.02240 0.96500
W 	W 	0.04073 0.87788 0.88814 1.00700
W 	W 	0.19659 0.80110 0.83069 1.00600
W 	W 	0.29110 0.59085 0.97017 0.98100
W 	W 	0.07616 0.66787 0.88383 0.97900
W 	W 	0.40529 0.93794 0.08034 1.37100
W 	W 	0.62845 0.04824 0.10439 1.35400
Sm	Sm	0.19790 0.06513 0.97406 1.69700
Sm	Sm	0.34954 0.21448 0.24108 1.35400
As	As	0.24190 0.82087 0.97134 0.40800
P 	P 	0.47900 0.06430 0.17660 0.43300
P 	P 	0.58550 0.90880 0.18290 0.39900
O 	O 	0.31180 0.87940 0.10270 -0.48400
O 	O 	0.08690 0.86040 0.82820 -0.47400
O 	O 	0.17810 0.78320 0.01520 -0.37700
O 	O 	0.49920 0.87480 0.14100 -0.37500
O 	O 	0.06260 0.65750 0.95110 -0.47000
O 	O 	0.64850 0.95850 0.15730 -0.40600
O 	O 	0.51440 0.99470 0.07570 -0.51000
O 	O 	0.38200 0.61900 0.93040 -0.44200
O 	O 	0.59620 0.14760 0.07060 -0.47300
O 	O 	0.13400 0.84140 0.09250 -0.47900
O 	O 	0.16290 0.79240 0.91280 -0.35300
O 	O 	0.13120 0.95380 0.01530 -0.54900
O 	O 	0.55280 0.10160 0.15340 -0.36800
O 	O 	0.12930 0.69830 0.83020 -0.45900
O 	O 	0.02240 0.74480 0.02750 -0.47600
O 	O 	0.21540 0.60450 0.01040 -0.45400
O 	O 	0.48810 0.73350 0.99100 -0.46200
O 	O 	0.31390 0.73210 0.97370 -0.35500
O 	O 	0.02130 0.85350 0.95190 -0.50900
O 	O 	0.42380 0.84530 0.04660 -0.48000
O 	O 	0.34620 0.72850 0.08470 -0.45000
O 	O 	0.40400 0.01900 0.13500 -0.41100
O 	O 	0.17990 0.68060 0.08850 -0.46700
O 	O 	0.99550 0.75380 0.86900 -0.46200
O 	O 	0.19590 0.61150 0.91260 -0.45200
O 	O 	0.64100 0.83840 0.21670 -0.47100
O 	O 	0.73280 0.10070 0.14880 -0.48800
O 	O 	0.32700 0.99140 0.03230 -0.56200
O 	O 	0.11340 0.95980 0.91400 -0.52000
O 	O 	0.30320 0.74670 0.86680 -0.44700
O 	O 	0.96760 0.90820 0.03860 -0.59200
O 	O 	0.68790 0.99830 0.06620 -0.55900
O 	O 	0.43980 0.12880 0.20600 -0.45000
O 	O 	0.40380 0.61010 0.02830 -0.43700
O 	O 	0.47700 0.94300 0.24170 -0.43600
H 	H 	0.50360 0.90510 0.25980 0.24500
C 	C 	0.53800 0.98200 0.22000 0.15400
C 	C 	0.61500 0.01700 0.25830 -0.61000
H 	H 	0.65660 0.04430 0.24230 0.19500
H 	H 	0.59140 0.05680 0.27800 0.18500
H 	H 	0.64650 0.97360 0.27980 0.19500
O 	O 	0.38600 0.29100 0.18000 -0.31200
O 	O 	0.45200 0.30900 0.19800 -0.13600
W 	W 	0.43685 0.77863 0.54787 0.96100
W 	W 	0.24699 0.72041 0.60641 1.00300
W 	W 	0.41315 0.76913 0.42306 1.01000
W 	W 	0.06488 0.63257 0.52318 1.32000
W 	W 	0.09950 0.84190 0.52240 0.96400
W 	W 	0.04073 0.62212 0.38814 1.00800
W 	W 	0.19659 0.69890 0.33069 1.00700
W 	W 	0.29110 0.90915 0.47017 0.98100
W 	W 	0.07616 0.83213 0.38383 0.97900
W 	W 	0.40529 0.56206 0.58034 1.37100
W 	W 	0.62845 0.45176 0.60439 1.35400
Sm	Sm	0.19790 0.43487 0.47406 1.69600
Sm	Sm	0.34954 0.28552 0.74108 1.35400
As	As	0.24190 0.67913 0.47134 0.40700
P 	P 	0.47900 0.43570 0.67660 0.43300
P 	P 	0.58550 0.59120 0.68290 0.39900
O 	O 	0.31180 0.62060 0.60270 -0.48400
O 	O 	0.08690 0.63960 0.32820 -0.47400
O 	O 	0.17810 0.71680 0.51520 -0.37700
O 	O 	0.49920 0.62520 0.64100 -0.37500
O 	O 	0.06260 0.84250 0.45110 -0.47000
O 	O 	0.64850 0.54150 0.65730 -0.40500
O 	O 	0.51440 0.50530 0.57570 -0.51000
O 	O 	0.38200 0.88100 0.43040 -0.44200
O 	O 	0.59620 0.35240 0.57060 -0.47300
O 	O 	0.13400 0.65860 0.59250 -0.47900
O 	O 	0.16290 0.70760 0.41280 -0.35300
O 	O 	0.13120 0.54620 0.51530 -0.54800
O 	O 	0.55280 0.39840 0.65340 -0.36800
O 	O 	0.12930 0.80170 0.33020 -0.46000
O 	O 	0.02240 0.75520 0.52750 -0.47600
O 	O 	0.21540 0.89550 0.51040 -0.45500
O 	O 	0.48810 0.76650 0.49100 -0.46300
O 	O 	0.31390 0.76790 0.47370 -0.35500
O 	O 	0.02130 0.64650 0.45190 -0.50900
O 	O 	0.42380 0.65470 0.54660 -0.48000
O 	O 	0.34620 0.77150 0.58470 -0.45000
O 	O 	0.40400 0.48100 0.63500 -0.41100
O 	O 	0.17990 0.81940 0.58850 -0.46700
O 	O 	0.99550 0.74620 0.36900 -0.46200
O 	O 	0.19590 0.88850 0.41260 -0.45200
O 	O 	0.64100 0.66160 0.71670 -0.47100
O 	O 	0.73280 0.39930 0.64880 -0.48800
O 	O 	0.32700 0.50860 0.53230 -0.56200
O 	O 	0.11340 0.54020 0.41400 -0.52000
O 	O 	0.30320 0.75330 0.36680 -0.44700
O 	O 	0.96760 0.59180 0.53860 -0.59200
O 	O 	0.68790 0.50170 0.56620 -0.55900
O 	O 	0.43980 0.37120 0.70600 -0.45000
O 	O 	0.40380 0.88990 0.52830 -0.43700
O 	O 	0.47700 0.55700 0.74170 -0.43600
H 	H 	0.50360 0.59490 0.75980 0.24500
C 	C 	0.53800 0.51800 0.72000 0.15400
C 	C 	0.61500 0.48300 0.75830 -0.60900
H 	H 	0.65660 0.45570 0.74230 0.19500
H 	H 	0.59140 0.44320 0.77800 0.18500
H 	H 	0.64650 0.52640 0.77980 0.19400
O 	O 	0.38600 0.20900 0.68000 -0.31200
O 	O 	0.45200 0.19100 0.69800 -0.13600
W 	W 	0.56315 0.27863 0.95213 0.96100
W 	W 	0.75301 0.22041 0.89359 1.00300
W 	W 	0.58685 0.26913 0.07694 1.01000
W 	W 	0.93512 0.13257 0.97682 1.32000
W 	W 	0.90050 0.34190 0.97760 0.96500
W 	W 	0.95927 0.12212 0.11186 1.00700
W 	W 	0.80341 0.19890 0.16931 1.00600
W 	W 	0.70890 0.40915 0.02983 0.98100
W 	W 	0.92384 0.33213 0.11617 0.97900
W 	W 	0.59471 0.06206 0.91966 1.37100
W 	W 	0.37155 0.95176 0.89561 1.35400
Sm	Sm	0.80210 0.93487 0.02594 1.69700
Sm	Sm	0.65046 0.78552 0.75892 1.35400
As	As	0.75810 0.17913 0.02866 0.40800
P 	P 	0.52100 0.93570 0.82340 0.43300
P 	P 	0.41450 0.09120 0.81710 0.39900
O 	O 	0.68820 0.12060 0.89730 -0.48400
O 	O 	0.91310 0.13960 0.17180 -0.47400
O 	O 	0.82190 0.21680 0.98480 -0.37700
O 	O 	0.50080 0.12520 0.85900 -0.37500
O 	O 	0.93740 0.34250 0.04890 -0.47000
O 	O 	0.35150 0.04150 0.84270 -0.40600
O 	O 	0.48560 0.00530 0.92430 -0.51000
O 	O 	0.61800 0.38100 0.06960 -0.44200
O 	O 	0.40380 0.85240 0.92940 -0.47300
O 	O 	0.86600 0.15860 0.90750 -0.47900
O 	O 	0.83710 0.20760 0.08720 -0.35300
O 	O 	0.86880 0.04620 0.98470 -0.54900
O 	O 	0.44720 0.89840 0.84660 -0.36800
O 	O 	0.87070 0.30170 0.16980 -0.45900
O 	O 	0.97760 0.25520 0.97250 -0.47600
O 	O 	0.78460 0.39550 0.98960 -0.45400
O 	O 	0.51190 0.26650 0.00900 -0.46200
O 	O 	0.68610 0.26790 0.02630 -0.35500
O 	O 	0.97870 0.14650 0.04810 -0.50900
O 	O 	0.57620 0.15470 0.95340 -0.48000
O 	O 	0.65380 0.27150 0.91530 -0.45000
O 	O 	0.59600 0.98100 0.86500 -0.41100
O 	O 	0.82010 0.31940 0.91150 -0.46700
O 	O 	0.00450 0.24620 0.13100 -0.46200
O 	O 	0.80410 0.38850 0.08740 -0.45200
O 	O 	0.35900 0.16160 0.78330 -0.47100
O 	O 	0.26720 0.89930 0.85120 -0.48800
O 	O 	0.67300 0.00860 0.96770 -0.56200
O 	O 	0.88660 0.04020 0.08600 -0.52000
O 	O 	0.69680 0.25330 0.13320 -0.44700
O 	O 	0.03240 0.09180 0.96140 -0.59200
O 	O 	0.31210 0.00170 0.93380 -0.55900
O 	O 	0.56020 0.87120 0.79400 -0.45000
O 	O 	0.59620 0.38990 0.97170 -0.43700
O 	O 	0.52300 0.05700 0.75830 -0.43600
H 	H 	0.49640 0.09490 0.74020 0.24500
C 	C 	0.46200 0.01800 0.78000 0.15400
C 	C 	0.38500 0.98300 0.74170 -0.61000
H 	H 	0.34340 0.95570 0.75770 0.19500
H 	H 	0.40860 0.94320 0.72200 0.18500
H 	H 	0.35350 0.02640 0.72020 0.19500
O 	O 	0.61400 0.70900 0.82000 -0.31200
O 	O 	0.54800 0.69100 0.80200 -0.13600
