data_crystal

_cell_length_a 14.93470
_cell_length_b 16.02480
_cell_length_c 27.30000
_cell_angle_alpha 90.00000
_cell_angle_beta  105.06500
_cell_angle_gamma 90.00000

_symmetry_space_group_name_	'P 1'
_symmetry_space_group_name_H-M	'P 1'

loop_
_symmetry_equiv_pos_as_xyz
  x,y,z

loop_
_atom_site_label
_atom_site_type_symbol
_atom_site_fract_x
_atom_site_fract_y
_atom_site_fract_z
_atom_site_charge
W 	W 	0.56363 0.22044 0.45270 0.98100
W 	W 	0.75348 0.27917 0.39377 1.00100
W 	W 	0.58700 0.23003 0.57755 1.04100
W 	W 	0.93533 0.36768 0.47687 1.31300
W 	W 	0.90141 0.15772 0.47773 0.99000
W 	W 	0.95940 0.37825 0.61179 1.00100
W 	W 	0.80369 0.30095 0.66957 1.01900
W 	W 	0.70958 0.08987 0.53031 0.96700
W 	W 	0.92488 0.16768 0.61635 0.99300
W 	W 	0.59490 0.43735 0.42010 1.36200
W 	W 	0.37131 0.54845 0.39537 1.36600
Eu	Eu	0.80183 0.56471 0.52599 1.63700
Eu	Eu	0.65031 0.71390 0.25827 1.28900
As	As	0.75867 0.32037 0.52897 0.41400
P 	P 	0.52220 0.56480 0.32354 0.45300
P 	P 	0.41580 0.40790 0.31754 0.43400
O 	O 	0.68850 0.38090 0.39750 -0.48100
O 	O 	0.91040 0.36310 0.67250 -0.46900
O 	O 	0.82130 0.28340 0.48510 -0.38200
O 	O 	0.50090 0.37440 0.35780 -0.38500
O 	O 	0.93920 0.15790 0.54950 -0.47300
O 	O 	0.35130 0.45690 0.34270 -0.41100
O 	O 	0.48520 0.49410 0.42510 -0.51300
O 	O 	0.61710 0.11870 0.57020 -0.44700
O 	O 	0.40170 0.64910 0.42880 -0.47900
O 	O 	0.86440 0.34180 0.40660 -0.47700
O 	O 	0.83820 0.29230 0.58750 -0.35600
O 	O 	0.86890 0.45380 0.48400 -0.54600
O 	O 	0.44870 0.60400 0.34600 -0.37400
O 	O 	0.86970 0.20000 0.66960 -0.47000
O 	O 	0.97890 0.24270 0.47260 -0.47600
O 	O 	0.78860 0.10460 0.48900 -0.45000
O 	O 	0.51100 0.23330 0.51040 -0.46500
O 	O 	0.68650 0.23050 0.52570 -0.35700
O 	O 	0.98200 0.35120 0.54760 -0.50100
O 	O 	0.57560 0.34290 0.45490 -0.47800
O 	O 	0.65410 0.22770 0.41530 -0.45400
O 	O 	0.59830 0.52000 0.36460 -0.40000
O 	O 	0.82240 0.17880 0.41160 -0.46700
O 	O 	0.00530 0.25410 0.63040 -0.46300
O 	O 	0.80520 0.11220 0.58740 -0.45400
O 	O 	0.36280 0.34140 0.28370 -0.46600
O 	O 	0.26680 0.59960 0.35170 -0.48800
O 	O 	0.67210 0.49200 0.46680 -0.55900
O 	O 	0.88580 0.45950 0.58740 -0.51200
O 	O 	0.69500 0.24600 0.63210 -0.45400
O 	O 	0.03420 0.40800 0.46230 -0.58600
O 	O 	0.30870 0.50120 0.43230 -0.55900
O 	O 	0.56460 0.62550 0.29500 -0.44900
O 	O 	0.59830 0.11150 0.47180 -0.44700
O 	O 	0.52570 0.44230 0.25760 -0.41500
H 	H 	0.50050 0.40400 0.23910 0.23500
C 	C 	0.45940 0.48190 0.27970 0.11600
C 	C 	0.38400 0.52100 0.24280 -0.55800
H 	H 	0.34220 0.54630 0.25990 0.17900
H 	H 	0.40820 0.56300 0.22470 0.17100
H 	H 	0.35140 0.47970 0.21940 0.17800
O 	O 	0.61700 0.78800 0.32300 -0.28800
O 	O 	0.56000 0.81200 0.30500 -0.13100
W 	W 	0.43637 0.72044 0.04730 0.97900
W 	W 	0.24652 0.77917 0.10623 1.00000
W 	W 	0.41300 0.73003 0.92245 1.04100
W 	W 	0.06467 0.86768 0.02313 1.31300
W 	W 	0.09859 0.65772 0.02227 0.99000
W 	W 	0.04060 0.87825 0.88821 1.00100
W 	W 	0.19631 0.80095 0.83043 1.01900
W 	W 	0.29042 0.58987 0.96969 0.96800
W 	W 	0.07512 0.66768 0.88365 0.99300
W 	W 	0.40510 0.93735 0.07990 1.36100
W 	W 	0.62869 0.04845 0.10463 1.36700
Eu	Eu	0.19817 0.06471 0.97401 1.63500
Eu	Eu	0.34969 0.21390 0.24173 1.28900
As	As	0.24133 0.82037 0.97103 0.41500
P 	P 	0.47780 0.06480 0.17646 0.45400
P 	P 	0.58420 0.90790 0.18246 0.43500
O 	O 	0.31150 0.88090 0.10250 -0.48100
O 	O 	0.08960 0.86310 0.82750 -0.46900
O 	O 	0.17870 0.78340 0.01490 -0.38200
O 	O 	0.49910 0.87440 0.14220 -0.38500
O 	O 	0.06080 0.65790 0.95050 -0.47300
O 	O 	0.64870 0.95690 0.15730 -0.41200
O 	O 	0.51480 0.99410 0.07490 -0.51400
O 	O 	0.38290 0.61870 0.92980 -0.44700
O 	O 	0.59830 0.14910 0.07120 -0.47900
O 	O 	0.13560 0.84180 0.09340 -0.47700
O 	O 	0.16180 0.79230 0.91250 -0.35600
O 	O 	0.13110 0.95380 0.01600 -0.54600
O 	O 	0.55130 0.10400 0.15400 -0.37400
O 	O 	0.13030 0.70000 0.83040 -0.47000
O 	O 	0.02110 0.74270 0.02740 -0.47600
O 	O 	0.21140 0.60460 0.01100 -0.45000
O 	O 	0.48900 0.73330 0.98960 -0.46400
O 	O 	0.31350 0.73050 0.97430 -0.35600
O 	O 	0.01800 0.85120 0.95240 -0.50000
O 	O 	0.42440 0.84290 0.04510 -0.47800
O 	O 	0.34590 0.72770 0.08470 -0.45400
O 	O 	0.40170 0.02000 0.13540 -0.39900
O 	O 	0.17760 0.67880 0.08840 -0.46700
O 	O 	0.99470 0.75410 0.86960 -0.46300
O 	O 	0.19480 0.61220 0.91260 -0.45400
O 	O 	0.63720 0.84140 0.21630 -0.46600
O 	O 	0.73320 0.09960 0.14830 -0.48800
O 	O 	0.32790 0.99200 0.03320 -0.56000
O 	O 	0.11420 0.95950 0.91260 -0.51100
O 	O 	0.30500 0.74600 0.86790 -0.45400
O 	O 	0.96580 0.90800 0.03770 -0.58600
O 	O 	0.69130 0.00120 0.06770 -0.55800
O 	O 	0.43540 0.12550 0.20500 -0.44900
O 	O 	0.40170 0.61150 0.02820 -0.44700
O 	O 	0.47430 0.94230 0.24240 -0.41400
H 	H 	0.49950 0.90400 0.26090 0.23500
C 	C 	0.54060 0.98190 0.22030 0.11300
C 	C 	0.61600 0.02100 0.25720 -0.55000
H 	H 	0.65780 0.04630 0.24010 0.17700
H 	H 	0.59180 0.06300 0.27530 0.16900
H 	H 	0.64860 0.97970 0.28060 0.17500
O 	O 	0.38300 0.28800 0.17700 -0.28800
O 	O 	0.44000 0.31200 0.19500 -0.13100
W 	W 	0.43637 0.77956 0.54730 0.98000
W 	W 	0.24652 0.72083 0.60623 1.00000
W 	W 	0.41300 0.76997 0.42245 1.04100
W 	W 	0.06467 0.63232 0.52313 1.31300
W 	W 	0.09859 0.84228 0.52227 0.99000
W 	W 	0.04060 0.62175 0.38821 1.00100
W 	W 	0.19631 0.69905 0.33043 1.01900
W 	W 	0.29042 0.91013 0.46969 0.96700
W 	W 	0.07512 0.83232 0.38365 0.99300
W 	W 	0.40510 0.56265 0.57990 1.36200
W 	W 	0.62869 0.45155 0.60463 1.36600
Eu	Eu	0.19817 0.43529 0.47401 1.63700
Eu	Eu	0.34969 0.28610 0.74173 1.28900
As	As	0.24133 0.67963 0.47103 0.41400
P 	P 	0.47780 0.43520 0.67646 0.45300
P 	P 	0.58420 0.59210 0.68246 0.43400
O 	O 	0.31150 0.61910 0.60250 -0.48100
O 	O 	0.08960 0.63690 0.32750 -0.46900
O 	O 	0.17870 0.71660 0.51490 -0.38200
O 	O 	0.49910 0.62560 0.64220 -0.38500
O 	O 	0.06080 0.84210 0.45050 -0.47300
O 	O 	0.64870 0.54310 0.65730 -0.41100
O 	O 	0.51480 0.50590 0.57490 -0.51300
O 	O 	0.38290 0.88130 0.42980 -0.44700
O 	O 	0.59830 0.35090 0.57120 -0.47900
O 	O 	0.13560 0.65820 0.59340 -0.47700
O 	O 	0.16180 0.70770 0.41250 -0.35600
O 	O 	0.13110 0.54620 0.51600 -0.54600
O 	O 	0.55130 0.39600 0.65400 -0.37400
O 	O 	0.13030 0.80000 0.33040 -0.47000
O 	O 	0.02110 0.75730 0.52740 -0.47600
O 	O 	0.21140 0.89540 0.51100 -0.45000
O 	O 	0.48900 0.76670 0.48960 -0.46500
O 	O 	0.31350 0.76950 0.47430 -0.35700
O 	O 	0.01800 0.64880 0.45240 -0.50100
O 	O 	0.42440 0.65710 0.54510 -0.47800
O 	O 	0.34590 0.77230 0.58470 -0.45400
O 	O 	0.40170 0.48000 0.63540 -0.40000
O 	O 	0.17760 0.82120 0.58840 -0.46700
O 	O 	0.99470 0.74590 0.36960 -0.46300
O 	O 	0.19480 0.88780 0.41260 -0.45400
O 	O 	0.63720 0.65860 0.71630 -0.46600
O 	O 	0.73320 0.40040 0.64830 -0.48800
O 	O 	0.32790 0.50800 0.53320 -0.55900
O 	O 	0.11420 0.54050 0.41260 -0.51200
O 	O 	0.30500 0.75400 0.36790 -0.45400
O 	O 	0.96580 0.59200 0.53770 -0.58600
O 	O 	0.69130 0.49880 0.56770 -0.55900
O 	O 	0.43540 0.37450 0.70500 -0.44900
O 	O 	0.40170 0.88850 0.52820 -0.44700
O 	O 	0.47430 0.55770 0.74240 -0.41500
H 	H 	0.49950 0.59600 0.76090 0.23500
C 	C 	0.54060 0.51810 0.72030 0.11600
C 	C 	0.61600 0.47900 0.75720 -0.55800
H 	H 	0.65780 0.45370 0.74010 0.17900
H 	H 	0.59180 0.43700 0.77530 0.17100
H 	H 	0.64860 0.52030 0.78060 0.17800
O 	O 	0.38300 0.21200 0.67700 -0.28800
O 	O 	0.44000 0.18800 0.69500 -0.13100
W 	W 	0.56363 0.27956 0.95270 0.97900
W 	W 	0.75348 0.22083 0.89377 1.00000
W 	W 	0.58700 0.26997 0.07755 1.04100
W 	W 	0.93533 0.13232 0.97687 1.31300
W 	W 	0.90141 0.34228 0.97773 0.99000
W 	W 	0.95940 0.12175 0.11179 1.00100
W 	W 	0.80369 0.19905 0.16957 1.01900
W 	W 	0.70958 0.41013 0.03031 0.96800
W 	W 	0.92488 0.33232 0.11635 0.99300
W 	W 	0.59490 0.06265 0.92010 1.36100
W 	W 	0.37131 0.95155 0.89537 1.36700
Eu	Eu	0.80183 0.93529 0.02599 1.63500
Eu	Eu	0.65031 0.78610 0.75827 1.28900
As	As	0.75867 0.17963 0.02897 0.41500
P 	P 	0.52220 0.93520 0.82354 0.45400
P 	P 	0.41580 0.09210 0.81754 0.43500
O 	O 	0.68850 0.11910 0.89750 -0.48100
O 	O 	0.91040 0.13690 0.17250 -0.46900
O 	O 	0.82130 0.21660 0.98510 -0.38200
O 	O 	0.50090 0.12560 0.85780 -0.38500
O 	O 	0.93920 0.34210 0.04950 -0.47300
O 	O 	0.35130 0.04310 0.84270 -0.41200
O 	O 	0.48520 0.00590 0.92510 -0.51400
O 	O 	0.61710 0.38130 0.07020 -0.44700
O 	O 	0.40170 0.85090 0.92880 -0.47900
O 	O 	0.86440 0.15820 0.90660 -0.47700
O 	O 	0.83820 0.20770 0.08750 -0.35600
O 	O 	0.86890 0.04620 0.98400 -0.54600
O 	O 	0.44870 0.89600 0.84600 -0.37400
O 	O 	0.86970 0.30000 0.16960 -0.47000
O 	O 	0.97890 0.25730 0.97260 -0.47600
O 	O 	0.78860 0.39540 0.98900 -0.45000
O 	O 	0.51100 0.26670 0.01040 -0.46400
O 	O 	0.68650 0.26950 0.02570 -0.35600
O 	O 	0.98200 0.14880 0.04760 -0.50000
O 	O 	0.57560 0.15710 0.95490 -0.47800
O 	O 	0.65410 0.27230 0.91530 -0.45400
O 	O 	0.59830 0.98000 0.86460 -0.39900
O 	O 	0.82240 0.32120 0.91160 -0.46700
O 	O 	0.00530 0.24590 0.13040 -0.46300
O 	O 	0.80520 0.38780 0.08740 -0.45400
O 	O 	0.36280 0.15860 0.78370 -0.46600
O 	O 	0.26680 0.90040 0.85170 -0.48800
O 	O 	0.67210 0.00800 0.96680 -0.56000
O 	O 	0.88580 0.04050 0.08740 -0.51100
O 	O 	0.69500 0.25400 0.13210 -0.45400
O 	O 	0.03420 0.09200 0.96230 -0.58600
O 	O 	0.30870 0.99880 0.93230 -0.55800
O 	O 	0.56460 0.87450 0.79500 -0.44900
O 	O 	0.59830 0.38850 0.97180 -0.44700
O 	O 	0.52570 0.05770 0.75760 -0.41400
H 	H 	0.50050 0.09600 0.73910 0.23500
C 	C 	0.45940 0.01810 0.77970 0.11300
C 	C 	0.38400 0.97900 0.74280 -0.55000
H 	H 	0.34220 0.95370 0.75990 0.17700
H 	H 	0.40820 0.93700 0.72470 0.16900
H 	H 	0.35140 0.02030 0.71940 0.17500
O 	O 	0.61700 0.71200 0.82300 -0.28800
O 	O 	0.56000 0.68800 0.80500 -0.13100
