data_crystal

_cell_length_a 10.24600
_cell_length_b 16.14700
_cell_length_c 19.16100
_cell_angle_alpha 90.00000
_cell_angle_beta  99.98000
_cell_angle_gamma 90.00000

_symmetry_space_group_name_	'P 1'
_symmetry_space_group_name_H-M	'P 1'

loop_
_symmetry_equiv_pos_as_xyz
  x,y,z

loop_
_atom_site_label
_atom_site_type_symbol
_atom_site_fract_x
_atom_site_fract_y
_atom_site_fract_z
_atom_site_charge
Zn	Zn	0.72129 0.13247 0.01071 1.17600
Zn	Zn	0.96487 0.22661 0.12545 1.23300
S 	S 	0.79717 0.37626 0.53212 0.07400
C 	C 	0.21780 0.23280 0.15510 0.26300
C 	C 	0.35720 0.24950 0.18920 -0.01200
C 	C 	0.45840 0.23780 0.15050 -0.03700
H 	H 	0.43960 0.21980 0.10370 0.05000
C 	C 	0.59000 0.25350 0.18330 -0.04700
C 	C 	0.69970 0.23940 0.14260 0.35600
C 	C 	0.61950 0.27820 0.25320 -0.11200
H 	H 	0.70710 0.28760 0.27430 0.11100
C 	C 	0.51690 0.28930 0.29240 0.15100
C 	C 	0.38550 0.27540 0.26000 -0.12800
H 	H 	0.31700 0.28330 0.28550 0.09300
C 	C 	0.65240 0.33540 0.40250 0.25000
C 	C 	0.65170 0.34760 0.48090 -0.07300
C 	C 	0.55760 0.33960 0.52000 -0.02200
H 	H 	0.47120 0.32390 0.50140 0.03600
C 	C 	0.60160 0.35720 0.59310 -0.02200
H 	H 	0.54750 0.35510 0.62730 0.03400
C 	C 	0.73030 0.37730 0.60660 -0.07400
C 	C 	0.82090 0.39250 0.67440 0.23400
C 	C 	0.84210 0.39160 0.80330 0.11500
C 	C 	0.83560 0.33010 0.85390 -0.07200
H 	H 	0.78740 0.28210 0.84080 0.06100
C 	C 	0.89940 0.33960 0.92280 -0.09000
C 	C 	0.97720 0.41320 0.94130 0.01900
H 	H 	0.02310 0.42050 0.98720 0.04600
C 	C 	0.98280 0.47140 0.89130 -0.06900
C 	C 	0.91290 0.46440 0.82070 -0.08000
H 	H 	0.91440 0.50640 0.78770 0.09100
C 	C 	0.05930 0.54940 0.91020 0.35500
C 	C 	0.88680 0.27810 0.97790 0.40900
N 	N 	0.53810 0.31280 0.36300 -0.25700
H 	H 	0.46990 0.31270 0.38360 0.13700
N 	N 	0.76680 0.38080 0.73400 -0.24000
H 	H 	0.68490 0.36650 0.72960 0.12900
O 	O 	0.66990 0.21270 0.07963 -0.52200
O 	O 	0.81680 0.25640 0.17408 -0.44600
O 	O 	0.12670 0.26010 0.18981 -0.40200
O 	O 	0.19190 0.19770 0.09698 -0.32100
O 	O 	0.94140 0.29450 0.04086 -0.48800
O 	O 	0.82200 0.21480 0.95865 -0.49900
O 	O 	0.12850 0.55370 0.97187 -0.49500
O 	O 	0.05190 0.60590 0.86417 -0.48500
O 	O 	0.75560 0.34400 0.38270 -0.23900
O 	O 	0.93400 0.41410 0.67540 -0.22800
Zn	Zn	0.27871 0.63247 0.98929 1.17600
Zn	Zn	0.03513 0.72661 0.87455 1.23300
S 	S 	0.20283 0.87626 0.46788 0.08000
C 	C 	0.78220 0.73280 0.84490 0.26200
C 	C 	0.64280 0.74950 0.81080 -0.00800
C 	C 	0.54160 0.73780 0.84950 -0.03800
H 	H 	0.56040 0.71980 0.89630 0.05300
C 	C 	0.41000 0.75350 0.81670 -0.04400
C 	C 	0.30030 0.73940 0.85740 0.35600
C 	C 	0.38050 0.77820 0.74680 -0.11300
H 	H 	0.29290 0.78760 0.72570 0.11300
C 	C 	0.48310 0.78930 0.70760 0.15500
C 	C 	0.61450 0.77540 0.74000 -0.12900
H 	H 	0.68300 0.78330 0.71450 0.09600
C 	C 	0.34760 0.83540 0.59750 0.25300
C 	C 	0.34830 0.84760 0.51910 -0.07200
C 	C 	0.44240 0.83960 0.48000 -0.01900
H 	H 	0.52880 0.82390 0.49860 0.03900
C 	C 	0.39840 0.85720 0.40690 -0.02000
H 	H 	0.45250 0.85510 0.37270 0.03700
C 	C 	0.26970 0.87730 0.39340 -0.07300
C 	C 	0.17910 0.89250 0.32560 0.23700
C 	C 	0.15790 0.89160 0.19670 0.10500
C 	C 	0.16440 0.83010 0.14610 -0.06600
H 	H 	0.21260 0.78210 0.15920 0.06200
C 	C 	0.10060 0.83960 0.07720 -0.08700
C 	C 	0.02280 0.91320 0.05870 0.01100
H 	H 	0.97690 0.92050 0.01280 0.05700
C 	C 	0.01720 0.97140 0.10870 -0.06000
C 	C 	0.08710 0.96440 0.17930 -0.04200
H 	H 	0.08560 0.00640 0.21230 0.06200
C 	C 	0.94070 0.04940 0.08980 0.34200
C 	C 	0.11320 0.77810 0.02210 0.41100
N 	N 	0.46190 0.81280 0.63700 -0.25800
H 	H 	0.53010 0.81270 0.61640 0.13900
N 	N 	0.23320 0.88080 0.26600 -0.23700
H 	H 	0.31510 0.86650 0.27040 0.13100
O 	O 	0.33010 0.71270 0.92037 -0.52000
O 	O 	0.18320 0.75640 0.82592 -0.44400
O 	O 	0.87330 0.76010 0.81019 -0.39800
O 	O 	0.80810 0.69770 0.90302 -0.31600
O 	O 	0.05860 0.79450 0.95914 -0.48900
O 	O 	0.17800 0.71480 0.04135 -0.49600
O 	O 	0.87150 0.05370 0.02813 -0.49900
O 	O 	0.94810 0.10590 0.13583 -0.48500
O 	O 	0.24440 0.84400 0.61730 -0.23700
O 	O 	0.06600 0.91410 0.32460 -0.22300
