data_crystal

_cell_length_a 24.79350
_cell_length_b 33.56310
_cell_length_c 18.66690
_cell_angle_alpha 90.00000
_cell_angle_beta  90.00000
_cell_angle_gamma 90.00000

_symmetry_space_group_name_	'P 1'
_symmetry_space_group_name_H-M	'P 1'

loop_
_symmetry_equiv_pos_as_xyz
  x,y,z

loop_
_atom_site_label
_atom_site_type_symbol
_atom_site_fract_x
_atom_site_fract_y
_atom_site_fract_z
_atom_site_charge
Cu	Cu	0.21013 0.26753 0.53533 0.90400
O 	O 	0.18246 0.21337 0.54500 -0.41200
O 	O 	0.25480 0.25774 0.61960 -0.40900
O 	O 	0.17782 0.27203 0.43940 -0.41200
O 	O 	0.25062 0.31633 0.51520 -0.40500
C 	C 	0.20660 0.18326 0.52220 0.35800
C 	C 	0.29890 0.23953 0.61650 0.36300
C 	C 	0.18380 0.14285 0.53970 -0.09600
C 	C 	0.32620 0.22992 0.68540 -0.08900
C 	C 	0.21100 0.10875 0.51870 0.01000
C 	C 	0.13910 0.14085 0.58380 0.03800
C 	C 	0.37500 0.20890 0.68590 -0.00600
H 	H 	0.24210 0.11060 0.49100 0.04500
C 	C 	0.19100 0.07135 0.53980 -0.05500
H 	H 	0.12210 0.16410 0.59880 0.04800
C 	C 	0.11970 0.10429 0.60560 -0.09900
H 	H 	0.39100 0.20190 0.64260 0.05200
C 	C 	0.22070 0.03441 0.51890 0.13600
C 	C 	0.14640 0.06953 0.58310 0.01200
C 	C 	0.07290 0.10310 0.65750 0.37400
C 	C 	0.27760 0.03370 0.51950 -0.22400
H 	H 	0.13350 0.04480 0.59780 0.04100
O 	O 	0.05608 0.06915 0.67580 -0.41600
O 	O 	0.05472 0.13562 0.67590 -0.42600
C 	C 	0.45200 0.13650 0.70290 -0.05700
H 	H 	0.29690 0.05630 0.53300 0.12000
H 	H 	0.41580 0.13120 0.68400 0.05600
Cu	Cu	0.71013 0.76753 0.53533 0.90600
O 	O 	0.68246 0.71337 0.54500 -0.40700
O 	O 	0.75480 0.75774 0.61960 -0.40700
O 	O 	0.67782 0.77203 0.43940 -0.40700
O 	O 	0.75062 0.81633 0.51520 -0.40100
C 	C 	0.70660 0.68326 0.52220 0.35800
C 	C 	0.79890 0.73953 0.61650 0.36600
C 	C 	0.68380 0.64285 0.53970 -0.09100
C 	C 	0.82620 0.72992 0.68540 -0.09200
C 	C 	0.71100 0.60875 0.51870 0.00800
C 	C 	0.63910 0.64085 0.58380 0.03500
C 	C 	0.87500 0.70890 0.68590 0.00700
H 	H 	0.74210 0.61060 0.49100 0.04700
C 	C 	0.69100 0.57135 0.53980 -0.05100
H 	H 	0.62210 0.66410 0.59880 0.05200
C 	C 	0.61970 0.60429 0.60560 -0.09300
H 	H 	0.89100 0.70190 0.64260 0.05200
C 	C 	0.72070 0.53441 0.51890 0.13700
C 	C 	0.64640 0.56953 0.58310 0.01000
C 	C 	0.57290 0.60310 0.65750 0.37200
C 	C 	0.77760 0.53370 0.51950 -0.22400
H 	H 	0.63350 0.54480 0.59780 0.04500
O 	O 	0.55608 0.56915 0.67580 -0.40600
O 	O 	0.55472 0.63562 0.67590 -0.41600
C 	C 	0.95200 0.63650 0.70290 -0.04700
H 	H 	0.79690 0.55630 0.53300 0.12300
H 	H 	0.91580 0.63120 0.68400 0.05700
Cu	Cu	0.78987 0.73247 0.03533 0.90700
O 	O 	0.81754 0.78663 0.04500 -0.40400
O 	O 	0.74520 0.74226 0.11960 -0.40500
O 	O 	0.82218 0.72797 0.93940 -0.40400
O 	O 	0.74938 0.68367 0.01520 -0.40100
C 	C 	0.79340 0.81674 0.02220 0.35700
C 	C 	0.70110 0.76047 0.11650 0.36300
C 	C 	0.81620 0.85715 0.03970 -0.08700
C 	C 	0.67380 0.77008 0.18540 -0.08700
C 	C 	0.78900 0.89125 0.01870 0.00700
C 	C 	0.86090 0.85915 0.08380 0.03200
C 	C 	0.62500 0.79110 0.18590 -0.00700
H 	H 	0.75790 0.88940 0.99100 0.04700
C 	C 	0.80900 0.92865 0.03980 -0.04800
H 	H 	0.87790 0.83590 0.09880 0.05700
C 	C 	0.88030 0.89571 0.10560 -0.08500
H 	H 	0.60900 0.79810 0.14260 0.05200
C 	C 	0.77930 0.96559 0.01890 0.13600
C 	C 	0.85360 0.93047 0.08310 0.00700
C 	C 	0.92710 0.89690 0.15750 0.36800
C 	C 	0.72240 0.96630 0.01950 -0.22300
H 	H 	0.86650 0.95520 0.09780 0.04800
O 	O 	0.94392 0.93085 0.17580 -0.38900
O 	O 	0.94528 0.86438 0.17590 -0.39800
C 	C 	0.54800 0.86350 0.20290 -0.05700
H 	H 	0.70310 0.94370 0.03300 0.12000
H 	H 	0.58420 0.86880 0.18400 0.05600
Cu	Cu	0.28987 0.23247 0.03533 0.90600
O 	O 	0.31754 0.28663 0.04500 -0.40800
O 	O 	0.24520 0.24226 0.11960 -0.40800
O 	O 	0.32218 0.22797 0.93940 -0.40700
O 	O 	0.24938 0.18367 0.01520 -0.40300
C 	C 	0.29340 0.31674 0.02220 0.35900
C 	C 	0.20110 0.26047 0.11650 0.36700
C 	C 	0.31620 0.35715 0.03970 -0.09300
C 	C 	0.17380 0.27008 0.18540 -0.09700
C 	C 	0.28900 0.39125 0.01870 0.00900
C 	C 	0.36090 0.35915 0.08380 0.03600
C 	C 	0.12500 0.29110 0.18590 0.00600
H 	H 	0.25790 0.38940 0.99100 0.04400
C 	C 	0.30900 0.42865 0.03980 -0.05300
H 	H 	0.37790 0.33590 0.09880 0.05200
C 	C 	0.38030 0.39571 0.10560 -0.09400
H 	H 	0.10900 0.29810 0.14260 0.04400
C 	C 	0.27930 0.46559 0.01890 0.13500
C 	C 	0.35360 0.43047 0.08310 0.01000
C 	C 	0.42710 0.39690 0.15750 0.37300
C 	C 	0.22240 0.46630 0.01950 -0.22300
H 	H 	0.36650 0.45520 0.09780 0.04400
O 	O 	0.44392 0.43085 0.17580 -0.40700
O 	O 	0.44528 0.36438 0.17590 -0.41600
C 	C 	0.04800 0.36350 0.20290 -0.08300
H 	H 	0.20310 0.44370 0.03300 0.11800
H 	H 	0.08420 0.36880 0.18400 0.06000
Cu	Cu	0.78987 0.26753 0.96467 0.90700
O 	O 	0.81754 0.21337 0.95500 -0.40400
O 	O 	0.74520 0.25774 0.88040 -0.40500
O 	O 	0.82218 0.27203 0.06060 -0.40400
O 	O 	0.74938 0.31633 0.98480 -0.40100
C 	C 	0.79340 0.18326 0.97780 0.35700
C 	C 	0.70110 0.23953 0.88350 0.36300
C 	C 	0.81620 0.14285 0.96030 -0.08600
C 	C 	0.67380 0.22992 0.81460 -0.08700
C 	C 	0.78900 0.10875 0.98130 0.00500
C 	C 	0.86090 0.14085 0.91620 0.03100
C 	C 	0.62500 0.20890 0.81410 -0.00700
H 	H 	0.75790 0.11060 0.00900 0.04800
C 	C 	0.80900 0.07135 0.96020 -0.04700
H 	H 	0.87790 0.16410 0.90120 0.05700
C 	C 	0.88030 0.10429 0.89440 -0.08500
H 	H 	0.60900 0.20190 0.85740 0.05200
C 	C 	0.77930 0.03441 0.98110 0.13500
C 	C 	0.85360 0.06953 0.91690 0.00600
C 	C 	0.92710 0.10310 0.84250 0.36800
C 	C 	0.72240 0.03370 0.98050 -0.22300
H 	H 	0.86650 0.04480 0.90220 0.04900
O 	O 	0.94392 0.06915 0.82420 -0.38900
O 	O 	0.94528 0.13562 0.82410 -0.39800
C 	C 	0.54800 0.13650 0.79710 -0.05700
H 	H 	0.70310 0.05630 0.96700 0.12000
H 	H 	0.58420 0.13120 0.81600 0.05600
Cu	Cu	0.28987 0.76753 0.96467 0.90600
O 	O 	0.31754 0.71337 0.95500 -0.40800
O 	O 	0.24520 0.75774 0.88040 -0.40800
O 	O 	0.32218 0.77203 0.06060 -0.40700
O 	O 	0.24938 0.81633 0.98480 -0.40400
C 	C 	0.29340 0.68326 0.97780 0.35800
C 	C 	0.20110 0.73953 0.88350 0.36700
C 	C 	0.31620 0.64285 0.96030 -0.09200
C 	C 	0.17380 0.72992 0.81460 -0.09700
C 	C 	0.28900 0.60875 0.98130 0.00800
C 	C 	0.36090 0.64085 0.91620 0.03500
C 	C 	0.12500 0.70890 0.81410 0.00600
H 	H 	0.25790 0.61060 0.00900 0.04500
C 	C 	0.30900 0.57135 0.96020 -0.05200
H 	H 	0.37790 0.66410 0.90120 0.05200
C 	C 	0.38030 0.60429 0.89440 -0.09300
H 	H 	0.10900 0.70190 0.85740 0.04300
C 	C 	0.27930 0.53441 0.98110 0.13500
C 	C 	0.35360 0.56953 0.91690 0.01000
C 	C 	0.42710 0.60310 0.84250 0.37200
C 	C 	0.22240 0.53370 0.98050 -0.22400
H 	H 	0.36650 0.54480 0.90220 0.04400
O 	O 	0.44392 0.56915 0.82420 -0.40700
O 	O 	0.44528 0.63562 0.82410 -0.41600
C 	C 	0.04800 0.63650 0.79710 -0.08300
H 	H 	0.20310 0.55630 0.96700 0.11800
H 	H 	0.08420 0.63120 0.81600 0.06000
Cu	Cu	0.21013 0.73247 0.46467 0.90500
O 	O 	0.18246 0.78663 0.45500 -0.41100
O 	O 	0.25480 0.74226 0.38040 -0.40800
O 	O 	0.17782 0.72797 0.56060 -0.41100
O 	O 	0.25062 0.68367 0.48480 -0.40400
C 	C 	0.20660 0.81674 0.47780 0.35900
C 	C 	0.29890 0.76047 0.38350 0.36400
C 	C 	0.18380 0.85715 0.46030 -0.09500
C 	C 	0.32620 0.77008 0.31460 -0.08900
C 	C 	0.21100 0.89125 0.48130 0.01000
C 	C 	0.13910 0.85915 0.41620 0.03800
C 	C 	0.37500 0.79110 0.31410 -0.00600
H 	H 	0.24210 0.88940 0.50900 0.04500
C 	C 	0.19100 0.92865 0.46020 -0.05500
H 	H 	0.12210 0.83590 0.40120 0.04800
C 	C 	0.11970 0.89571 0.39440 -0.09900
H 	H 	0.39100 0.79810 0.35740 0.05200
C 	C 	0.22070 0.96559 0.48110 0.13600
C 	C 	0.14640 0.93047 0.41690 0.01200
C 	C 	0.07290 0.89690 0.34250 0.37400
C 	C 	0.27760 0.96630 0.48050 -0.22400
H 	H 	0.13350 0.95520 0.40220 0.04100
O 	O 	0.05608 0.93085 0.32420 -0.41600
O 	O 	0.05472 0.86438 0.32410 -0.42600
C 	C 	0.45200 0.86350 0.29710 -0.05700
H 	H 	0.29690 0.94370 0.46700 0.12000
H 	H 	0.41580 0.86880 0.31600 0.05600
Cu	Cu	0.71013 0.23247 0.46467 0.90600
O 	O 	0.68246 0.28663 0.45500 -0.40700
O 	O 	0.75480 0.24226 0.38040 -0.40700
O 	O 	0.67782 0.22797 0.56060 -0.40700
O 	O 	0.75062 0.18367 0.48480 -0.40100
C 	C 	0.70660 0.31674 0.47780 0.35800
C 	C 	0.79890 0.26047 0.38350 0.36600
C 	C 	0.68380 0.35715 0.46030 -0.09100
C 	C 	0.82620 0.27008 0.31460 -0.09200
C 	C 	0.71100 0.39125 0.48130 0.00800
C 	C 	0.63910 0.35915 0.41620 0.03500
C 	C 	0.87500 0.29110 0.31410 0.00700
H 	H 	0.74210 0.38940 0.50900 0.04700
C 	C 	0.69100 0.42865 0.46020 -0.05100
H 	H 	0.62210 0.33590 0.40120 0.05200
C 	C 	0.61970 0.39571 0.39440 -0.09300
H 	H 	0.89100 0.29810 0.35740 0.05200
C 	C 	0.72070 0.46559 0.48110 0.13700
C 	C 	0.64640 0.43047 0.41690 0.01000
C 	C 	0.57290 0.39690 0.34250 0.37200
C 	C 	0.77760 0.46630 0.48050 -0.22400
H 	H 	0.63350 0.45520 0.40220 0.04500
O 	O 	0.55608 0.43085 0.32420 -0.40600
O 	O 	0.55472 0.36438 0.32410 -0.41600
C 	C 	0.95200 0.36350 0.29710 -0.04700
H 	H 	0.79690 0.44370 0.46700 0.12300
H 	H 	0.91580 0.36880 0.31600 0.05700
Cu	Cu	0.78987 0.73247 0.46467 0.90700
O 	O 	0.81754 0.78663 0.45500 -0.40400
O 	O 	0.74520 0.74226 0.38040 -0.40500
O 	O 	0.82218 0.72797 0.56060 -0.40400
O 	O 	0.74938 0.68367 0.48480 -0.40100
C 	C 	0.79340 0.81674 0.47780 0.35700
C 	C 	0.70110 0.76047 0.38350 0.36300
C 	C 	0.81620 0.85715 0.46030 -0.08700
C 	C 	0.67380 0.77008 0.31460 -0.08700
C 	C 	0.78900 0.89125 0.48130 0.00600
C 	C 	0.86090 0.85915 0.41620 0.03200
C 	C 	0.62500 0.79110 0.31410 -0.00700
H 	H 	0.75790 0.88940 0.50900 0.04700
C 	C 	0.80900 0.92865 0.46020 -0.04800
H 	H 	0.87790 0.83590 0.40120 0.05700
C 	C 	0.88030 0.89571 0.39440 -0.08500
H 	H 	0.60900 0.79810 0.35740 0.05200
C 	C 	0.77930 0.96559 0.48110 0.13600
C 	C 	0.85360 0.93047 0.41690 0.00700
C 	C 	0.92710 0.89690 0.34250 0.36800
C 	C 	0.72240 0.96630 0.48050 -0.22300
H 	H 	0.86650 0.95520 0.40220 0.04800
O 	O 	0.94392 0.93085 0.32420 -0.38900
O 	O 	0.94528 0.86438 0.32410 -0.39800
C 	C 	0.54800 0.86350 0.29710 -0.05700
H 	H 	0.70310 0.94370 0.46700 0.12000
H 	H 	0.58420 0.86880 0.31600 0.05600
Cu	Cu	0.28987 0.23247 0.46467 0.90600
O 	O 	0.31754 0.28663 0.45500 -0.40800
O 	O 	0.24520 0.24226 0.38040 -0.40800
O 	O 	0.32218 0.22797 0.56060 -0.40700
O 	O 	0.24938 0.18367 0.48480 -0.40300
C 	C 	0.29340 0.31674 0.47780 0.35900
C 	C 	0.20110 0.26047 0.38350 0.36700
C 	C 	0.31620 0.35715 0.46030 -0.09200
C 	C 	0.17380 0.27008 0.31460 -0.09700
C 	C 	0.28900 0.39125 0.48130 0.00800
C 	C 	0.36090 0.35915 0.41620 0.03600
C 	C 	0.12500 0.29110 0.31410 0.00600
H 	H 	0.25790 0.38940 0.50900 0.04400
C 	C 	0.30900 0.42865 0.46020 -0.05200
H 	H 	0.37790 0.33590 0.40120 0.05200
C 	C 	0.38030 0.39571 0.39440 -0.09300
H 	H 	0.10900 0.29810 0.35740 0.04300
C 	C 	0.27930 0.46559 0.48110 0.13500
C 	C 	0.35360 0.43047 0.41690 0.01000
C 	C 	0.42710 0.39690 0.34250 0.37200
C 	C 	0.22240 0.46630 0.48050 -0.22300
H 	H 	0.36650 0.45520 0.40220 0.04400
O 	O 	0.44392 0.43085 0.32420 -0.40700
O 	O 	0.44528 0.36438 0.32410 -0.41600
C 	C 	0.04800 0.36350 0.29710 -0.08300
H 	H 	0.20310 0.44370 0.46700 0.11800
H 	H 	0.08420 0.36880 0.31600 0.06000
Cu	Cu	0.21013 0.26753 0.96467 0.90500
O 	O 	0.18246 0.21337 0.95500 -0.41000
O 	O 	0.25480 0.25774 0.88040 -0.40800
O 	O 	0.17782 0.27203 0.06060 -0.41000
O 	O 	0.25062 0.31633 0.98480 -0.40400
C 	C 	0.20660 0.18326 0.97780 0.35800
C 	C 	0.29890 0.23953 0.88350 0.36400
C 	C 	0.18380 0.14285 0.96030 -0.09500
C 	C 	0.32620 0.22992 0.81460 -0.08900
C 	C 	0.21100 0.10875 0.98130 0.00900
C 	C 	0.13910 0.14085 0.91620 0.03700
C 	C 	0.37500 0.20890 0.81410 -0.00600
H 	H 	0.24210 0.11060 0.00900 0.04500
C 	C 	0.19100 0.07135 0.96020 -0.05400
H 	H 	0.12210 0.16410 0.90120 0.04800
C 	C 	0.11970 0.10429 0.89440 -0.09900
H 	H 	0.39100 0.20190 0.85740 0.05200
C 	C 	0.22070 0.03441 0.98110 0.13500
C 	C 	0.14640 0.06953 0.91690 0.01200
C 	C 	0.07290 0.10310 0.84250 0.37400
C 	C 	0.27760 0.03370 0.98050 -0.22400
H 	H 	0.13350 0.04480 0.90220 0.04100
O 	O 	0.05608 0.06915 0.82420 -0.41600
O 	O 	0.05472 0.13562 0.82410 -0.42600
C 	C 	0.45200 0.13650 0.79710 -0.05700
H 	H 	0.29690 0.05630 0.96700 0.12000
H 	H 	0.41580 0.13120 0.81600 0.05600
Cu	Cu	0.71013 0.76753 0.96467 0.90600
O 	O 	0.68246 0.71337 0.95500 -0.40700
O 	O 	0.75480 0.75774 0.88040 -0.40700
O 	O 	0.67782 0.77203 0.06060 -0.40700
O 	O 	0.75062 0.81633 0.98480 -0.40200
C 	C 	0.70660 0.68326 0.97780 0.35700
C 	C 	0.79890 0.73953 0.88350 0.36600
C 	C 	0.68380 0.64285 0.96030 -0.09000
C 	C 	0.82620 0.72992 0.81460 -0.09200
C 	C 	0.71100 0.60875 0.98130 0.00700
C 	C 	0.63910 0.64085 0.91620 0.03500
C 	C 	0.87500 0.70890 0.81410 0.00700
H 	H 	0.74210 0.61060 0.00900 0.04800
C 	C 	0.69100 0.57135 0.96020 -0.05100
H 	H 	0.62210 0.66410 0.90120 0.05200
C 	C 	0.61970 0.60429 0.89440 -0.09200
H 	H 	0.89100 0.70190 0.85740 0.05200
C 	C 	0.72070 0.53441 0.98110 0.13700
C 	C 	0.64640 0.56953 0.91690 0.01000
C 	C 	0.57290 0.60310 0.84250 0.37200
C 	C 	0.77760 0.53370 0.98050 -0.22400
H 	H 	0.63350 0.54480 0.90220 0.04500
O 	O 	0.55608 0.56915 0.82420 -0.40600
O 	O 	0.55472 0.63562 0.82410 -0.41600
C 	C 	0.95200 0.63650 0.79710 -0.04800
H 	H 	0.79690 0.55630 0.96700 0.12300
H 	H 	0.91580 0.63120 0.81600 0.05700
Cu	Cu	0.21013 0.73247 0.03533 0.90500
O 	O 	0.18246 0.78663 0.04500 -0.41100
O 	O 	0.25480 0.74226 0.11960 -0.40800
O 	O 	0.17782 0.72797 0.93940 -0.41100
O 	O 	0.25062 0.68367 0.01520 -0.40400
C 	C 	0.20660 0.81674 0.02220 0.35900
C 	C 	0.29890 0.76047 0.11650 0.36400
C 	C 	0.18380 0.85715 0.03970 -0.09600
C 	C 	0.32620 0.77008 0.18540 -0.08900
C 	C 	0.21100 0.89125 0.01870 0.01100
C 	C 	0.13910 0.85915 0.08380 0.03800
C 	C 	0.37500 0.79110 0.18590 -0.00600
H 	H 	0.24210 0.88940 0.99100 0.04400
C 	C 	0.19100 0.92865 0.03980 -0.05500
H 	H 	0.12210 0.83590 0.09880 0.04800
C 	C 	0.11970 0.89571 0.10560 -0.09900
H 	H 	0.39100 0.79810 0.14260 0.05200
C 	C 	0.22070 0.96559 0.01890 0.13600
C 	C 	0.14640 0.93047 0.08310 0.01200
C 	C 	0.07290 0.89690 0.15750 0.37400
C 	C 	0.27760 0.96630 0.01950 -0.22500
H 	H 	0.13350 0.95520 0.09780 0.04100
O 	O 	0.05608 0.93085 0.17580 -0.41600
O 	O 	0.05472 0.86438 0.17590 -0.42600
C 	C 	0.45200 0.86350 0.20290 -0.05700
H 	H 	0.29690 0.94370 0.03300 0.12000
H 	H 	0.41580 0.86880 0.18400 0.05600
Cu	Cu	0.71013 0.23247 0.03533 0.90600
O 	O 	0.68246 0.28663 0.04500 -0.40700
O 	O 	0.75480 0.24226 0.11960 -0.40700
O 	O 	0.67782 0.22797 0.93940 -0.40700
O 	O 	0.75062 0.18367 0.01520 -0.40100
C 	C 	0.70660 0.31674 0.02220 0.35800
C 	C 	0.79890 0.26047 0.11650 0.36600
C 	C 	0.68380 0.35715 0.03970 -0.09100
C 	C 	0.82620 0.27008 0.18540 -0.09200
C 	C 	0.71100 0.39125 0.01870 0.00800
C 	C 	0.63910 0.35915 0.08380 0.03500
C 	C 	0.87500 0.29110 0.18590 0.00700
H 	H 	0.74210 0.38940 0.99100 0.04700
C 	C 	0.69100 0.42865 0.03980 -0.05100
H 	H 	0.62210 0.33590 0.09880 0.05200
C 	C 	0.61970 0.39571 0.10560 -0.09300
H 	H 	0.89100 0.29810 0.14260 0.05200
C 	C 	0.72070 0.46559 0.01890 0.13700
C 	C 	0.64640 0.43047 0.08310 0.01000
C 	C 	0.57290 0.39690 0.15750 0.37200
C 	C 	0.77760 0.46630 0.01950 -0.22400
H 	H 	0.63350 0.45520 0.09780 0.04500
O 	O 	0.55608 0.43085 0.17580 -0.40600
O 	O 	0.55472 0.36438 0.17590 -0.41600
C 	C 	0.95200 0.36350 0.20290 -0.04700
H 	H 	0.79690 0.44370 0.03300 0.12300
H 	H 	0.91580 0.36880 0.18400 0.05700
Cu	Cu	0.78987 0.26753 0.53533 0.90700
O 	O 	0.81754 0.21337 0.54500 -0.40400
O 	O 	0.74520 0.25774 0.61960 -0.40500
O 	O 	0.82218 0.27203 0.43940 -0.40400
O 	O 	0.74938 0.31633 0.51520 -0.40100
C 	C 	0.79340 0.18326 0.52220 0.35700
C 	C 	0.70110 0.23953 0.61650 0.36300
C 	C 	0.81620 0.14285 0.53970 -0.08700
C 	C 	0.67380 0.22992 0.68540 -0.08700
C 	C 	0.78900 0.10875 0.51870 0.00600
C 	C 	0.86090 0.14085 0.58380 0.03200
C 	C 	0.62500 0.20890 0.68590 -0.00700
H 	H 	0.75790 0.11060 0.49100 0.04700
C 	C 	0.80900 0.07135 0.53980 -0.04800
H 	H 	0.87790 0.16410 0.59880 0.05700
C 	C 	0.88030 0.10429 0.60560 -0.08500
H 	H 	0.60900 0.20190 0.64260 0.05200
C 	C 	0.77930 0.03441 0.51890 0.13600
C 	C 	0.85360 0.06953 0.58310 0.00700
C 	C 	0.92710 0.10310 0.65750 0.36800
C 	C 	0.72240 0.03370 0.51950 -0.22300
H 	H 	0.86650 0.04480 0.59780 0.04900
O 	O 	0.94392 0.06915 0.67580 -0.38800
O 	O 	0.94528 0.13562 0.67590 -0.39800
C 	C 	0.54800 0.13650 0.70290 -0.05700
H 	H 	0.70310 0.05630 0.53300 0.12000
H 	H 	0.58420 0.13120 0.68400 0.05600
Cu	Cu	0.28987 0.76753 0.53533 0.90600
O 	O 	0.31754 0.71337 0.54500 -0.40800
O 	O 	0.24520 0.75774 0.61960 -0.40800
O 	O 	0.32218 0.77203 0.43940 -0.40700
O 	O 	0.24938 0.81633 0.51520 -0.40300
C 	C 	0.29340 0.68326 0.52220 0.35900
C 	C 	0.20110 0.73953 0.61650 0.36700
C 	C 	0.31620 0.64285 0.53970 -0.09200
C 	C 	0.17380 0.72992 0.68540 -0.09700
C 	C 	0.28900 0.60875 0.51870 0.00800
C 	C 	0.36090 0.64085 0.58380 0.03600
C 	C 	0.12500 0.70890 0.68590 0.00600
H 	H 	0.25790 0.61060 0.49100 0.04400
C 	C 	0.30900 0.57135 0.53980 -0.05200
H 	H 	0.37790 0.66410 0.59880 0.05200
C 	C 	0.38030 0.60429 0.60560 -0.09300
H 	H 	0.10900 0.70190 0.64260 0.04300
C 	C 	0.27930 0.53441 0.51890 0.13500
C 	C 	0.35360 0.56953 0.58310 0.01000
C 	C 	0.42710 0.60310 0.65750 0.37200
C 	C 	0.22240 0.53370 0.51950 -0.22300
H 	H 	0.36650 0.54480 0.59780 0.04400
O 	O 	0.44392 0.56915 0.67580 -0.40700
O 	O 	0.44528 0.63562 0.67590 -0.41600
C 	C 	0.04800 0.63650 0.70290 -0.08300
H 	H 	0.20310 0.55630 0.53300 0.11800
H 	H 	0.08420 0.63120 0.68400 0.06000
C 	C 	0.30180 0.24090 0.75000 0.03000
H 	H 	0.26970 0.25520 0.75000 0.05200
C 	C 	0.40000 0.19810 0.75000 -0.02800
C 	C 	0.45280 0.17540 0.75000 0.07300
C 	C 	0.80180 0.74090 0.75000 0.03500
H 	H 	0.76970 0.75520 0.75000 0.05200
C 	C 	0.90000 0.69810 0.75000 -0.04500
C 	C 	0.95280 0.67540 0.75000 0.13600
C 	C 	0.69820 0.75910 0.25000 0.02900
H 	H 	0.73030 0.74480 0.25000 0.05400
C 	C 	0.60000 0.80190 0.25000 -0.02700
C 	C 	0.54720 0.82460 0.25000 0.07300
C 	C 	0.19820 0.25910 0.25000 0.03600
H 	H 	0.23030 0.24480 0.25000 0.05000
C 	C 	0.10000 0.30190 0.25000 -0.05100
C 	C 	0.04720 0.32460 0.25000 0.11400
C 	C 	0.69820 0.24090 0.75000 0.02900
H 	H 	0.73030 0.25520 0.75000 0.05400
C 	C 	0.60000 0.19810 0.75000 -0.02700
C 	C 	0.54720 0.17540 0.75000 0.07300
C 	C 	0.19820 0.74090 0.75000 0.03600
H 	H 	0.23030 0.75520 0.75000 0.05000
C 	C 	0.10000 0.69810 0.75000 -0.05100
C 	C 	0.04720 0.67540 0.75000 0.11400
C 	C 	0.30180 0.75910 0.25000 0.03000
H 	H 	0.26970 0.74480 0.25000 0.05200
C 	C 	0.40000 0.80190 0.25000 -0.02800
C 	C 	0.45280 0.82460 0.25000 0.07300
C 	C 	0.80180 0.25910 0.25000 0.03500
H 	H 	0.76970 0.24480 0.25000 0.05200
C 	C 	0.90000 0.30190 0.25000 -0.04500
C 	C 	0.95280 0.32460 0.25000 0.13600
C 	C 	0.19230 0.00000 0.50000 -0.19400
H 	H 	0.15480 0.00000 0.50000 0.10200
C 	C 	0.30380 0.00000 0.50000 0.20000
N 	N 	0.36260 0.00000 0.50000 -0.12100
C 	C 	0.69230 0.50000 0.50000 -0.19400
H 	H 	0.65480 0.50000 0.50000 0.10500
C 	C 	0.80380 0.50000 0.50000 0.20400
N 	N 	0.86260 0.50000 0.50000 -0.11400
C 	C 	0.80770 0.00000 -0.00000 -0.19300
H 	H 	0.84520 0.00000 -0.00000 0.10800
C 	C 	0.69620 0.00000 -0.00000 0.20100
N 	N 	0.63740 0.00000 -0.00000 -0.12000
C 	C 	0.30770 0.50000 -0.00000 -0.19400
H 	H 	0.34520 0.50000 -0.00000 0.10500
C 	C 	0.19620 0.50000 -0.00000 0.19800
N 	N 	0.13740 0.50000 -0.00000 -0.12600
C 	C 	0.80770 0.00000 0.50000 -0.19300
H 	H 	0.84520 0.00000 0.50000 0.10800
C 	C 	0.69620 0.00000 0.50000 0.20000
N 	N 	0.63740 0.00000 0.50000 -0.12000
C 	C 	0.30770 0.50000 0.50000 -0.19400
H 	H 	0.34520 0.50000 0.50000 0.10500
C 	C 	0.19620 0.50000 0.50000 0.19700
N 	N 	0.13740 0.50000 0.50000 -0.12600
C 	C 	0.19230 0.00000 -0.00000 -0.19400
H 	H 	0.15480 0.00000 -0.00000 0.10200
C 	C 	0.30380 0.00000 -0.00000 0.20100
N 	N 	0.36260 0.00000 -0.00000 -0.12100
C 	C 	0.69230 0.50000 -0.00000 -0.19400
H 	H 	0.65480 0.50000 -0.00000 0.10500
C 	C 	0.80380 0.50000 -0.00000 0.20400
N 	N 	0.86260 0.50000 -0.00000 -0.11400
C 	C 	0.50000 0.19370 0.75000 -0.14400
H 	H 	0.50000 0.22150 0.75000 0.09000
C 	C 	-0.00000 0.69370 0.75000 -0.23600
H 	H 	0.00000 0.72150 0.75000 0.10900
C 	C 	0.50000 0.80630 0.25000 -0.14400
H 	H 	0.50000 0.77850 0.25000 0.09100
C 	C 	-0.00000 0.30630 0.25000 -0.23600
H 	H 	0.00000 0.27850 0.25000 0.10900
Cu	Cu	-0.00000 0.06236 0.75000 0.88500
Cu	Cu	0.00000 0.14132 0.75000 0.89300
Cu	Cu	0.50000 0.56236 0.75000 0.90100
Cu	Cu	0.50000 0.64132 0.75000 0.91000
Cu	Cu	-0.00000 0.93764 0.25000 0.88500
Cu	Cu	-0.00000 0.85868 0.25000 0.89300
Cu	Cu	0.50000 0.43764 0.25000 0.90100
Cu	Cu	0.50000 0.35868 0.25000 0.91000
