data_crystal

_cell_length_a 17.60190
_cell_length_b 17.60190
_cell_length_c 17.60190
_cell_angle_alpha 90.00000
_cell_angle_beta  90.00000
_cell_angle_gamma 90.00000

_symmetry_space_group_name_	'P 1'
_symmetry_space_group_name_H-M	'P 1'

loop_
_symmetry_equiv_pos_as_xyz
  x,y,z

loop_
_atom_site_label
_atom_site_type_symbol
_atom_site_fract_x
_atom_site_fract_y
_atom_site_fract_z
_atom_site_charge
Zn	Zn	0.62500 0.12500 0.12500 1.14400
Zn	Zn	0.12500 0.62500 0.12500 1.14400
Zn	Zn	0.12500 0.12500 0.62500 1.14400
Zn	Zn	0.62500 0.62500 0.62500 1.15200
Zn	Zn	0.87500 0.87500 0.37500 1.16100
Zn	Zn	0.87500 0.37500 0.87500 1.16100
Zn	Zn	0.37500 0.87500 0.87500 1.16100
Zn	Zn	0.37500 0.37500 0.37500 1.15100
Zn	Zn	0.50000 0.25000 0.25000 1.16100
Zn	Zn	0.00000 0.25000 0.75000 1.13000
Zn	Zn	0.25000 0.00000 0.75000 1.13000
Zn	Zn	0.75000 0.75000 0.50000 1.16300
Zn	Zn	0.25000 0.75000 -0.00000 1.13000
Zn	Zn	0.00000 0.50000 -0.00000 1.09700
Zn	Zn	0.25000 0.50000 0.25000 1.16100
Zn	Zn	0.75000 0.00000 0.25000 1.13000
Zn	Zn	0.75000 0.25000 -0.00000 1.13000
Zn	Zn	0.50000 0.75000 0.75000 1.16300
Zn	Zn	0.00000 0.00000 0.50000 1.09700
Zn	Zn	0.25000 0.25000 0.50000 1.16100
Zn	Zn	0.00000 0.75000 0.25000 1.13000
Zn	Zn	0.75000 0.50000 0.75000 1.16300
Zn	Zn	0.50000 0.00000 -0.00000 1.09700
Zn	Zn	0.50000 0.50000 0.50000 1.16200
N 	N 	0.50210 0.12500 0.12500 -0.21000
N 	N 	0.50210 0.62500 0.62500 -0.19700
N 	N 	0.00210 0.12500 0.62500 -0.28700
N 	N 	0.00210 0.62500 0.12500 -0.28700
N 	N 	0.24790 0.12500 0.62500 -0.20300
N 	N 	0.74790 0.62500 0.62500 -0.19600
N 	N 	0.74790 0.12500 0.12500 -0.20900
N 	N 	0.12500 0.50210 0.12500 -0.21000
N 	N 	0.12500 0.00210 0.62500 -0.28700
N 	N 	0.62500 0.00210 0.12500 -0.28700
N 	N 	0.62500 0.24790 0.12500 -0.20300
N 	N 	0.62500 0.74790 0.62500 -0.19600
N 	N 	0.62500 0.50210 0.62500 -0.19700
N 	N 	0.12500 0.12500 0.50210 -0.21000
N 	N 	0.12500 0.62500 0.00210 -0.28700
N 	N 	0.62500 0.12500 0.00210 -0.28700
N 	N 	0.12500 0.62500 0.24790 -0.20300
N 	N 	0.12500 0.12500 0.74790 -0.20900
N 	N 	0.62500 0.62500 0.74790 -0.19600
N 	N 	0.62500 0.62500 0.50210 -0.19700
N 	N 	0.87500 0.75210 0.37500 -0.18900
N 	N 	0.87500 0.25210 0.87500 -0.18300
N 	N 	0.87500 0.49790 0.87500 -0.18300
N 	N 	0.37500 0.99790 0.87500 -0.10600
N 	N 	0.37500 0.49790 0.37500 -0.19700
N 	N 	0.37500 0.25210 0.37500 -0.19700
N 	N 	0.25210 0.37500 0.37500 -0.19700
N 	N 	0.25210 0.87500 0.87500 -0.18300
N 	N 	0.99790 0.87500 0.37500 -0.10600
N 	N 	0.49790 0.87500 0.87500 -0.18300
N 	N 	0.49790 0.37500 0.37500 -0.19700
N 	N 	0.75210 0.37500 0.87500 -0.18900
N 	N 	0.87500 0.37500 0.99790 -0.10600
N 	N 	0.37500 0.37500 0.25210 -0.19700
N 	N 	0.87500 0.87500 0.25210 -0.18300
N 	N 	0.37500 0.87500 0.75210 -0.18900
N 	N 	0.87500 0.87500 0.49790 -0.18300
N 	N 	0.75210 0.87500 0.37500 -0.18900
N 	N 	0.99790 0.37500 0.87500 -0.10600
N 	N 	0.37500 0.75210 0.87500 -0.18900
N 	N 	0.87500 0.99790 0.37500 -0.10600
N 	N 	0.87500 0.37500 0.75210 -0.18900
N 	N 	0.37500 0.87500 0.99790 -0.10600
N 	N 	0.37500 0.37500 0.49790 -0.19700
N 	N 	0.12500 0.24790 0.62500 -0.20300
N 	N 	0.12500 0.74790 0.12500 -0.20900
N 	N 	0.24790 0.62500 0.12500 -0.20300
N 	N 	0.62500 0.12500 0.24790 -0.20300
N 	N 	0.45840 0.16810 0.16810 -0.22300
C 	C 	0.38710 0.15200 0.15200 0.01600
C 	C 	0.31170 0.17630 0.17630 0.19700
H 	H 	0.27000 0.20000 0.20000 -0.05400
H 	H 	0.31700 0.16100 0.16100 -0.15000
N 	N 	0.45840 0.66810 0.66810 -0.21800
C 	C 	0.38710 0.65200 0.65200 0.01500
C 	C 	0.31170 0.67630 0.67630 0.19700
H 	H 	0.27000 0.70000 0.70000 -0.04600
H 	H 	0.31700 0.66100 0.66100 -0.14100
N 	N 	0.95840 0.16810 0.66810 -0.16200
C 	C 	0.88710 0.15200 0.65200 0.01900
C 	C 	0.81170 0.17630 0.67630 0.19500
H 	H 	0.77000 0.20000 0.70000 -0.04800
H 	H 	0.81700 0.16100 0.66100 -0.14300
N 	N 	0.95840 0.66810 0.16810 -0.16200
C 	C 	0.88710 0.65200 0.15200 0.01900
C 	C 	0.81170 0.67630 0.17630 0.19500
H 	H 	0.77000 0.70000 0.20000 -0.04800
H 	H 	0.81700 0.66100 0.16100 -0.14300
N 	N 	0.29160 0.08190 0.66810 -0.23200
C 	C 	0.36290 0.09800 0.65200 -0.00500
C 	C 	0.43830 0.07370 0.67630 0.20200
H 	H 	0.48000 0.05000 0.70000 -0.07900
H 	H 	0.43300 0.08900 0.66100 -0.15100
N 	N 	0.29160 0.58190 0.16810 -0.22100
C 	C 	0.36290 0.59800 0.15200 0.01600
C 	C 	0.43830 0.57370 0.17630 0.19700
H 	H 	0.48000 0.55000 0.20000 -0.04900
H 	H 	0.43300 0.58900 0.16100 -0.14500
N 	N 	0.79160 0.66810 0.58190 -0.21800
C 	C 	0.86290 0.65200 0.59800 0.02200
C 	C 	0.93830 0.67630 0.57370 0.21000
H 	H 	0.98000 0.70000 0.55000 -0.00200
H 	H 	0.93300 0.66100 0.58900 -0.13800
N 	N 	0.79160 0.16810 0.08190 -0.23400
C 	C 	0.86290 0.15200 0.09800 0.00200
C 	C 	0.93830 0.17630 0.07370 0.21500
H 	H 	0.98000 0.20000 0.05000 -0.03900
H 	H 	0.93300 0.16100 0.08900 -0.15300
N 	N 	0.29160 0.16810 0.58190 -0.22100
C 	C 	0.36290 0.15200 0.59800 0.01600
C 	C 	0.43830 0.17630 0.57370 0.19700
H 	H 	0.48000 0.20000 0.55000 -0.04900
H 	H 	0.43300 0.16100 0.58900 -0.14500
N 	N 	0.95840 0.58190 0.08190 -0.17200
C 	C 	0.88710 0.59800 0.09800 -0.00200
C 	C 	0.81170 0.57370 0.07370 0.19900
H 	H 	0.77000 0.55000 0.05000 -0.07800
H 	H 	0.81700 0.58900 0.08900 -0.14800
N 	N 	0.45840 0.58190 0.58190 -0.21800
C 	C 	0.38710 0.59800 0.59800 0.01500
C 	C 	0.31170 0.57370 0.57370 0.19700
H 	H 	0.27000 0.55000 0.55000 -0.04600
H 	H 	0.31700 0.58900 0.58900 -0.14100
N 	N 	0.16810 0.45840 0.16810 -0.22300
C 	C 	0.15200 0.38710 0.15200 0.01600
C 	C 	0.17630 0.31170 0.17630 0.19700
H 	H 	0.20000 0.27000 0.20000 -0.05400
H 	H 	0.16100 0.31700 0.16100 -0.15000
N 	N 	0.16810 0.95840 0.66810 -0.16200
C 	C 	0.15200 0.88710 0.65200 0.01900
C 	C 	0.17630 0.81170 0.67630 0.19500
H 	H 	0.20000 0.77000 0.70000 -0.04800
H 	H 	0.16100 0.81700 0.66100 -0.14300
N 	N 	0.66810 0.45840 0.66810 -0.21800
C 	C 	0.65200 0.38710 0.65200 0.01500
C 	C 	0.67630 0.31170 0.67630 0.19700
H 	H 	0.70000 0.27000 0.70000 -0.04600
H 	H 	0.66100 0.31700 0.66100 -0.14100
N 	N 	0.66810 0.95840 0.16810 -0.16200
C 	C 	0.65200 0.88710 0.15200 0.01900
C 	C 	0.67630 0.81170 0.17630 0.19500
H 	H 	0.70000 0.77000 0.20000 -0.04800
H 	H 	0.66100 0.81700 0.16100 -0.14300
N 	N 	0.66810 0.29160 0.08190 -0.23200
C 	C 	0.65200 0.36290 0.09800 -0.00500
C 	C 	0.67630 0.43830 0.07370 0.20200
H 	H 	0.70000 0.48000 0.05000 -0.07900
H 	H 	0.66100 0.43300 0.08900 -0.15100
N 	N 	0.16810 0.29160 0.58190 -0.22100
C 	C 	0.15200 0.36290 0.59800 0.01600
C 	C 	0.17630 0.43830 0.57370 0.19700
H 	H 	0.20000 0.48000 0.55000 -0.04900
H 	H 	0.16100 0.43300 0.58900 -0.14500
N 	N 	0.58190 0.79160 0.66810 -0.21800
C 	C 	0.59800 0.86290 0.65200 0.02200
C 	C 	0.57370 0.93830 0.67630 0.21000
H 	H 	0.55000 0.98000 0.70000 -0.00200
H 	H 	0.58900 0.93300 0.66100 -0.13800
N 	N 	0.58190 0.29160 0.16810 -0.22100
C 	C 	0.59800 0.36290 0.15200 0.01600
C 	C 	0.57370 0.43830 0.17630 0.19700
H 	H 	0.55000 0.48000 0.20000 -0.04900
H 	H 	0.58900 0.43300 0.16100 -0.14500
N 	N 	0.08190 0.95840 0.58190 -0.17200
C 	C 	0.09800 0.88710 0.59800 -0.00200
C 	C 	0.07370 0.81170 0.57370 0.19900
H 	H 	0.05000 0.77000 0.55000 -0.07800
H 	H 	0.08900 0.81700 0.58900 -0.14800
N 	N 	0.08190 0.45840 0.08190 -0.24500
C 	C 	0.09800 0.38710 0.09800 -0.02600
C 	C 	0.07370 0.31170 0.07370 0.20600
H 	H 	0.05000 0.27000 0.05000 -0.11500
H 	H 	0.08900 0.31700 0.08900 -0.16200
N 	N 	0.58190 0.45840 0.58190 -0.21800
C 	C 	0.59800 0.38710 0.59800 0.01500
C 	C 	0.57370 0.31170 0.57370 0.19700
H 	H 	0.55000 0.27000 0.55000 -0.04600
H 	H 	0.58900 0.31700 0.58900 -0.14100
N 	N 	0.16810 0.16810 0.45840 -0.22300
C 	C 	0.15200 0.15200 0.38710 0.01600
C 	C 	0.17630 0.17630 0.31170 0.19700
H 	H 	0.20000 0.20000 0.27000 -0.05400
H 	H 	0.16100 0.16100 0.31700 -0.15000
N 	N 	0.16810 0.66810 0.95840 -0.16200
C 	C 	0.15200 0.65200 0.88710 0.01900
C 	C 	0.17630 0.67630 0.81170 0.19500
H 	H 	0.20000 0.70000 0.77000 -0.04800
H 	H 	0.16100 0.66100 0.81700 -0.14300
N 	N 	0.66810 0.16810 0.95840 -0.16200
C 	C 	0.65200 0.15200 0.88710 0.01900
C 	C 	0.67630 0.17630 0.81170 0.19500
H 	H 	0.70000 0.20000 0.77000 -0.04800
H 	H 	0.66100 0.16100 0.81700 -0.14300
N 	N 	0.66810 0.66810 0.45840 -0.21800
C 	C 	0.65200 0.65200 0.38710 0.01500
C 	C 	0.67630 0.67630 0.31170 0.19700
H 	H 	0.70000 0.70000 0.27000 -0.04600
H 	H 	0.66100 0.66100 0.31700 -0.14100
N 	N 	0.08190 0.66810 0.29160 -0.23200
C 	C 	0.09800 0.65200 0.36290 -0.00500
C 	C 	0.07370 0.67630 0.43830 0.20200
H 	H 	0.05000 0.70000 0.48000 -0.07900
H 	H 	0.08900 0.66100 0.43300 -0.15100
N 	N 	0.08190 0.16810 0.79160 -0.23400
C 	C 	0.09800 0.15200 0.86290 0.00200
C 	C 	0.07370 0.17630 0.93830 0.21500
H 	H 	0.05000 0.20000 0.98000 -0.03900
H 	H 	0.08900 0.16100 0.93300 -0.15300
N 	N 	0.58190 0.16810 0.29160 -0.22100
C 	C 	0.59800 0.15200 0.36290 0.01600
C 	C 	0.57370 0.17630 0.43830 0.19700
H 	H 	0.55000 0.20000 0.48000 -0.04900
H 	H 	0.58900 0.16100 0.43300 -0.14500
N 	N 	0.66810 0.58190 0.79160 -0.21800
C 	C 	0.65200 0.59800 0.86290 0.02200
C 	C 	0.67630 0.57370 0.93830 0.21000
H 	H 	0.70000 0.55000 0.98000 -0.00200
H 	H 	0.66100 0.58900 0.93300 -0.13800
N 	N 	0.16810 0.58190 0.29160 -0.22100
C 	C 	0.15200 0.59800 0.36290 0.01600
C 	C 	0.17630 0.57370 0.43830 0.19700
H 	H 	0.20000 0.55000 0.48000 -0.04900
H 	H 	0.16100 0.58900 0.43300 -0.14500
N 	N 	0.58190 0.08190 0.95840 -0.17200
C 	C 	0.59800 0.09800 0.88710 -0.00200
C 	C 	0.57370 0.07370 0.81170 0.19900
H 	H 	0.55000 0.05000 0.77000 -0.07800
H 	H 	0.58900 0.08900 0.81700 -0.14800
N 	N 	0.58190 0.58190 0.45840 -0.21800
C 	C 	0.59800 0.59800 0.38710 0.01500
C 	C 	0.57370 0.57370 0.31170 0.19700
H 	H 	0.55000 0.55000 0.27000 -0.04600
H 	H 	0.58900 0.58900 0.31700 -0.14100
N 	N 	0.91810 0.70840 0.33190 -0.19700
C 	C 	0.90200 0.63710 0.34800 0.03700
C 	C 	0.92630 0.56170 0.32370 0.19200
H 	H 	0.95000 0.52000 0.30000 -0.01000
H 	H 	0.91100 0.56700 0.33900 -0.12800
N 	N 	0.91810 0.20840 0.83190 -0.19500
C 	C 	0.90200 0.13710 0.84800 0.02900
C 	C 	0.92630 0.06170 0.82370 0.17900
H 	H 	0.95000 0.02000 0.80000 -0.04900
H 	H 	0.91100 0.06700 0.83900 -0.12500
N 	N 	0.83190 0.54160 0.83190 -0.21300
C 	C 	0.84800 0.61290 0.84800 0.01400
C 	C 	0.82370 0.68830 0.82370 0.19700
H 	H 	0.80000 0.73000 0.80000 -0.03700
H 	H 	0.83900 0.68300 0.83900 -0.13000
N 	N 	0.83190 0.04160 0.33190 -0.26600
C 	C 	0.84800 0.11290 0.34800 0.01200
C 	C 	0.82370 0.18830 0.32370 0.19800
H 	H 	0.80000 0.23000 0.30000 -0.04200
H 	H 	0.83900 0.18300 0.33900 -0.13600
N 	N 	0.33190 0.54160 0.33190 -0.21800
C 	C 	0.34800 0.61290 0.34800 0.01500
C 	C 	0.32370 0.68830 0.32370 0.19700
H 	H 	0.30000 0.73000 0.30000 -0.04400
H 	H 	0.33900 0.68300 0.33900 -0.14000
N 	N 	0.33190 0.04160 0.83190 -0.26600
C 	C 	0.34800 0.11290 0.84800 0.01200
C 	C 	0.32370 0.18830 0.82370 0.19800
H 	H 	0.30000 0.23000 0.80000 -0.04200
H 	H 	0.33900 0.18300 0.83900 -0.13600
N 	N 	0.41810 0.04160 0.91810 -0.24700
C 	C 	0.40200 0.11290 0.90200 0.03500
C 	C 	0.42630 0.18830 0.92630 0.19200
H 	H 	0.45000 0.23000 0.95000 -0.01000
H 	H 	0.41100 0.18300 0.91100 -0.12900
N 	N 	0.41810 0.54160 0.41810 -0.21800
C 	C 	0.40200 0.61290 0.40200 0.01500
C 	C 	0.42630 0.68830 0.42630 0.19800
H 	H 	0.45000 0.73000 0.45000 -0.04400
H 	H 	0.41100 0.68300 0.41100 -0.14000
N 	N 	0.91810 0.54160 0.91810 -0.17700
C 	C 	0.90200 0.61290 0.90200 0.05700
C 	C 	0.92630 0.68830 0.92630 0.18700
H 	H 	0.95000 0.73000 0.95000 0.02300
H 	H 	0.91100 0.68300 0.91100 -0.11700
N 	N 	0.33190 0.20840 0.41810 -0.21900
C 	C 	0.34800 0.13710 0.40200 0.00900
C 	C 	0.32370 0.06170 0.42630 0.18400
H 	H 	0.30000 0.02000 0.45000 -0.08900
H 	H 	0.33900 0.06700 0.41100 -0.14200
N 	N 	0.83190 0.20840 0.91810 -0.19500
C 	C 	0.84800 0.13710 0.90200 0.02900
C 	C 	0.82370 0.06170 0.92630 0.17900
H 	H 	0.80000 0.02000 0.95000 -0.04900
H 	H 	0.83900 0.06700 0.91100 -0.12500
N 	N 	0.20840 0.41810 0.33190 -0.21900
C 	C 	0.13710 0.40200 0.34800 0.00900
C 	C 	0.06170 0.42630 0.32370 0.18400
H 	H 	0.02000 0.45000 0.30000 -0.08900
H 	H 	0.06700 0.41100 0.33900 -0.14200
N 	N 	0.20840 0.91810 0.83190 -0.19500
C 	C 	0.13710 0.90200 0.84800 0.02900
C 	C 	0.06170 0.92630 0.82370 0.17900
H 	H 	0.02000 0.95000 0.80000 -0.04900
H 	H 	0.06700 0.91100 0.83900 -0.12500
N 	N 	0.04160 0.91810 0.41810 -0.24700
C 	C 	0.11290 0.90200 0.40200 0.03500
C 	C 	0.18830 0.92630 0.42630 0.19200
H 	H 	0.23000 0.95000 0.45000 -0.01000
H 	H 	0.18300 0.91100 0.41100 -0.12900
N 	N 	0.54160 0.91810 0.91810 -0.17700
C 	C 	0.61290 0.90200 0.90200 0.05700
C 	C 	0.68830 0.92630 0.92630 0.18700
H 	H 	0.73000 0.95000 0.95000 0.02300
H 	H 	0.68300 0.91100 0.91100 -0.11700
N 	N 	0.54160 0.83190 0.83190 -0.21300
C 	C 	0.61290 0.84800 0.84800 0.01400
C 	C 	0.68830 0.82370 0.82370 0.19700
H 	H 	0.73000 0.80000 0.80000 -0.03700
H 	H 	0.68300 0.83900 0.83900 -0.13000
N 	N 	0.54160 0.33190 0.33190 -0.21800
C 	C 	0.61290 0.34800 0.34800 0.01500
C 	C 	0.68830 0.32370 0.32370 0.19700
H 	H 	0.73000 0.30000 0.30000 -0.04400
H 	H 	0.68300 0.33900 0.33900 -0.14000
N 	N 	0.04160 0.83190 0.33190 -0.26600
C 	C 	0.11290 0.84800 0.34800 0.01200
C 	C 	0.18830 0.82370 0.32370 0.19800
H 	H 	0.23000 0.80000 0.30000 -0.04200
H 	H 	0.18300 0.83900 0.33900 -0.13600
N 	N 	0.04160 0.33190 0.83190 -0.26600
C 	C 	0.11290 0.34800 0.84800 0.01200
C 	C 	0.18830 0.32370 0.82370 0.19800
H 	H 	0.23000 0.30000 0.80000 -0.04200
H 	H 	0.18300 0.33900 0.83900 -0.13600
N 	N 	0.70840 0.33190 0.91810 -0.19700
C 	C 	0.63710 0.34800 0.90200 0.03700
C 	C 	0.56170 0.32370 0.92630 0.19200
H 	H 	0.52000 0.30000 0.95000 -0.01000
H 	H 	0.56700 0.33900 0.91100 -0.12800
N 	N 	0.70840 0.83190 0.41810 -0.21600
C 	C 	0.63710 0.84800 0.40200 0.01400
C 	C 	0.56170 0.82370 0.42630 0.19700
H 	H 	0.52000 0.80000 0.45000 -0.04200
H 	H 	0.56700 0.83900 0.41100 -0.13500
N 	N 	0.20840 0.83190 0.91810 -0.19500
C 	C 	0.13710 0.84800 0.90200 0.02900
C 	C 	0.06170 0.82370 0.92630 0.17900
H 	H 	0.02000 0.80000 0.95000 -0.04900
H 	H 	0.06700 0.83900 0.91100 -0.12500
N 	N 	0.91810 0.41810 0.04160 -0.24700
C 	C 	0.90200 0.40200 0.11290 0.03500
C 	C 	0.92630 0.42630 0.18830 0.19200
H 	H 	0.95000 0.45000 0.23000 -0.01000
H 	H 	0.91100 0.41100 0.18300 -0.12900
N 	N 	0.91810 0.91810 0.54160 -0.17700
C 	C 	0.90200 0.90200 0.61290 0.05700
C 	C 	0.92630 0.92630 0.68830 0.18700
H 	H 	0.95000 0.95000 0.73000 0.02300
H 	H 	0.91100 0.91100 0.68300 -0.11700
N 	N 	0.41810 0.33190 0.20840 -0.21900
C 	C 	0.40200 0.34800 0.13710 0.00900
C 	C 	0.42630 0.32370 0.06170 0.18400
H 	H 	0.45000 0.30000 0.02000 -0.08900
H 	H 	0.41100 0.33900 0.06700 -0.14200
N 	N 	0.41810 0.83190 0.70840 -0.21600
C 	C 	0.40200 0.84800 0.63710 0.01400
C 	C 	0.42630 0.82370 0.56170 0.19700
H 	H 	0.45000 0.80000 0.52000 -0.04200
H 	H 	0.41100 0.83900 0.56700 -0.13500
N 	N 	0.91810 0.83190 0.20840 -0.19500
C 	C 	0.90200 0.84800 0.13710 0.02900
C 	C 	0.92630 0.82370 0.06170 0.17900
H 	H 	0.95000 0.80000 0.02000 -0.04900
H 	H 	0.91100 0.83900 0.06700 -0.12500
N 	N 	0.33190 0.91810 0.70840 -0.19700
C 	C 	0.34800 0.90200 0.63710 0.03700
C 	C 	0.32370 0.92630 0.56170 0.19200
H 	H 	0.30000 0.95000 0.52000 -0.01000
H 	H 	0.33900 0.91100 0.56700 -0.12800
N 	N 	0.83190 0.91810 0.20840 -0.19500
C 	C 	0.84800 0.90200 0.13710 0.02900
C 	C 	0.82370 0.92630 0.06170 0.17900
H 	H 	0.80000 0.95000 0.02000 -0.04900
H 	H 	0.83900 0.91100 0.06700 -0.12500
N 	N 	0.83190 0.83190 0.54160 -0.21300
C 	C 	0.84800 0.84800 0.61290 0.01400
C 	C 	0.82370 0.82370 0.68830 0.19700
H 	H 	0.80000 0.80000 0.73000 -0.03700
H 	H 	0.83900 0.83900 0.68300 -0.13000
N 	N 	0.83190 0.33190 0.04160 -0.26600
C 	C 	0.84800 0.34800 0.11290 0.01200
C 	C 	0.82370 0.32370 0.18830 0.19800
H 	H 	0.80000 0.30000 0.23000 -0.04200
H 	H 	0.83900 0.33900 0.18300 -0.13600
N 	N 	0.33190 0.83190 0.04160 -0.26600
C 	C 	0.34800 0.84800 0.11290 0.01200
C 	C 	0.32370 0.82370 0.18830 0.19800
H 	H 	0.30000 0.80000 0.23000 -0.04200
H 	H 	0.33900 0.83900 0.18300 -0.13600
N 	N 	0.33190 0.33190 0.54160 -0.21800
C 	C 	0.34800 0.34800 0.61290 0.01500
C 	C 	0.32370 0.32370 0.68830 0.19700
H 	H 	0.30000 0.30000 0.73000 -0.04400
H 	H 	0.33900 0.33900 0.68300 -0.14000
N 	N 	0.70840 0.91810 0.33190 -0.19700
C 	C 	0.63710 0.90200 0.34800 0.03700
C 	C 	0.56170 0.92630 0.32370 0.19200
H 	H 	0.52000 0.95000 0.30000 -0.01000
H 	H 	0.56700 0.91100 0.33900 -0.12800
N 	N 	0.70840 0.41810 0.83190 -0.21600
C 	C 	0.63710 0.40200 0.84800 0.01400
C 	C 	0.56170 0.42630 0.82370 0.19700
H 	H 	0.52000 0.45000 0.80000 -0.04200
H 	H 	0.56700 0.41100 0.83900 -0.13500
N 	N 	0.20840 0.33190 0.41810 -0.21900
C 	C 	0.13710 0.34800 0.40200 0.00900
C 	C 	0.06170 0.32370 0.42630 0.18400
H 	H 	0.02000 0.30000 0.45000 -0.08900
H 	H 	0.06700 0.33900 0.41100 -0.14200
N 	N 	0.04160 0.41810 0.91810 -0.24700
C 	C 	0.11290 0.40200 0.90200 0.03500
C 	C 	0.18830 0.42630 0.92630 0.19200
H 	H 	0.23000 0.45000 0.95000 -0.01000
H 	H 	0.18300 0.41100 0.91100 -0.12900
N 	N 	0.54160 0.41810 0.41810 -0.21800
C 	C 	0.61290 0.40200 0.40200 0.01500
C 	C 	0.68830 0.42630 0.42630 0.19800
H 	H 	0.73000 0.45000 0.45000 -0.04400
H 	H 	0.68300 0.41100 0.41100 -0.14000
N 	N 	0.33190 0.70840 0.91810 -0.19700
C 	C 	0.34800 0.63710 0.90200 0.03700
C 	C 	0.32370 0.56170 0.92630 0.19200
H 	H 	0.30000 0.52000 0.95000 -0.01000
H 	H 	0.33900 0.56700 0.91100 -0.12800
N 	N 	0.83190 0.70840 0.41810 -0.21600
C 	C 	0.84800 0.63710 0.40200 0.01400
C 	C 	0.82370 0.56170 0.42630 0.19700
H 	H 	0.80000 0.52000 0.45000 -0.04200
H 	H 	0.83900 0.56700 0.41100 -0.13500
N 	N 	0.41810 0.20840 0.33190 -0.21900
C 	C 	0.40200 0.13710 0.34800 0.00900
C 	C 	0.42630 0.06170 0.32370 0.18400
H 	H 	0.45000 0.02000 0.30000 -0.08900
H 	H 	0.41100 0.06700 0.33900 -0.14200
N 	N 	0.41810 0.70840 0.83190 -0.21600
C 	C 	0.40200 0.63710 0.84800 0.01400
C 	C 	0.42630 0.56170 0.82370 0.19700
H 	H 	0.45000 0.52000 0.80000 -0.04200
H 	H 	0.41100 0.56700 0.83900 -0.13500
N 	N 	0.91810 0.04160 0.41810 -0.24700
C 	C 	0.90200 0.11290 0.40200 0.03500
C 	C 	0.92630 0.18830 0.42630 0.19200
H 	H 	0.95000 0.23000 0.45000 -0.01000
H 	H 	0.91100 0.18300 0.41100 -0.12900
N 	N 	0.91810 0.33190 0.70840 -0.19700
C 	C 	0.90200 0.34800 0.63710 0.03700
C 	C 	0.92630 0.32370 0.56170 0.19200
H 	H 	0.95000 0.30000 0.52000 -0.01000
H 	H 	0.91100 0.33900 0.56700 -0.12800
N 	N 	0.33190 0.41810 0.20840 -0.21900
C 	C 	0.34800 0.40200 0.13710 0.00900
C 	C 	0.32370 0.42630 0.06170 0.18400
H 	H 	0.30000 0.45000 0.02000 -0.08900
H 	H 	0.33900 0.41100 0.06700 -0.14200
N 	N 	0.83190 0.41810 0.70840 -0.21600
C 	C 	0.84800 0.40200 0.63710 0.01400
C 	C 	0.82370 0.42630 0.56170 0.19700
H 	H 	0.80000 0.45000 0.52000 -0.04200
H 	H 	0.83900 0.41100 0.56700 -0.13500
N 	N 	0.41810 0.91810 0.04160 -0.24700
C 	C 	0.40200 0.90200 0.11290 0.03500
C 	C 	0.42630 0.92630 0.18830 0.19200
H 	H 	0.45000 0.95000 0.23000 -0.01000
H 	H 	0.41100 0.91100 0.18300 -0.12900
N 	N 	0.41810 0.41810 0.54160 -0.21800
C 	C 	0.40200 0.40200 0.61290 0.01500
C 	C 	0.42630 0.42630 0.68830 0.19800
H 	H 	0.45000 0.45000 0.73000 -0.04400
H 	H 	0.41100 0.41100 0.68300 -0.14000
N 	N 	0.08190 0.29160 0.66810 -0.23200
C 	C 	0.09800 0.36290 0.65200 -0.00500
C 	C 	0.07370 0.43830 0.67630 0.20200
H 	H 	0.05000 0.48000 0.70000 -0.07900
H 	H 	0.08900 0.43300 0.66100 -0.15100
N 	N 	0.08190 0.79160 0.16810 -0.23400
C 	C 	0.09800 0.86290 0.15200 0.00200
C 	C 	0.07370 0.93830 0.17630 0.21500
H 	H 	0.05000 0.98000 0.20000 -0.03900
H 	H 	0.08900 0.93300 0.16100 -0.15300
N 	N 	0.58190 0.95840 0.08190 -0.17200
C 	C 	0.59800 0.88710 0.09800 -0.00200
C 	C 	0.57370 0.81170 0.07370 0.19900
H 	H 	0.55000 0.77000 0.05000 -0.07800
H 	H 	0.58900 0.81700 0.08900 -0.14800
N 	N 	0.66810 0.79160 0.58190 -0.21800
C 	C 	0.65200 0.86290 0.59800 0.02200
C 	C 	0.67630 0.93830 0.57370 0.21000
H 	H 	0.70000 0.98000 0.55000 -0.00200
H 	H 	0.66100 0.93300 0.58900 -0.13800
N 	N 	0.16810 0.79160 0.08190 -0.23400
C 	C 	0.15200 0.86290 0.09800 0.00200
C 	C 	0.17630 0.93830 0.07370 0.21500
H 	H 	0.20000 0.98000 0.05000 -0.03900
H 	H 	0.16100 0.93300 0.08900 -0.15300
N 	N 	0.79160 0.58190 0.66810 -0.21800
C 	C 	0.86290 0.59800 0.65200 0.02200
C 	C 	0.93830 0.57370 0.67630 0.21000
H 	H 	0.98000 0.55000 0.70000 -0.00200
H 	H 	0.93300 0.58900 0.66100 -0.13800
N 	N 	0.79160 0.08190 0.16810 -0.23400
C 	C 	0.86290 0.09800 0.15200 0.00200
C 	C 	0.93830 0.07370 0.17630 0.21500
H 	H 	0.98000 0.05000 0.20000 -0.03900
H 	H 	0.93300 0.08900 0.16100 -0.15300
N 	N 	0.95840 0.08190 0.58190 -0.17200
C 	C 	0.88710 0.09800 0.59800 -0.00200
C 	C 	0.81170 0.07370 0.57370 0.19900
H 	H 	0.77000 0.05000 0.55000 -0.07800
H 	H 	0.81700 0.08900 0.58900 -0.14800
N 	N 	0.45840 0.08190 0.08190 -0.24500
C 	C 	0.38710 0.09800 0.09800 -0.02600
C 	C 	0.31170 0.07370 0.07370 0.20600
H 	H 	0.27000 0.05000 0.05000 -0.11500
H 	H 	0.31700 0.08900 0.08900 -0.16200
N 	N 	0.29160 0.66810 0.08190 -0.23200
C 	C 	0.36290 0.65200 0.09800 -0.00500
C 	C 	0.43830 0.67630 0.07370 0.20200
H 	H 	0.48000 0.70000 0.05000 -0.07900
H 	H 	0.43300 0.66100 0.08900 -0.15100
N 	N 	0.08190 0.58190 0.95840 -0.17200
C 	C 	0.09800 0.59800 0.88710 -0.00200
C 	C 	0.07370 0.57370 0.81170 0.19900
H 	H 	0.05000 0.55000 0.77000 -0.07800
H 	H 	0.08900 0.58900 0.81700 -0.14800
N 	N 	0.08190 0.08190 0.45840 -0.24500
C 	C 	0.09800 0.09800 0.38710 -0.02600
C 	C 	0.07370 0.07370 0.31170 0.20600
H 	H 	0.05000 0.05000 0.27000 -0.11500
H 	H 	0.08900 0.08900 0.31700 -0.16200
N 	N 	0.58190 0.66810 0.79160 -0.21800
C 	C 	0.59800 0.65200 0.86290 0.02200
C 	C 	0.57370 0.67630 0.93830 0.21000
H 	H 	0.55000 0.70000 0.98000 -0.00200
H 	H 	0.58900 0.66100 0.93300 -0.13800
N 	N 	0.66810 0.08190 0.29160 -0.23200
C 	C 	0.65200 0.09800 0.36290 -0.00500
C 	C 	0.67630 0.07370 0.43830 0.20200
H 	H 	0.70000 0.05000 0.48000 -0.07900
H 	H 	0.66100 0.08900 0.43300 -0.15100
N 	N 	0.16810 0.08190 0.79160 -0.23400
C 	C 	0.15200 0.09800 0.86290 0.00200
C 	C 	0.17630 0.07370 0.93830 0.21500
H 	H 	0.20000 0.05000 0.98000 -0.03900
H 	H 	0.16100 0.08900 0.93300 -0.15300
