data_crystal

_cell_length_a 22.16800
_cell_length_b 22.16800
_cell_length_c 37.01900
_cell_angle_alpha 90.00000
_cell_angle_beta  90.00000
_cell_angle_gamma 120.00000

_symmetry_space_group_name_	'P 1'
_symmetry_space_group_name_H-M	'P 1'

loop_
_symmetry_equiv_pos_as_xyz
  x,y,z

loop_
_atom_site_label
_atom_site_type_symbol
_atom_site_fract_x
_atom_site_fract_y
_atom_site_fract_z
_atom_site_charge
Zn	Zn	0.08007 0.61990 0.95389 1.18200
Zn	Zn	0.99375 0.55563 0.02396 1.20500
O 	O 	0.65937 0.59780 0.96111 -0.46200
O 	O 	0.70200 0.57292 0.01017 -0.48600
O 	O 	0.92785 0.57979 0.00035 -0.49300
O 	O 	0.99266 0.62606 0.95065 -0.50800
O 	O 	0.92102 0.64383 0.84529 -0.24000
O 	O 	0.06575 0.55070 0.99253 -0.81200
H 	H 	0.10520 0.55960 0.00640 0.19500
N 	N 	0.87857 0.68629 0.74224 -0.24800
N 	N 	0.83938 0.66904 0.86526 -0.15300
N 	N 	0.83854 0.71509 0.75198 -0.24800
C 	C 	0.70541 0.59298 0.97787 0.38000
C 	C 	0.77111 0.61099 0.95729 -0.07600
C 	C 	0.77853 0.63352 0.92196 -0.07200
H 	H 	0.74370 0.63940 0.91140 0.07800
C 	C 	0.93969 0.60726 0.96934 0.38800
C 	C 	0.88309 0.61827 0.95372 -0.07600
C 	C 	0.82372 0.60289 0.97296 0.01200
H 	H 	0.81880 0.58700 0.99660 0.04000
C 	C 	0.88988 0.64196 0.91788 -0.07700
H 	H 	0.93030 0.65380 0.90500 0.08900
C 	C 	0.83703 0.64762 0.90180 0.10700
C 	C 	0.87992 0.66363 0.83867 0.22900
C 	C 	0.86937 0.68133 0.80226 -0.10400
C 	C 	0.83336 0.71203 0.78802 0.06600
H 	H 	0.80900 0.72820 0.80160 -0.00900
C 	C 	0.89748 0.66706 0.77190 0.06800
H 	H 	0.92550 0.64690 0.77250 0.01300
Zn	Zn	0.74674 0.95323 0.28722 1.18300
Zn	Zn	0.66041 0.88896 0.35730 1.20600
O 	O 	0.32604 0.93113 0.29444 -0.46100
O 	O 	0.36867 0.90625 0.34350 -0.48500
O 	O 	0.59452 0.91312 0.33368 -0.49200
O 	O 	0.65933 0.95939 0.28398 -0.50700
O 	O 	0.58769 0.97716 0.17862 -0.23900
O 	O 	0.73242 0.88403 0.32586 -0.81100
H 	H 	0.77187 0.89293 0.33973 0.19600
N 	N 	0.54524 0.01962 0.07557 -0.24700
N 	N 	0.50605 0.00237 0.19859 -0.15200
N 	N 	0.50521 0.04842 0.08531 -0.24700
C 	C 	0.37208 0.92631 0.31120 0.38000
C 	C 	0.43778 0.94432 0.29062 -0.07600
C 	C 	0.44520 0.96685 0.25529 -0.07200
H 	H 	0.41037 0.97273 0.24473 0.07800
C 	C 	0.60636 0.94059 0.30267 0.38800
C 	C 	0.54976 0.95160 0.28705 -0.07600
C 	C 	0.49039 0.93622 0.30629 0.01200
H 	H 	0.48547 0.92033 0.32993 0.04000
C 	C 	0.55655 0.97529 0.25121 -0.07700
H 	H 	0.59697 0.98713 0.23833 0.08900
C 	C 	0.50370 0.98095 0.23513 0.10700
C 	C 	0.54659 0.99696 0.17200 0.22900
C 	C 	0.53604 0.01466 0.13559 -0.10400
C 	C 	0.50003 0.04536 0.12135 0.06600
H 	H 	0.47567 0.06153 0.13493 -0.00900
C 	C 	0.56415 0.00039 0.10523 0.06800
H 	H 	0.59217 0.98023 0.10583 0.01300
Zn	Zn	0.41341 0.28656 0.62055 1.18300
Zn	Zn	0.32708 0.22230 0.69063 1.20600
O 	O 	0.99270 0.26447 0.62778 -0.46100
O 	O 	0.03533 0.23959 0.67684 -0.48500
O 	O 	0.26118 0.24646 0.66702 -0.49100
O 	O 	0.32599 0.29273 0.61732 -0.50700
O 	O 	0.25435 0.31050 0.51196 -0.23900
O 	O 	0.39908 0.21737 0.65920 -0.81100
H 	H 	0.43853 0.22627 0.67307 0.19600
N 	N 	0.21190 0.35296 0.40891 -0.24700
N 	N 	0.17271 0.33571 0.53193 -0.15200
N 	N 	0.17187 0.38176 0.41865 -0.24700
C 	C 	0.03874 0.25965 0.64454 0.38000
C 	C 	0.10444 0.27766 0.62396 -0.07600
C 	C 	0.11186 0.30019 0.58863 -0.07200
H 	H 	0.07703 0.30607 0.57807 0.07800
C 	C 	0.27302 0.27393 0.63601 0.38800
C 	C 	0.21642 0.28494 0.62039 -0.07600
C 	C 	0.15705 0.26956 0.63963 0.01200
H 	H 	0.15213 0.25367 0.66327 0.04000
C 	C 	0.22321 0.30863 0.58455 -0.07700
H 	H 	0.26363 0.32047 0.57167 0.08900
C 	C 	0.17036 0.31429 0.56847 0.10700
C 	C 	0.21325 0.33030 0.50534 0.22900
C 	C 	0.20270 0.34800 0.46893 -0.10400
C 	C 	0.16669 0.37870 0.45469 0.06600
H 	H 	0.14233 0.39487 0.46827 -0.00900
C 	C 	0.23081 0.33373 0.43857 0.06800
H 	H 	0.25883 0.31357 0.43917 0.01300
Zn	Zn	0.38010 0.46018 0.95389 1.18300
Zn	Zn	0.44437 0.43812 0.02396 1.20600
O 	O 	0.40220 0.06157 0.96111 -0.46100
O 	O 	0.42708 0.12908 0.01017 -0.48500
O 	O 	0.42021 0.34806 0.00035 -0.49200
O 	O 	0.37394 0.36660 0.95065 -0.50700
O 	O 	0.35617 0.27719 0.84529 -0.23900
O 	O 	0.44930 0.51505 0.99253 -0.81100
H 	H 	0.44040 0.54560 0.00640 0.19600
N 	N 	0.31371 0.19228 0.74224 -0.24700
N 	N 	0.33096 0.17034 0.86526 -0.15200
N 	N 	0.28491 0.12345 0.75198 -0.24700
C 	C 	0.40702 0.11243 0.97787 0.38000
C 	C 	0.38901 0.16012 0.95729 -0.07600
C 	C 	0.36648 0.14501 0.92196 -0.07200
H 	H 	0.36060 0.10430 0.91140 0.07800
C 	C 	0.39274 0.33243 0.96934 0.38800
C 	C 	0.38173 0.26482 0.95372 -0.07600
C 	C 	0.39711 0.22083 0.97296 0.01200
H 	H 	0.41300 0.23180 0.99660 0.04000
C 	C 	0.35804 0.24792 0.91788 -0.07700
H 	H 	0.34620 0.27650 0.90500 0.08900
C 	C 	0.35238 0.18941 0.90180 0.10700
C 	C 	0.33637 0.21629 0.83867 0.22900
C 	C 	0.31867 0.18804 0.80226 -0.10400
C 	C 	0.28797 0.12133 0.78802 0.06600
H 	H 	0.27180 0.08080 0.80160 -0.00900
C 	C 	0.33294 0.23042 0.77190 0.06800
H 	H 	0.35310 0.27860 0.77250 0.01300
Zn	Zn	0.04677 0.79351 0.28722 1.18300
Zn	Zn	0.11104 0.77145 0.35730 1.20600
O 	O 	0.06887 0.39490 0.29444 -0.46100
O 	O 	0.09375 0.46241 0.34350 -0.48500
O 	O 	0.08688 0.68139 0.33368 -0.49100
O 	O 	0.04061 0.69993 0.28398 -0.50700
O 	O 	0.02284 0.61052 0.17862 -0.23900
O 	O 	0.11597 0.84838 0.32586 -0.81100
H 	H 	0.10707 0.87893 0.33973 0.19600
N 	N 	0.98038 0.52561 0.07557 -0.24700
N 	N 	0.99763 0.50367 0.19859 -0.15200
N 	N 	0.95158 0.45678 0.08531 -0.24700
C 	C 	0.07369 0.44576 0.31120 0.38000
C 	C 	0.05568 0.49345 0.29062 -0.07600
C 	C 	0.03315 0.47834 0.25529 -0.07200
H 	H 	0.02727 0.43763 0.24473 0.07800
C 	C 	0.05941 0.66576 0.30267 0.38800
C 	C 	0.04840 0.59815 0.28705 -0.07600
C 	C 	0.06378 0.55416 0.30629 0.01200
H 	H 	0.07967 0.56513 0.32993 0.04000
C 	C 	0.02471 0.58125 0.25121 -0.07700
H 	H 	0.01287 0.60983 0.23833 0.08900
C 	C 	0.01905 0.52274 0.23513 0.10700
C 	C 	0.00304 0.54962 0.17200 0.22900
C 	C 	0.98534 0.52137 0.13559 -0.10400
C 	C 	0.95464 0.45466 0.12135 0.06600
H 	H 	0.93847 0.41413 0.13493 -0.00900
C 	C 	0.99961 0.56375 0.10523 0.06800
H 	H 	0.01977 0.61193 0.10583 0.01300
Zn	Zn	0.71344 0.12685 0.62055 1.18300
Zn	Zn	0.77770 0.10479 0.69063 1.20600
O 	O 	0.73553 0.72824 0.62778 -0.46100
O 	O 	0.76041 0.79575 0.67684 -0.48500
O 	O 	0.75354 0.01473 0.66702 -0.49100
O 	O 	0.70727 0.03327 0.61732 -0.50700
O 	O 	0.68950 0.94386 0.51196 -0.23900
O 	O 	0.78263 0.18172 0.65920 -0.81100
H 	H 	0.77373 0.21227 0.67307 0.19600
N 	N 	0.64704 0.85895 0.40891 -0.24700
N 	N 	0.66429 0.83701 0.53193 -0.15200
N 	N 	0.61824 0.79012 0.41865 -0.24700
C 	C 	0.74035 0.77910 0.64454 0.38000
C 	C 	0.72234 0.82679 0.62396 -0.07600
C 	C 	0.69981 0.81168 0.58863 -0.07200
H 	H 	0.69393 0.77097 0.57807 0.07800
C 	C 	0.72607 0.99910 0.63601 0.38800
C 	C 	0.71506 0.93149 0.62039 -0.07600
C 	C 	0.73044 0.88750 0.63963 0.01200
H 	H 	0.74633 0.89847 0.66327 0.04000
C 	C 	0.69137 0.91459 0.58455 -0.07700
H 	H 	0.67953 0.94317 0.57167 0.08900
C 	C 	0.68571 0.85608 0.56847 0.10700
C 	C 	0.66970 0.88296 0.50534 0.22900
C 	C 	0.65200 0.85471 0.46893 -0.10400
C 	C 	0.62130 0.78800 0.45469 0.06600
H 	H 	0.60513 0.74747 0.46827 -0.00900
C 	C 	0.66627 0.89709 0.43857 0.06800
H 	H 	0.68643 0.94527 0.43917 0.01300
Zn	Zn	0.53982 0.91993 0.95389 1.18300
Zn	Zn	0.56188 0.00625 0.02396 1.20600
O 	O 	0.93843 0.34063 0.96111 -0.46100
O 	O 	0.87092 0.29800 0.01017 -0.48500
O 	O 	0.65194 0.07215 0.00035 -0.49100
O 	O 	0.63340 0.00734 0.95065 -0.50700
O 	O 	0.72281 0.07898 0.84529 -0.23900
O 	O 	0.48495 0.93425 0.99253 -0.81100
H 	H 	0.45440 0.89480 0.00640 0.19600
N 	N 	0.80772 0.12143 0.74224 -0.24700
N 	N 	0.82966 0.16062 0.86526 -0.15200
N 	N 	0.87655 0.16146 0.75198 -0.24700
C 	C 	0.88757 0.29459 0.97787 0.38000
C 	C 	0.83988 0.22889 0.95729 -0.07600
C 	C 	0.85499 0.22147 0.92196 -0.07200
H 	H 	0.89570 0.25630 0.91140 0.07800
C 	C 	0.66757 0.06031 0.96934 0.38800
C 	C 	0.73518 0.11691 0.95372 -0.07600
C 	C 	0.77917 0.17628 0.97296 0.01200
H 	H 	0.76820 0.18120 0.99660 0.04000
C 	C 	0.75208 0.11012 0.91788 -0.07700
H 	H 	0.72350 0.06970 0.90500 0.08900
C 	C 	0.81059 0.16297 0.90180 0.10700
C 	C 	0.78371 0.12008 0.83867 0.22900
C 	C 	0.81196 0.13063 0.80226 -0.10400
C 	C 	0.87867 0.16664 0.78802 0.06600
H 	H 	0.91920 0.19100 0.80160 -0.00900
C 	C 	0.76958 0.10252 0.77190 0.06800
H 	H 	0.72140 0.07450 0.77250 0.01300
Zn	Zn	0.20649 0.25326 0.28722 1.18300
Zn	Zn	0.22855 0.33959 0.35730 1.20600
O 	O 	0.60510 0.67396 0.29444 -0.46100
O 	O 	0.53759 0.63133 0.34350 -0.48500
O 	O 	0.31861 0.40548 0.33368 -0.49100
O 	O 	0.30007 0.34067 0.28398 -0.50700
O 	O 	0.38948 0.41231 0.17862 -0.23900
O 	O 	0.15162 0.26758 0.32586 -0.81100
H 	H 	0.12107 0.22813 0.33973 0.19600
N 	N 	0.47439 0.45476 0.07557 -0.24700
N 	N 	0.49633 0.49395 0.19859 -0.15200
N 	N 	0.54322 0.49479 0.08531 -0.24700
C 	C 	0.55424 0.62792 0.31120 0.38000
C 	C 	0.50655 0.56222 0.29062 -0.07600
C 	C 	0.52166 0.55480 0.25529 -0.07200
H 	H 	0.56237 0.58963 0.24473 0.07800
C 	C 	0.33424 0.39364 0.30267 0.38800
C 	C 	0.40185 0.45024 0.28705 -0.07600
C 	C 	0.44584 0.50961 0.30629 0.01200
H 	H 	0.43487 0.51453 0.32993 0.04000
C 	C 	0.41875 0.44345 0.25121 -0.07700
H 	H 	0.39017 0.40303 0.23833 0.08900
C 	C 	0.47726 0.49630 0.23513 0.10700
C 	C 	0.45038 0.45341 0.17200 0.22900
C 	C 	0.47863 0.46396 0.13559 -0.10400
C 	C 	0.54534 0.49997 0.12135 0.06600
H 	H 	0.58587 0.52433 0.13493 -0.00900
C 	C 	0.43625 0.43585 0.10523 0.06800
H 	H 	0.38807 0.40783 0.10583 0.01300
Zn	Zn	0.87315 0.58659 0.62055 1.18300
Zn	Zn	0.89521 0.67292 0.69063 1.20600
O 	O 	0.27176 0.00730 0.62778 -0.46100
O 	O 	0.20425 0.96467 0.67684 -0.48500
O 	O 	0.98527 0.73882 0.66702 -0.49100
O 	O 	0.96673 0.67401 0.61732 -0.50700
O 	O 	0.05614 0.74565 0.51196 -0.23900
O 	O 	0.81828 0.60092 0.65920 -0.81100
H 	H 	0.78773 0.56147 0.67307 0.19600
N 	N 	0.14105 0.78810 0.40891 -0.24700
N 	N 	0.16299 0.82729 0.53193 -0.15200
N 	N 	0.20988 0.82813 0.41865 -0.24700
C 	C 	0.22090 0.96126 0.64454 0.38000
C 	C 	0.17321 0.89556 0.62396 -0.07600
C 	C 	0.18832 0.88814 0.58863 -0.07200
H 	H 	0.22903 0.92297 0.57807 0.07800
C 	C 	0.00090 0.72698 0.63601 0.38800
C 	C 	0.06851 0.78358 0.62039 -0.07600
C 	C 	0.11250 0.84295 0.63963 0.01200
H 	H 	0.10153 0.84787 0.66327 0.04000
C 	C 	0.08541 0.77679 0.58455 -0.07700
H 	H 	0.05683 0.73637 0.57167 0.08900
C 	C 	0.14392 0.82964 0.56847 0.10700
C 	C 	0.11704 0.78675 0.50534 0.22900
C 	C 	0.14529 0.79730 0.46893 -0.10400
C 	C 	0.21200 0.83331 0.45469 0.06600
H 	H 	0.25253 0.85767 0.46827 -0.00900
C 	C 	0.10291 0.76919 0.43857 0.06800
H 	H 	0.05473 0.74117 0.43917 0.01300
Zn	Zn	0.91993 0.38010 0.04611 1.18300
Zn	Zn	0.00625 0.44437 0.97604 1.20600
O 	O 	0.34063 0.40220 0.03889 -0.46100
O 	O 	0.29800 0.42708 0.98983 -0.48500
O 	O 	0.07215 0.42021 0.99965 -0.49200
O 	O 	0.00734 0.37394 0.04935 -0.50700
O 	O 	0.07898 0.35617 0.15471 -0.23900
O 	O 	0.93425 0.44930 0.00747 -0.81100
H 	H 	0.89480 0.44040 0.99360 0.19600
N 	N 	0.12143 0.31371 0.25776 -0.24700
N 	N 	0.16062 0.33096 0.13474 -0.15200
N 	N 	0.16146 0.28491 0.24802 -0.24700
C 	C 	0.29459 0.40702 0.02213 0.38000
C 	C 	0.22889 0.38901 0.04271 -0.07600
C 	C 	0.22147 0.36648 0.07804 -0.07200
H 	H 	0.25630 0.36060 0.08860 0.07800
C 	C 	0.06031 0.39274 0.03066 0.38800
C 	C 	0.11691 0.38173 0.04628 -0.07600
C 	C 	0.17628 0.39711 0.02704 0.01200
H 	H 	0.18120 0.41300 0.00340 0.04000
C 	C 	0.11012 0.35804 0.08212 -0.07700
H 	H 	0.06970 0.34620 0.09500 0.08900
C 	C 	0.16297 0.35238 0.09820 0.10700
C 	C 	0.12008 0.33637 0.16133 0.22900
C 	C 	0.13063 0.31867 0.19774 -0.10400
C 	C 	0.16664 0.28797 0.21198 0.06600
H 	H 	0.19100 0.27180 0.19840 -0.00900
C 	C 	0.10252 0.33294 0.22810 0.06800
H 	H 	0.07450 0.35310 0.22750 0.01300
Zn	Zn	0.58659 0.71344 0.37945 1.18300
Zn	Zn	0.67292 0.77770 0.30937 1.20600
O 	O 	0.00730 0.73553 0.37222 -0.46100
O 	O 	0.96467 0.76041 0.32316 -0.48500
O 	O 	0.73882 0.75354 0.33298 -0.49100
O 	O 	0.67401 0.70727 0.38268 -0.50700
O 	O 	0.74565 0.68950 0.48804 -0.23900
O 	O 	0.60092 0.78263 0.34080 -0.81100
H 	H 	0.56147 0.77373 0.32693 0.19600
N 	N 	0.78810 0.64704 0.59109 -0.24700
N 	N 	0.82729 0.66429 0.46807 -0.15200
N 	N 	0.82813 0.61824 0.58135 -0.24700
C 	C 	0.96126 0.74035 0.35546 0.38000
C 	C 	0.89556 0.72234 0.37604 -0.07600
C 	C 	0.88814 0.69981 0.41137 -0.07200
H 	H 	0.92297 0.69393 0.42193 0.07800
C 	C 	0.72698 0.72607 0.36399 0.38800
C 	C 	0.78358 0.71506 0.37961 -0.07600
C 	C 	0.84295 0.73044 0.36037 0.01200
H 	H 	0.84787 0.74633 0.33673 0.04000
C 	C 	0.77679 0.69137 0.41545 -0.07700
H 	H 	0.73637 0.67953 0.42833 0.08900
C 	C 	0.82964 0.68571 0.43153 0.10700
C 	C 	0.78675 0.66970 0.49466 0.22900
C 	C 	0.79730 0.65200 0.53107 -0.10400
C 	C 	0.83331 0.62130 0.54531 0.06600
H 	H 	0.85767 0.60513 0.53173 -0.00900
C 	C 	0.76919 0.66627 0.56143 0.06800
H 	H 	0.74117 0.68643 0.56083 0.01300
Zn	Zn	0.25326 0.04677 0.71278 1.18300
Zn	Zn	0.33959 0.11104 0.64270 1.20600
O 	O 	0.67396 0.06887 0.70556 -0.46100
O 	O 	0.63133 0.09375 0.65650 -0.48500
O 	O 	0.40548 0.08688 0.66632 -0.49200
O 	O 	0.34067 0.04061 0.71602 -0.50700
O 	O 	0.41231 0.02284 0.82138 -0.23900
O 	O 	0.26758 0.11597 0.67414 -0.81100
H 	H 	0.22813 0.10707 0.66027 0.19600
N 	N 	0.45476 0.98038 0.92443 -0.24700
N 	N 	0.49395 0.99763 0.80141 -0.15200
N 	N 	0.49479 0.95158 0.91469 -0.24700
C 	C 	0.62792 0.07369 0.68880 0.38000
C 	C 	0.56222 0.05568 0.70938 -0.07600
C 	C 	0.55480 0.03315 0.74471 -0.07200
H 	H 	0.58963 0.02727 0.75527 0.07800
C 	C 	0.39364 0.05941 0.69733 0.38800
C 	C 	0.45024 0.04840 0.71295 -0.07600
C 	C 	0.50961 0.06378 0.69371 0.01200
H 	H 	0.51453 0.07967 0.67007 0.04000
C 	C 	0.44345 0.02471 0.74879 -0.07700
H 	H 	0.40303 0.01287 0.76167 0.08900
C 	C 	0.49630 0.01905 0.76487 0.10700
C 	C 	0.45341 0.00304 0.82800 0.22900
C 	C 	0.46396 0.98534 0.86441 -0.10400
C 	C 	0.49997 0.95464 0.87865 0.06600
H 	H 	0.52433 0.93847 0.86507 -0.00900
C 	C 	0.43585 0.99961 0.89477 0.06800
H 	H 	0.40783 0.01977 0.89417 0.01300
Zn	Zn	0.61990 0.53982 0.04611 1.18300
Zn	Zn	0.55563 0.56188 0.97604 1.20600
O 	O 	0.59780 0.93843 0.03889 -0.46100
O 	O 	0.57292 0.87092 0.98983 -0.48500
O 	O 	0.57979 0.65194 0.99965 -0.49200
O 	O 	0.62606 0.63340 0.04935 -0.50700
O 	O 	0.64383 0.72281 0.15471 -0.23900
O 	O 	0.55070 0.48495 0.00747 -0.81100
H 	H 	0.55960 0.45440 0.99360 0.19600
N 	N 	0.68629 0.80772 0.25776 -0.24700
N 	N 	0.66904 0.82966 0.13474 -0.15200
N 	N 	0.71509 0.87655 0.24802 -0.24700
C 	C 	0.59298 0.88757 0.02213 0.38000
C 	C 	0.61099 0.83988 0.04271 -0.07600
C 	C 	0.63352 0.85499 0.07804 -0.07200
H 	H 	0.63940 0.89570 0.08860 0.07800
C 	C 	0.60726 0.66757 0.03066 0.38800
C 	C 	0.61827 0.73518 0.04628 -0.07600
C 	C 	0.60289 0.77917 0.02704 0.01200
H 	H 	0.58700 0.76820 0.00340 0.04000
C 	C 	0.64196 0.75208 0.08212 -0.07700
H 	H 	0.65380 0.72350 0.09500 0.08900
C 	C 	0.64762 0.81059 0.09820 0.10700
C 	C 	0.66363 0.78371 0.16133 0.22900
C 	C 	0.68133 0.81196 0.19774 -0.10400
C 	C 	0.71203 0.87867 0.21198 0.06600
H 	H 	0.72820 0.91920 0.19840 -0.00900
C 	C 	0.66706 0.76958 0.22810 0.06800
H 	H 	0.64690 0.72140 0.22750 0.01300
Zn	Zn	0.28656 0.87315 0.37945 1.18300
Zn	Zn	0.22230 0.89521 0.30937 1.20600
O 	O 	0.26447 0.27176 0.37222 -0.46100
O 	O 	0.23959 0.20425 0.32316 -0.48500
O 	O 	0.24646 0.98527 0.33298 -0.49100
O 	O 	0.29273 0.96673 0.38268 -0.50700
O 	O 	0.31050 0.05614 0.48804 -0.23900
O 	O 	0.21737 0.81828 0.34080 -0.81100
H 	H 	0.22627 0.78773 0.32693 0.19600
N 	N 	0.35296 0.14105 0.59109 -0.24700
N 	N 	0.33571 0.16299 0.46807 -0.15200
N 	N 	0.38176 0.20988 0.58135 -0.24700
C 	C 	0.25965 0.22090 0.35546 0.38000
C 	C 	0.27766 0.17321 0.37604 -0.07600
C 	C 	0.30019 0.18832 0.41137 -0.07200
H 	H 	0.30607 0.22903 0.42193 0.07800
C 	C 	0.27393 0.00090 0.36399 0.38800
C 	C 	0.28494 0.06851 0.37961 -0.07600
C 	C 	0.26956 0.11250 0.36037 0.01200
H 	H 	0.25367 0.10153 0.33673 0.04000
C 	C 	0.30863 0.08541 0.41545 -0.07700
H 	H 	0.32047 0.05683 0.42833 0.08900
C 	C 	0.31429 0.14392 0.43153 0.10700
C 	C 	0.33030 0.11704 0.49466 0.22900
C 	C 	0.34800 0.14529 0.53107 -0.10400
C 	C 	0.37870 0.21200 0.54531 0.06600
H 	H 	0.39487 0.25253 0.53173 -0.00900
C 	C 	0.33373 0.10291 0.56143 0.06800
H 	H 	0.31357 0.05473 0.56083 0.01300
Zn	Zn	0.95323 0.20649 0.71278 1.18300
Zn	Zn	0.88896 0.22855 0.64270 1.20600
O 	O 	0.93113 0.60510 0.70556 -0.46100
O 	O 	0.90625 0.53759 0.65650 -0.48500
O 	O 	0.91312 0.31861 0.66632 -0.49100
O 	O 	0.95939 0.30007 0.71602 -0.50700
O 	O 	0.97716 0.38948 0.82138 -0.23900
O 	O 	0.88403 0.15162 0.67414 -0.81100
H 	H 	0.89293 0.12107 0.66027 0.19600
N 	N 	0.01962 0.47439 0.92443 -0.24700
N 	N 	0.00237 0.49633 0.80141 -0.15200
N 	N 	0.04842 0.54322 0.91469 -0.24700
C 	C 	0.92631 0.55424 0.68880 0.38000
C 	C 	0.94432 0.50655 0.70938 -0.07600
C 	C 	0.96685 0.52166 0.74471 -0.07200
H 	H 	0.97273 0.56237 0.75527 0.07800
C 	C 	0.94059 0.33424 0.69733 0.38800
C 	C 	0.95160 0.40185 0.71295 -0.07600
C 	C 	0.93622 0.44584 0.69371 0.01200
H 	H 	0.92033 0.43487 0.67007 0.04000
C 	C 	0.97529 0.41875 0.74879 -0.07700
H 	H 	0.98713 0.39017 0.76167 0.08900
C 	C 	0.98095 0.47726 0.76487 0.10700
C 	C 	0.99696 0.45038 0.82800 0.22900
C 	C 	0.01466 0.47863 0.86441 -0.10400
C 	C 	0.04536 0.54534 0.87865 0.06600
H 	H 	0.06153 0.58587 0.86507 -0.00900
C 	C 	0.00039 0.43625 0.89477 0.06800
H 	H 	0.98023 0.38807 0.89417 0.01300
Zn	Zn	0.46018 0.08007 0.04611 1.18300
Zn	Zn	0.43812 0.99375 0.97604 1.20600
O 	O 	0.06157 0.65937 0.03889 -0.46100
O 	O 	0.12908 0.70200 0.98983 -0.48500
O 	O 	0.34806 0.92785 0.99965 -0.49100
O 	O 	0.36660 0.99266 0.04935 -0.50700
O 	O 	0.27719 0.92102 0.15471 -0.23900
O 	O 	0.51505 0.06575 0.00747 -0.81100
H 	H 	0.54560 0.10520 0.99360 0.19600
N 	N 	0.19228 0.87857 0.25776 -0.24700
N 	N 	0.17034 0.83938 0.13474 -0.15200
N 	N 	0.12345 0.83854 0.24802 -0.24700
C 	C 	0.11243 0.70541 0.02213 0.38000
C 	C 	0.16012 0.77111 0.04271 -0.07600
C 	C 	0.14501 0.77853 0.07804 -0.07200
H 	H 	0.10430 0.74370 0.08860 0.07800
C 	C 	0.33243 0.93969 0.03066 0.38800
C 	C 	0.26482 0.88309 0.04628 -0.07600
C 	C 	0.22083 0.82372 0.02704 0.01200
H 	H 	0.23180 0.81880 0.00340 0.04000
C 	C 	0.24792 0.88988 0.08212 -0.07700
H 	H 	0.27650 0.93030 0.09500 0.08900
C 	C 	0.18941 0.83703 0.09820 0.10700
C 	C 	0.21629 0.87992 0.16133 0.22900
C 	C 	0.18804 0.86937 0.19774 -0.10400
C 	C 	0.12133 0.83336 0.21198 0.06600
H 	H 	0.08080 0.80900 0.19840 -0.00900
C 	C 	0.23042 0.89748 0.22810 0.06800
H 	H 	0.27860 0.92550 0.22750 0.01300
Zn	Zn	0.12685 0.41341 0.37945 1.18300
Zn	Zn	0.10479 0.32708 0.30937 1.20600
O 	O 	0.72824 0.99270 0.37222 -0.46100
O 	O 	0.79575 0.03533 0.32316 -0.48500
O 	O 	0.01473 0.26118 0.33298 -0.49100
O 	O 	0.03327 0.32599 0.38268 -0.50700
O 	O 	0.94386 0.25435 0.48804 -0.23900
O 	O 	0.18172 0.39908 0.34080 -0.81100
H 	H 	0.21227 0.43853 0.32693 0.19600
N 	N 	0.85895 0.21190 0.59109 -0.24700
N 	N 	0.83701 0.17271 0.46807 -0.15200
N 	N 	0.79012 0.17187 0.58135 -0.24700
C 	C 	0.77910 0.03874 0.35546 0.38000
C 	C 	0.82679 0.10444 0.37604 -0.07600
C 	C 	0.81168 0.11186 0.41137 -0.07200
H 	H 	0.77097 0.07703 0.42193 0.07800
C 	C 	0.99910 0.27302 0.36399 0.38800
C 	C 	0.93149 0.21642 0.37961 -0.07600
C 	C 	0.88750 0.15705 0.36037 0.01200
H 	H 	0.89847 0.15213 0.33673 0.04000
C 	C 	0.91459 0.22321 0.41545 -0.07700
H 	H 	0.94317 0.26363 0.42833 0.08900
C 	C 	0.85608 0.17036 0.43153 0.10700
C 	C 	0.88296 0.21325 0.49466 0.22900
C 	C 	0.85471 0.20270 0.53107 -0.10400
C 	C 	0.78800 0.16669 0.54531 0.06600
H 	H 	0.74747 0.14233 0.53173 -0.00900
C 	C 	0.89709 0.23081 0.56143 0.06800
H 	H 	0.94527 0.25883 0.56083 0.01300
Zn	Zn	0.79351 0.74674 0.71278 1.18300
Zn	Zn	0.77145 0.66041 0.64270 1.20600
O 	O 	0.39490 0.32604 0.70556 -0.46100
O 	O 	0.46241 0.36867 0.65650 -0.48500
O 	O 	0.68139 0.59452 0.66632 -0.49100
O 	O 	0.69993 0.65933 0.71602 -0.50700
O 	O 	0.61052 0.58769 0.82138 -0.23900
O 	O 	0.84838 0.73242 0.67414 -0.81100
H 	H 	0.87893 0.77187 0.66027 0.19600
N 	N 	0.52561 0.54524 0.92443 -0.24700
N 	N 	0.50367 0.50605 0.80141 -0.15200
N 	N 	0.45678 0.50521 0.91469 -0.24700
C 	C 	0.44576 0.37208 0.68880 0.38000
C 	C 	0.49345 0.43778 0.70938 -0.07600
C 	C 	0.47834 0.44520 0.74471 -0.07200
H 	H 	0.43763 0.41037 0.75527 0.07800
C 	C 	0.66576 0.60636 0.69733 0.38800
C 	C 	0.59815 0.54976 0.71295 -0.07600
C 	C 	0.55416 0.49039 0.69371 0.01200
H 	H 	0.56513 0.48547 0.67007 0.04000
C 	C 	0.58125 0.55655 0.74879 -0.07700
H 	H 	0.60983 0.59697 0.76167 0.08900
C 	C 	0.52274 0.50370 0.76487 0.10700
C 	C 	0.54962 0.54659 0.82800 0.22900
C 	C 	0.52137 0.53604 0.86441 -0.10400
C 	C 	0.45466 0.50003 0.87865 0.06600
H 	H 	0.41413 0.47567 0.86507 -0.00900
C 	C 	0.56375 0.56415 0.89477 0.06800
H 	H 	0.61193 0.59217 0.89417 0.01300
