data_crystal

_cell_length_a 14.92350
_cell_length_b 14.92350
_cell_length_c 19.14570
_cell_angle_alpha 90.00000
_cell_angle_beta  90.00000
_cell_angle_gamma 90.00000

_symmetry_space_group_name_	'P 1'
_symmetry_space_group_name_H-M	'P 1'

loop_
_symmetry_equiv_pos_as_xyz
  x,y,z

loop_
_atom_site_label
_atom_site_type_symbol
_atom_site_fract_x
_atom_site_fract_y
_atom_site_fract_z
_atom_site_charge
O 	O 	0.21519 0.12061 0.29458 -0.39200
O 	O 	0.18166 0.13409 0.18096 -0.39000
C 	C 	0.30580 0.17430 0.02870 -0.01200
H 	H 	0.36800 0.18070 0.04590 0.02100
H 	H 	0.28160 0.11680 0.04630 0.02000
C 	C 	0.30550 0.17390 0.94900 -0.01500
H 	H 	0.28080 0.11630 0.93200 -0.00400
H 	H 	0.36770 0.17940 0.93160 -0.00400
C 	C 	0.33500 0.21300 0.94770 -0.02200
H 	H 	0.34290 0.15110 0.93030 0.01800
H 	H 	0.24960 0.11430 0.93040 0.02000
C 	C 	0.28750 0.33560 0.02720 -0.02200
H 	H 	0.24870 0.11340 0.04430 0.00400
H 	H 	0.34350 0.15040 0.04410 0.00400
C 	C 	0.15720 0.23880 0.02850 -0.01800
H 	H 	0.31820 0.13190 0.04620 0.01400
H 	H 	0.38080 0.21150 0.04560 0.01500
C 	C 	0.26200 0.15670 0.94880 -0.01400
H 	H 	0.38210 0.21310 0.93150 0.02500
H 	H 	0.31950 0.13180 0.93200 0.02000
C 	C 	0.17580 0.09650 0.23948 0.34500
C 	C 	0.11330 0.01800 0.24459 -0.06800
C 	C 	0.07730 0.97970 0.18435 -0.01900
H 	H 	0.09700 0.99890 0.13960 0.04700
C 	C 	0.08620 0.98720 0.30993 -0.01900
H 	H 	0.11330 0.01080 0.35090 0.04600
O 	O 	0.28481 0.37939 0.29458 -0.39200
O 	O 	0.31834 0.36591 0.18096 -0.39000
C 	C 	0.19420 0.32570 0.02870 -0.01200
H 	H 	0.13200 0.31930 0.04590 0.02100
H 	H 	0.21840 0.38320 0.04630 0.02000
C 	C 	0.19450 0.32610 0.94900 -0.01500
H 	H 	0.21920 0.38370 0.93200 -0.00400
H 	H 	0.13230 0.32060 0.93160 -0.00400
C 	C 	0.16500 0.28700 0.94770 -0.02200
H 	H 	0.15710 0.34890 0.93030 0.01800
H 	H 	0.25040 0.38570 0.93040 0.02000
C 	C 	0.21250 0.16440 0.02720 -0.02200
H 	H 	0.25130 0.38660 0.04430 0.00400
H 	H 	0.15650 0.34960 0.04410 0.00400
C 	C 	0.34280 0.26120 0.02850 -0.01800
H 	H 	0.18180 0.36810 0.04620 0.01400
H 	H 	0.11920 0.28850 0.04560 0.01500
C 	C 	0.23800 0.34330 0.94880 -0.01400
H 	H 	0.11790 0.28690 0.93150 0.02500
H 	H 	0.18050 0.36820 0.93200 0.02000
C 	C 	0.32420 0.40350 0.23948 0.34600
C 	C 	0.38670 0.48200 0.24459 -0.06900
C 	C 	0.42270 0.52030 0.18435 -0.01800
H 	H 	0.40300 0.50110 0.13960 0.04700
C 	C 	0.41380 0.51280 0.30993 -0.01800
H 	H 	0.38670 0.48920 0.35090 0.04600
O 	O 	0.37939 0.21519 0.29458 -0.39100
O 	O 	0.36591 0.18166 0.18096 -0.38900
C 	C 	0.32570 0.30580 0.02870 -0.01100
H 	H 	0.31930 0.36800 0.04590 0.02200
H 	H 	0.38320 0.28160 0.04630 0.02100
C 	C 	0.32610 0.30550 0.94900 -0.01400
H 	H 	0.38370 0.28080 0.93200 -0.00300
H 	H 	0.32060 0.36770 0.93160 -0.00300
C 	C 	0.28700 0.33500 0.94770 -0.02100
H 	H 	0.34890 0.34290 0.93030 0.01900
H 	H 	0.38570 0.24960 0.93040 0.02100
C 	C 	0.16440 0.28750 0.02720 -0.02100
H 	H 	0.38660 0.24870 0.04430 0.00500
H 	H 	0.34960 0.34350 0.04410 0.00500
C 	C 	0.26120 0.15720 0.02850 -0.01700
H 	H 	0.36810 0.31820 0.04620 0.01500
H 	H 	0.28850 0.38080 0.04560 0.01600
C 	C 	0.34330 0.26200 0.94880 -0.01300
H 	H 	0.28690 0.38210 0.93150 0.02600
H 	H 	0.36820 0.31950 0.93200 0.02100
C 	C 	0.40350 0.17580 0.23948 0.34700
C 	C 	0.48200 0.11330 0.24459 -0.06800
C 	C 	0.52030 0.07730 0.18435 -0.01700
H 	H 	0.50110 0.09700 0.13960 0.04800
C 	C 	0.51280 0.08620 0.30993 -0.01700
H 	H 	0.48920 0.11330 0.35090 0.04700
O 	O 	0.12061 0.28481 0.29458 -0.39100
O 	O 	0.13409 0.31834 0.18096 -0.38900
C 	C 	0.17430 0.19420 0.02870 -0.01100
H 	H 	0.18070 0.13200 0.04590 0.02200
H 	H 	0.11680 0.21840 0.04630 0.02100
C 	C 	0.17390 0.19450 0.94900 -0.01400
H 	H 	0.11630 0.21920 0.93200 -0.00300
H 	H 	0.17940 0.13230 0.93160 -0.00300
C 	C 	0.21300 0.16500 0.94770 -0.02100
H 	H 	0.15110 0.15710 0.93030 0.01900
H 	H 	0.11430 0.25040 0.93040 0.02100
C 	C 	0.33560 0.21250 0.02720 -0.02100
H 	H 	0.11340 0.25130 0.04430 0.00500
H 	H 	0.15040 0.15650 0.04410 0.00500
C 	C 	0.23880 0.34280 0.02850 -0.01700
H 	H 	0.13190 0.18180 0.04620 0.01500
H 	H 	0.21150 0.11920 0.04560 0.01600
C 	C 	0.15670 0.23800 0.94880 -0.01300
H 	H 	0.21310 0.11790 0.93150 0.02600
H 	H 	0.13180 0.18050 0.93200 0.02100
C 	C 	0.09650 0.32420 0.23948 0.34700
C 	C 	0.01800 0.38670 0.24459 -0.06700
C 	C 	0.97970 0.42270 0.18435 -0.01700
H 	H 	0.99890 0.40300 0.13960 0.04800
C 	C 	0.98720 0.41380 0.30993 -0.01700
H 	H 	0.01080 0.38670 0.35090 0.04700
O 	O 	0.78481 0.62061 0.20542 -0.39100
O 	O 	0.81834 0.63409 0.31904 -0.38900
C 	C 	0.69420 0.67430 0.47130 -0.01100
H 	H 	0.63200 0.68070 0.45410 0.02200
H 	H 	0.71840 0.61680 0.45370 0.02100
C 	C 	0.69450 0.67390 0.55100 -0.01400
H 	H 	0.71920 0.61630 0.56800 -0.00300
H 	H 	0.63230 0.67940 0.56840 -0.00300
C 	C 	0.66500 0.71300 0.55230 -0.02100
H 	H 	0.65710 0.65110 0.56970 0.01900
H 	H 	0.75040 0.61430 0.56960 0.02100
C 	C 	0.71250 0.83560 0.47280 -0.02100
H 	H 	0.75130 0.61340 0.45570 0.00500
H 	H 	0.65650 0.65040 0.45590 0.00500
C 	C 	0.84280 0.73880 0.47150 -0.01700
H 	H 	0.68180 0.63190 0.45380 0.01500
H 	H 	0.61920 0.71150 0.45440 0.01600
C 	C 	0.73800 0.65670 0.55120 -0.01300
H 	H 	0.61790 0.71310 0.56850 0.02600
H 	H 	0.68050 0.63180 0.56800 0.02100
C 	C 	0.82420 0.59650 0.26052 0.34700
C 	C 	0.88670 0.51800 0.25541 -0.06800
C 	C 	0.92270 0.47970 0.31565 -0.01600
H 	H 	0.90300 0.49890 0.36040 0.04800
C 	C 	0.91380 0.48720 0.19007 -0.01600
H 	H 	0.88670 0.51080 0.14910 0.04600
O 	O 	0.71519 0.87939 0.20542 -0.39100
O 	O 	0.68166 0.86591 0.31904 -0.38900
C 	C 	0.80580 0.82570 0.47130 -0.01100
H 	H 	0.86800 0.81930 0.45410 0.02200
H 	H 	0.78160 0.88320 0.45370 0.02100
C 	C 	0.80550 0.82610 0.55100 -0.01400
H 	H 	0.78080 0.88370 0.56800 -0.00300
H 	H 	0.86770 0.82060 0.56840 -0.00300
C 	C 	0.83500 0.78700 0.55230 -0.02100
H 	H 	0.84290 0.84890 0.56970 0.01900
H 	H 	0.74960 0.88570 0.56960 0.02100
C 	C 	0.78750 0.66440 0.47280 -0.02100
H 	H 	0.74870 0.88660 0.45570 0.00500
H 	H 	0.84350 0.84960 0.45590 0.00500
C 	C 	0.65720 0.76120 0.47150 -0.01700
H 	H 	0.81820 0.86810 0.45380 0.01500
H 	H 	0.88080 0.78850 0.45440 0.01600
C 	C 	0.76200 0.84330 0.55120 -0.01300
H 	H 	0.88210 0.78690 0.56850 0.02600
H 	H 	0.81950 0.86820 0.56800 0.02100
C 	C 	0.67580 0.90350 0.26052 0.34700
C 	C 	0.61330 0.98200 0.25541 -0.06800
C 	C 	0.57730 0.02030 0.31565 -0.01700
H 	H 	0.59700 0.00110 0.36040 0.04800
C 	C 	0.58620 0.01280 0.19007 -0.01700
H 	H 	0.61330 0.98920 0.14910 0.04600
O 	O 	0.62061 0.71519 0.20542 -0.39100
O 	O 	0.63409 0.68166 0.31904 -0.38900
C 	C 	0.67430 0.80580 0.47130 -0.01100
H 	H 	0.68070 0.86800 0.45410 0.02200
H 	H 	0.61680 0.78160 0.45370 0.02100
C 	C 	0.67390 0.80550 0.55100 -0.01400
H 	H 	0.61630 0.78080 0.56800 -0.00300
H 	H 	0.67940 0.86770 0.56840 -0.00300
C 	C 	0.71300 0.83500 0.55230 -0.02100
H 	H 	0.65110 0.84290 0.56970 0.01900
H 	H 	0.61430 0.74960 0.56960 0.02100
C 	C 	0.83560 0.78750 0.47280 -0.02100
H 	H 	0.61340 0.74870 0.45570 0.00500
H 	H 	0.65040 0.84350 0.45590 0.00500
C 	C 	0.73880 0.65720 0.47150 -0.01700
H 	H 	0.63190 0.81820 0.45380 0.01500
H 	H 	0.71150 0.88080 0.45440 0.01600
C 	C 	0.65670 0.76200 0.55120 -0.01300
H 	H 	0.71310 0.88210 0.56850 0.02600
H 	H 	0.63180 0.81950 0.56800 0.02100
C 	C 	0.59650 0.67580 0.26052 0.34700
C 	C 	0.51800 0.61330 0.25541 -0.06800
C 	C 	0.47970 0.57730 0.31565 -0.01700
H 	H 	0.49890 0.59700 0.36040 0.04800
C 	C 	0.48720 0.58620 0.19007 -0.01700
H 	H 	0.51080 0.61330 0.14910 0.04700
O 	O 	0.87939 0.78481 0.20542 -0.39100
O 	O 	0.86591 0.81834 0.31904 -0.38900
C 	C 	0.82570 0.69420 0.47130 -0.01100
H 	H 	0.81930 0.63200 0.45410 0.02200
H 	H 	0.88320 0.71840 0.45370 0.02100
C 	C 	0.82610 0.69450 0.55100 -0.01400
H 	H 	0.88370 0.71920 0.56800 -0.00300
H 	H 	0.82060 0.63230 0.56840 -0.00300
C 	C 	0.78700 0.66500 0.55230 -0.02100
H 	H 	0.84890 0.65710 0.56970 0.01900
H 	H 	0.88570 0.75040 0.56960 0.02100
C 	C 	0.66440 0.71250 0.47280 -0.02100
H 	H 	0.88660 0.75130 0.45570 0.00500
H 	H 	0.84960 0.65650 0.45590 0.00500
C 	C 	0.76120 0.84280 0.47150 -0.01700
H 	H 	0.86810 0.68180 0.45380 0.01500
H 	H 	0.78850 0.61920 0.45440 0.01600
C 	C 	0.84330 0.73800 0.55120 -0.01300
H 	H 	0.78690 0.61790 0.56850 0.02600
H 	H 	0.86820 0.68050 0.56800 0.02100
C 	C 	0.90350 0.82420 0.26052 0.34700
C 	C 	0.98200 0.88670 0.25541 -0.06800
C 	C 	0.02030 0.92270 0.31565 -0.01600
H 	H 	0.00110 0.90300 0.36040 0.04800
C 	C 	0.01280 0.91380 0.19007 -0.01700
H 	H 	0.98920 0.88670 0.14910 0.04700
O 	O 	0.78481 0.87939 0.70542 -0.39100
O 	O 	0.81834 0.86591 0.81904 -0.38900
C 	C 	0.69420 0.82570 0.97130 -0.01100
H 	H 	0.63200 0.81930 0.95410 0.02200
H 	H 	0.71840 0.88320 0.95370 0.02100
C 	C 	0.69450 0.82610 0.05100 -0.01400
H 	H 	0.71920 0.88370 0.06800 -0.00300
H 	H 	0.63230 0.82060 0.06840 -0.00300
C 	C 	0.66500 0.78700 0.05230 -0.02100
H 	H 	0.65710 0.84890 0.06970 0.01900
H 	H 	0.75040 0.88570 0.06960 0.02100
C 	C 	0.71250 0.66440 0.97280 -0.02100
H 	H 	0.75130 0.88660 0.95570 0.00500
H 	H 	0.65650 0.84960 0.95590 0.00500
C 	C 	0.84280 0.76120 0.97150 -0.01700
H 	H 	0.68180 0.86810 0.95380 0.01500
H 	H 	0.61920 0.78850 0.95440 0.01600
C 	C 	0.73800 0.84330 0.05120 -0.01300
H 	H 	0.61790 0.78690 0.06850 0.02600
H 	H 	0.68050 0.86820 0.06800 0.02100
C 	C 	0.82420 0.90350 0.76052 0.34600
C 	C 	0.88670 0.98200 0.75541 -0.06700
C 	C 	0.92270 0.02030 0.81565 -0.01800
H 	H 	0.90300 0.00110 0.86040 0.04800
C 	C 	0.91380 0.01280 0.69007 -0.01800
H 	H 	0.88670 0.98920 0.64910 0.04700
O 	O 	0.71519 0.62061 0.70542 -0.39100
O 	O 	0.68166 0.63409 0.81904 -0.38900
C 	C 	0.80580 0.67430 0.97130 -0.01100
H 	H 	0.86800 0.68070 0.95410 0.02200
H 	H 	0.78160 0.61680 0.95370 0.02100
C 	C 	0.80550 0.67390 0.05100 -0.01400
H 	H 	0.78080 0.61630 0.06800 -0.00300
H 	H 	0.86770 0.67940 0.06840 -0.00300
C 	C 	0.83500 0.71300 0.05230 -0.02100
H 	H 	0.84290 0.65110 0.06970 0.01900
H 	H 	0.74960 0.61430 0.06960 0.02100
C 	C 	0.78750 0.83560 0.97280 -0.02100
H 	H 	0.74870 0.61340 0.95570 0.00500
H 	H 	0.84350 0.65040 0.95590 0.00500
C 	C 	0.65720 0.73880 0.97150 -0.01700
H 	H 	0.81820 0.63190 0.95380 0.01500
H 	H 	0.88080 0.71150 0.95440 0.01600
C 	C 	0.76200 0.65670 0.05120 -0.01300
H 	H 	0.88210 0.71310 0.06850 0.02600
H 	H 	0.81950 0.63180 0.06800 0.02100
C 	C 	0.67580 0.59650 0.76052 0.34700
C 	C 	0.61330 0.51800 0.75541 -0.06800
C 	C 	0.57730 0.47970 0.81565 -0.01700
H 	H 	0.59700 0.49890 0.86040 0.04800
C 	C 	0.58620 0.48720 0.69007 -0.01700
H 	H 	0.61330 0.51080 0.64910 0.04700
O 	O 	0.62061 0.78481 0.70542 -0.39100
O 	O 	0.63409 0.81834 0.81904 -0.38900
C 	C 	0.67430 0.69420 0.97130 -0.01100
H 	H 	0.68070 0.63200 0.95410 0.02200
H 	H 	0.61680 0.71840 0.95370 0.02100
C 	C 	0.67390 0.69450 0.05100 -0.01400
H 	H 	0.61630 0.71920 0.06800 -0.00300
H 	H 	0.67940 0.63230 0.06840 -0.00300
C 	C 	0.71300 0.66500 0.05230 -0.02100
H 	H 	0.65110 0.65710 0.06970 0.01900
H 	H 	0.61430 0.75040 0.06960 0.02100
C 	C 	0.83560 0.71250 0.97280 -0.02100
H 	H 	0.61340 0.75130 0.95570 0.00500
H 	H 	0.65040 0.65650 0.95590 0.00500
C 	C 	0.73880 0.84280 0.97150 -0.01700
H 	H 	0.63190 0.68180 0.95380 0.01500
H 	H 	0.71150 0.61920 0.95440 0.01600
C 	C 	0.65670 0.73800 0.05120 -0.01300
H 	H 	0.71310 0.61790 0.06850 0.02600
H 	H 	0.63180 0.68050 0.06800 0.02100
C 	C 	0.59650 0.82420 0.76052 0.34700
C 	C 	0.51800 0.88670 0.75541 -0.06800
C 	C 	0.47970 0.92270 0.81565 -0.01700
H 	H 	0.49890 0.90300 0.86040 0.04800
C 	C 	0.48720 0.91380 0.69007 -0.01700
H 	H 	0.51080 0.88670 0.64910 0.04700
O 	O 	0.87939 0.71519 0.70542 -0.39100
O 	O 	0.86591 0.68166 0.81904 -0.38900
C 	C 	0.82570 0.80580 0.97130 -0.01100
H 	H 	0.81930 0.86800 0.95410 0.02200
H 	H 	0.88320 0.78160 0.95370 0.02100
C 	C 	0.82610 0.80550 0.05100 -0.01400
H 	H 	0.88370 0.78080 0.06800 -0.00300
H 	H 	0.82060 0.86770 0.06840 -0.00300
C 	C 	0.78700 0.83500 0.05230 -0.02100
H 	H 	0.84890 0.84290 0.06970 0.01900
H 	H 	0.88570 0.74960 0.06960 0.02100
C 	C 	0.66440 0.78750 0.97280 -0.02100
H 	H 	0.88660 0.74870 0.95570 0.00500
H 	H 	0.84960 0.84350 0.95590 0.00500
C 	C 	0.76120 0.65720 0.97150 -0.01700
H 	H 	0.86810 0.81820 0.95380 0.01500
H 	H 	0.78850 0.88080 0.95440 0.01600
C 	C 	0.84330 0.76200 0.05120 -0.01300
H 	H 	0.78690 0.88210 0.06850 0.02600
H 	H 	0.86820 0.81950 0.06800 0.02100
C 	C 	0.90350 0.67580 0.76052 0.34700
C 	C 	0.98200 0.61330 0.75541 -0.06700
C 	C 	0.02030 0.57730 0.81565 -0.01700
H 	H 	0.00110 0.59700 0.86040 0.04800
C 	C 	0.01280 0.58620 0.69007 -0.01700
H 	H 	0.98920 0.61330 0.64910 0.04700
O 	O 	0.21519 0.37939 0.79458 -0.39100
O 	O 	0.18166 0.36591 0.68096 -0.38900
C 	C 	0.30580 0.32570 0.52870 -0.01100
H 	H 	0.36800 0.31930 0.54590 0.02200
H 	H 	0.28160 0.38320 0.54630 0.02100
C 	C 	0.30550 0.32610 0.44900 -0.01400
H 	H 	0.28080 0.38370 0.43200 -0.00300
H 	H 	0.36770 0.32060 0.43160 -0.00300
C 	C 	0.33500 0.28700 0.44770 -0.02100
H 	H 	0.34290 0.34890 0.43030 0.01900
H 	H 	0.24960 0.38570 0.43040 0.02100
C 	C 	0.28750 0.16440 0.52720 -0.02100
H 	H 	0.24870 0.38660 0.54430 0.00500
H 	H 	0.34350 0.34960 0.54410 0.00500
C 	C 	0.15720 0.26120 0.52850 -0.01700
H 	H 	0.31820 0.36810 0.54620 0.01500
H 	H 	0.38080 0.28850 0.54560 0.01600
C 	C 	0.26200 0.34330 0.44880 -0.01300
H 	H 	0.38210 0.28690 0.43150 0.02600
H 	H 	0.31950 0.36820 0.43200 0.02100
C 	C 	0.17580 0.40350 0.73948 0.34700
C 	C 	0.11330 0.48200 0.74459 -0.06800
C 	C 	0.07730 0.52030 0.68435 -0.01600
H 	H 	0.09700 0.50110 0.63960 0.04800
C 	C 	0.08620 0.51280 0.80993 -0.01600
H 	H 	0.11330 0.48920 0.85090 0.04600
O 	O 	0.28481 0.12061 0.79458 -0.39100
O 	O 	0.31834 0.13409 0.68096 -0.38900
C 	C 	0.19420 0.17430 0.52870 -0.01100
H 	H 	0.13200 0.18070 0.54590 0.02200
H 	H 	0.21840 0.11680 0.54630 0.02100
C 	C 	0.19450 0.17390 0.44900 -0.01400
H 	H 	0.21920 0.11630 0.43200 -0.00300
H 	H 	0.13230 0.17940 0.43160 -0.00300
C 	C 	0.16500 0.21300 0.44770 -0.02100
H 	H 	0.15710 0.15110 0.43030 0.01900
H 	H 	0.25040 0.11430 0.43040 0.02100
C 	C 	0.21250 0.33560 0.52720 -0.02100
H 	H 	0.25130 0.11340 0.54430 0.00500
H 	H 	0.15650 0.15040 0.54410 0.00500
C 	C 	0.34280 0.23880 0.52850 -0.01700
H 	H 	0.18180 0.13190 0.54620 0.01500
H 	H 	0.11920 0.21150 0.54560 0.01600
C 	C 	0.23800 0.15670 0.44880 -0.01300
H 	H 	0.11790 0.21310 0.43150 0.02600
H 	H 	0.18050 0.13180 0.43200 0.02100
C 	C 	0.32420 0.09650 0.73948 0.34700
C 	C 	0.38670 0.01800 0.74459 -0.06800
C 	C 	0.42270 0.97970 0.68435 -0.01700
H 	H 	0.40300 0.99890 0.63960 0.04800
C 	C 	0.41380 0.98720 0.80993 -0.01700
H 	H 	0.38670 0.01080 0.85090 0.04600
O 	O 	0.37939 0.28481 0.79458 -0.39100
O 	O 	0.36591 0.31834 0.68096 -0.38900
C 	C 	0.32570 0.19420 0.52870 -0.01100
H 	H 	0.31930 0.13200 0.54590 0.02200
H 	H 	0.38320 0.21840 0.54630 0.02100
C 	C 	0.32610 0.19450 0.44900 -0.01400
H 	H 	0.38370 0.21920 0.43200 -0.00300
H 	H 	0.32060 0.13230 0.43160 -0.00300
C 	C 	0.28700 0.16500 0.44770 -0.02100
H 	H 	0.34890 0.15710 0.43030 0.01900
H 	H 	0.38570 0.25040 0.43040 0.02100
C 	C 	0.16440 0.21250 0.52720 -0.02100
H 	H 	0.38660 0.25130 0.54430 0.00500
H 	H 	0.34960 0.15650 0.54410 0.00500
C 	C 	0.26120 0.34280 0.52850 -0.01700
H 	H 	0.36810 0.18180 0.54620 0.01500
H 	H 	0.28850 0.11920 0.54560 0.01600
C 	C 	0.34330 0.23800 0.44880 -0.01300
H 	H 	0.28690 0.11790 0.43150 0.02600
H 	H 	0.36820 0.18050 0.43200 0.02100
C 	C 	0.40350 0.32420 0.73948 0.34700
C 	C 	0.48200 0.38670 0.74459 -0.06800
C 	C 	0.52030 0.42270 0.68435 -0.01700
H 	H 	0.50110 0.40300 0.63960 0.04800
C 	C 	0.51280 0.41380 0.80993 -0.01700
H 	H 	0.48920 0.38670 0.85090 0.04700
O 	O 	0.12061 0.21519 0.79458 -0.39100
O 	O 	0.13409 0.18166 0.68096 -0.38900
C 	C 	0.17430 0.30580 0.52870 -0.01100
H 	H 	0.18070 0.36800 0.54590 0.02200
H 	H 	0.11680 0.28160 0.54630 0.02100
C 	C 	0.17390 0.30550 0.44900 -0.01400
H 	H 	0.11630 0.28080 0.43200 -0.00300
H 	H 	0.17940 0.36770 0.43160 -0.00300
C 	C 	0.21300 0.33500 0.44770 -0.02100
H 	H 	0.15110 0.34290 0.43030 0.01900
H 	H 	0.11430 0.24960 0.43040 0.02100
C 	C 	0.33560 0.28750 0.52720 -0.02100
H 	H 	0.11340 0.24870 0.54430 0.00500
H 	H 	0.15040 0.34350 0.54410 0.00500
C 	C 	0.23880 0.15720 0.52850 -0.01700
H 	H 	0.13190 0.31820 0.54620 0.01500
H 	H 	0.21150 0.38080 0.54560 0.01600
C 	C 	0.15670 0.26200 0.44880 -0.01300
H 	H 	0.21310 0.38210 0.43150 0.02600
H 	H 	0.13180 0.31950 0.43200 0.02100
C 	C 	0.09650 0.17580 0.73948 0.34700
C 	C 	0.01800 0.11330 0.74459 -0.06800
C 	C 	0.97970 0.07730 0.68435 -0.01600
H 	H 	0.99890 0.09700 0.63960 0.04800
C 	C 	0.98720 0.08620 0.80993 -0.01700
H 	H 	0.01080 0.11330 0.85090 0.04700
Cu	Cu	0.25000 0.25000 0.16183 0.91100
Cu	Cu	0.25000 0.25000 0.31476 0.91000
N 	N 	0.25000 0.25000 0.05540 -0.15900
N 	N 	0.25000 0.25000 0.92070 -0.16100
Cu	Cu	0.75000 0.75000 0.33817 0.91100
Cu	Cu	0.75000 0.75000 0.18524 0.91000
N 	N 	0.75000 0.75000 0.44460 -0.15900
N 	N 	0.75000 0.75000 0.57930 -0.16100
Cu	Cu	0.75000 0.75000 0.83817 0.91100
Cu	Cu	0.75000 0.75000 0.68524 0.91000
N 	N 	0.75000 0.75000 0.94460 -0.15900
N 	N 	0.75000 0.75000 0.07930 -0.16100
Cu	Cu	0.25000 0.25000 0.66183 0.91100
Cu	Cu	0.25000 0.25000 0.81476 0.91000
N 	N 	0.25000 0.25000 0.55540 -0.15900
N 	N 	0.25000 0.25000 0.42070 -0.16100
