data_crystal

_cell_length_a 14.93440
_cell_length_b 14.93440
_cell_length_c 19.13320
_cell_angle_alpha 90.00000
_cell_angle_beta  90.00000
_cell_angle_gamma 90.00000

_symmetry_space_group_name_	'P 1'
_symmetry_space_group_name_H-M	'P 1'

loop_
_symmetry_equiv_pos_as_xyz
  x,y,z

loop_
_atom_site_label
_atom_site_type_symbol
_atom_site_fract_x
_atom_site_fract_y
_atom_site_fract_z
_atom_site_charge
O 	O 	0.21583 0.12053 0.29456 -0.39000
O 	O 	0.18176 0.13385 0.18088 -0.38800
C 	C 	0.30740 0.17560 0.02840 -0.00800
H 	H 	0.36930 0.18330 0.04580 -0.04000
H 	H 	0.28430 0.11770 0.04610 -0.04100
C 	C 	0.30750 0.17480 0.94900 -0.01200
H 	H 	0.28420 0.11670 0.93190 -0.02900
H 	H 	0.36960 0.18190 0.93160 -0.03000
C 	C 	0.33530 0.21400 0.94800 -0.02400
H 	H 	0.34380 0.15220 0.93050 0.02600
H 	H 	0.25100 0.11450 0.93070 0.03300
C 	C 	0.28630 0.33560 0.02700 -0.02300
H 	H 	0.25040 0.11380 0.04420 0.04000
H 	H 	0.34420 0.15170 0.04410 0.03200
C 	C 	0.15800 0.23600 0.02790 -0.01900
H 	H 	0.32200 0.13470 0.04520 0.03900
H 	H 	0.38160 0.21590 0.04550 0.04900
C 	C 	0.26380 0.15750 0.94890 -0.01800
H 	H 	0.38210 0.21530 0.93190 0.03800
H 	H 	0.32150 0.13360 0.93160 0.03000
C 	C 	0.17570 0.09630 0.23950 0.34400
C 	C 	0.11360 0.01800 0.24460 -0.06700
C 	C 	0.07740 0.97960 0.18450 -0.01700
H 	H 	0.09730 0.99870 0.13970 0.04800
C 	C 	0.08610 0.98730 0.31010 -0.01800
H 	H 	0.11280 0.01110 0.35120 0.04700
O 	O 	0.28417 0.37947 0.29456 -0.38900
O 	O 	0.31824 0.36615 0.18088 -0.38700
C 	C 	0.19260 0.32440 0.02840 -0.00700
H 	H 	0.13070 0.31670 0.04580 -0.03900
H 	H 	0.21570 0.38230 0.04610 -0.04000
C 	C 	0.19250 0.32520 0.94900 -0.01100
H 	H 	0.21580 0.38330 0.93190 -0.02800
H 	H 	0.13040 0.31810 0.93160 -0.02900
C 	C 	0.16470 0.28600 0.94800 -0.02300
H 	H 	0.15620 0.34780 0.93050 0.02700
H 	H 	0.24900 0.38550 0.93070 0.03400
C 	C 	0.21370 0.16440 0.02700 -0.02200
H 	H 	0.24960 0.38620 0.04420 0.04100
H 	H 	0.15580 0.34830 0.04410 0.03300
C 	C 	0.34200 0.26400 0.02790 -0.01900
H 	H 	0.17800 0.36530 0.04520 0.03900
H 	H 	0.11840 0.28410 0.04550 0.04900
C 	C 	0.23620 0.34250 0.94890 -0.01800
H 	H 	0.11790 0.28470 0.93190 0.03800
H 	H 	0.17850 0.36640 0.93160 0.03000
C 	C 	0.32430 0.40370 0.23950 0.34400
C 	C 	0.38640 0.48200 0.24460 -0.06800
C 	C 	0.42260 0.52040 0.18450 -0.01600
H 	H 	0.40270 0.50130 0.13970 0.04800
C 	C 	0.41390 0.51270 0.31010 -0.01700
H 	H 	0.38720 0.48890 0.35120 0.04700
O 	O 	0.37947 0.21583 0.29456 -0.38900
O 	O 	0.36615 0.18176 0.18088 -0.38700
C 	C 	0.32440 0.30740 0.02840 -0.00700
H 	H 	0.31670 0.36930 0.04580 -0.03900
H 	H 	0.38230 0.28430 0.04610 -0.04000
C 	C 	0.32520 0.30750 0.94900 -0.01100
H 	H 	0.38330 0.28420 0.93190 -0.02800
H 	H 	0.31810 0.36960 0.93160 -0.02900
C 	C 	0.28600 0.33530 0.94800 -0.02300
H 	H 	0.34780 0.34380 0.93050 0.02700
H 	H 	0.38550 0.25100 0.93070 0.03400
C 	C 	0.16440 0.28630 0.02700 -0.02200
H 	H 	0.38620 0.25040 0.04420 0.04100
H 	H 	0.34830 0.34420 0.04410 0.03300
C 	C 	0.26400 0.15800 0.02790 -0.01800
H 	H 	0.36530 0.32200 0.04520 0.03900
H 	H 	0.28410 0.38160 0.04550 0.04900
C 	C 	0.34250 0.26380 0.94890 -0.01800
H 	H 	0.28470 0.38210 0.93190 0.03800
H 	H 	0.36640 0.32150 0.93160 0.03000
C 	C 	0.40370 0.17570 0.23950 0.34400
C 	C 	0.48200 0.11360 0.24460 -0.06800
C 	C 	0.52040 0.07740 0.18450 -0.01600
H 	H 	0.50130 0.09730 0.13970 0.04800
C 	C 	0.51270 0.08610 0.31010 -0.01700
H 	H 	0.48890 0.11280 0.35120 0.04700
O 	O 	0.12053 0.28417 0.29456 -0.38900
O 	O 	0.13385 0.31824 0.18088 -0.38700
C 	C 	0.17560 0.19260 0.02840 -0.00700
H 	H 	0.18330 0.13070 0.04580 -0.03900
H 	H 	0.11770 0.21570 0.04610 -0.04000
C 	C 	0.17480 0.19250 0.94900 -0.01100
H 	H 	0.11670 0.21580 0.93190 -0.02800
H 	H 	0.18190 0.13040 0.93160 -0.02900
C 	C 	0.21400 0.16470 0.94800 -0.02300
H 	H 	0.15220 0.15620 0.93050 0.02700
H 	H 	0.11450 0.24900 0.93070 0.03400
C 	C 	0.33560 0.21370 0.02700 -0.02200
H 	H 	0.11380 0.24960 0.04420 0.04100
H 	H 	0.15170 0.15580 0.04410 0.03300
C 	C 	0.23600 0.34200 0.02790 -0.01800
H 	H 	0.13470 0.17800 0.04520 0.03900
H 	H 	0.21590 0.11840 0.04550 0.04900
C 	C 	0.15750 0.23620 0.94890 -0.01800
H 	H 	0.21530 0.11790 0.93190 0.03800
H 	H 	0.13360 0.17850 0.93160 0.03000
C 	C 	0.09630 0.32430 0.23950 0.34400
C 	C 	0.01800 0.38640 0.24460 -0.06700
C 	C 	0.97960 0.42260 0.18450 -0.01700
H 	H 	0.99870 0.40270 0.13970 0.04800
C 	C 	0.98730 0.41390 0.31010 -0.01800
H 	H 	0.01110 0.38720 0.35120 0.04700
O 	O 	0.78417 0.62053 0.20544 -0.38900
O 	O 	0.81824 0.63385 0.31912 -0.38700
C 	C 	0.69260 0.67560 0.47160 -0.00700
H 	H 	0.63070 0.68330 0.45420 -0.04000
H 	H 	0.71570 0.61770 0.45390 -0.04000
C 	C 	0.69250 0.67480 0.55100 -0.01100
H 	H 	0.71580 0.61670 0.56810 -0.02700
H 	H 	0.63040 0.68190 0.56840 -0.02900
C 	C 	0.66470 0.71400 0.55200 -0.02300
H 	H 	0.65620 0.65220 0.56950 0.02700
H 	H 	0.74900 0.61450 0.56930 0.03300
C 	C 	0.71370 0.83560 0.47300 -0.02200
H 	H 	0.74960 0.61380 0.45580 0.04100
H 	H 	0.65580 0.65170 0.45590 0.03300
C 	C 	0.84200 0.73600 0.47210 -0.01800
H 	H 	0.67800 0.63470 0.45480 0.03900
H 	H 	0.61840 0.71590 0.45450 0.04900
C 	C 	0.73620 0.65750 0.55110 -0.01800
H 	H 	0.61790 0.71530 0.56810 0.03800
H 	H 	0.67850 0.63360 0.56840 0.03000
C 	C 	0.82430 0.59630 0.26050 0.34400
C 	C 	0.88640 0.51800 0.25540 -0.06800
C 	C 	0.92260 0.47960 0.31550 -0.01600
H 	H 	0.90270 0.49870 0.36030 0.04800
C 	C 	0.91390 0.48730 0.18990 -0.01700
H 	H 	0.88720 0.51110 0.14880 0.04600
O 	O 	0.71583 0.87947 0.20544 -0.38900
O 	O 	0.68176 0.86615 0.31912 -0.38700
C 	C 	0.80740 0.82440 0.47160 -0.00700
H 	H 	0.86930 0.81670 0.45420 -0.04000
H 	H 	0.78430 0.88230 0.45390 -0.04000
C 	C 	0.80750 0.82520 0.55100 -0.01100
H 	H 	0.78420 0.88330 0.56810 -0.02700
H 	H 	0.86960 0.81810 0.56840 -0.02900
C 	C 	0.83530 0.78600 0.55200 -0.02300
H 	H 	0.84380 0.84780 0.56950 0.02700
H 	H 	0.75100 0.88550 0.56930 0.03300
C 	C 	0.78630 0.66440 0.47300 -0.02200
H 	H 	0.75040 0.88620 0.45580 0.04100
H 	H 	0.84420 0.84830 0.45590 0.03300
C 	C 	0.65800 0.76400 0.47210 -0.01800
H 	H 	0.82200 0.86530 0.45480 0.03900
H 	H 	0.88160 0.78410 0.45450 0.04900
C 	C 	0.76380 0.84250 0.55110 -0.01800
H 	H 	0.88210 0.78470 0.56810 0.03800
H 	H 	0.82150 0.86640 0.56840 0.03000
C 	C 	0.67570 0.90370 0.26050 0.34400
C 	C 	0.61360 0.98200 0.25540 -0.06800
C 	C 	0.57740 0.02040 0.31550 -0.01600
H 	H 	0.59730 0.00130 0.36030 0.04800
C 	C 	0.58610 0.01270 0.18990 -0.01700
H 	H 	0.61280 0.98890 0.14880 0.04600
O 	O 	0.62053 0.71583 0.20544 -0.38900
O 	O 	0.63385 0.68176 0.31912 -0.38700
C 	C 	0.67560 0.80740 0.47160 -0.00700
H 	H 	0.68330 0.86930 0.45420 -0.04000
H 	H 	0.61770 0.78430 0.45390 -0.04000
C 	C 	0.67480 0.80750 0.55100 -0.01100
H 	H 	0.61670 0.78420 0.56810 -0.02700
H 	H 	0.68190 0.86960 0.56840 -0.02900
C 	C 	0.71400 0.83530 0.55200 -0.02300
H 	H 	0.65220 0.84380 0.56950 0.02700
H 	H 	0.61450 0.75100 0.56930 0.03300
C 	C 	0.83560 0.78630 0.47300 -0.02200
H 	H 	0.61380 0.75040 0.45580 0.04100
H 	H 	0.65170 0.84420 0.45590 0.03300
C 	C 	0.73600 0.65800 0.47210 -0.01800
H 	H 	0.63470 0.82200 0.45480 0.03900
H 	H 	0.71590 0.88160 0.45450 0.04900
C 	C 	0.65750 0.76380 0.55110 -0.01800
H 	H 	0.71530 0.88210 0.56810 0.03800
H 	H 	0.63360 0.82150 0.56840 0.03000
C 	C 	0.59630 0.67570 0.26050 0.34400
C 	C 	0.51800 0.61360 0.25540 -0.06800
C 	C 	0.47960 0.57740 0.31550 -0.01600
H 	H 	0.49870 0.59730 0.36030 0.04800
C 	C 	0.48730 0.58610 0.18990 -0.01700
H 	H 	0.51110 0.61280 0.14880 0.04700
O 	O 	0.87947 0.78417 0.20544 -0.38900
O 	O 	0.86615 0.81824 0.31912 -0.38700
C 	C 	0.82440 0.69260 0.47160 -0.00700
H 	H 	0.81670 0.63070 0.45420 -0.04000
H 	H 	0.88230 0.71570 0.45390 -0.04000
C 	C 	0.82520 0.69250 0.55100 -0.01100
H 	H 	0.88330 0.71580 0.56810 -0.02700
H 	H 	0.81810 0.63040 0.56840 -0.02900
C 	C 	0.78600 0.66470 0.55200 -0.02300
H 	H 	0.84780 0.65620 0.56950 0.02700
H 	H 	0.88550 0.74900 0.56930 0.03300
C 	C 	0.66440 0.71370 0.47300 -0.02200
H 	H 	0.88620 0.74960 0.45580 0.04100
H 	H 	0.84830 0.65580 0.45590 0.03300
C 	C 	0.76400 0.84200 0.47210 -0.01800
H 	H 	0.86530 0.67800 0.45480 0.03900
H 	H 	0.78410 0.61840 0.45450 0.04900
C 	C 	0.84250 0.73620 0.55110 -0.01800
H 	H 	0.78470 0.61790 0.56810 0.03800
H 	H 	0.86640 0.67850 0.56840 0.03000
C 	C 	0.90370 0.82430 0.26050 0.34400
C 	C 	0.98200 0.88640 0.25540 -0.06800
C 	C 	0.02040 0.92260 0.31550 -0.01600
H 	H 	0.00130 0.90270 0.36030 0.04800
C 	C 	0.01270 0.91390 0.18990 -0.01700
H 	H 	0.98890 0.88720 0.14880 0.04700
O 	O 	0.78417 0.87947 0.70544 -0.44600
O 	O 	0.81824 0.86615 0.81912 -0.39800
C 	C 	0.69260 0.82440 0.97160 -0.00800
H 	H 	0.63070 0.81670 0.95420 -0.04200
H 	H 	0.71570 0.88230 0.95390 -0.04300
C 	C 	0.69250 0.82520 0.05100 -0.01000
H 	H 	0.71580 0.88330 0.06810 -0.01200
H 	H 	0.63040 0.81810 0.06840 -0.01200
C 	C 	0.66470 0.78600 0.05200 -0.02300
H 	H 	0.65620 0.84780 0.06950 0.02200
H 	H 	0.74900 0.88550 0.06930 0.02700
C 	C 	0.71370 0.66440 0.97300 -0.02200
H 	H 	0.74960 0.88620 0.95580 0.04200
H 	H 	0.65580 0.84830 0.95590 0.03400
C 	C 	0.84200 0.76400 0.97210 -0.01900
H 	H 	0.67800 0.86530 0.95480 0.04000
H 	H 	0.61840 0.78410 0.95450 0.05000
C 	C 	0.73620 0.84250 0.05110 -0.01700
H 	H 	0.61790 0.78470 0.06810 0.03100
H 	H 	0.67850 0.86640 0.06840 0.02500
C 	C 	0.82430 0.90370 0.76050 0.35600
C 	C 	0.88640 0.98200 0.75540 -0.07100
C 	C 	0.92260 0.02040 0.81550 -0.01600
H 	H 	0.90270 0.00130 0.86030 0.04800
C 	C 	0.91390 0.01270 0.68990 -0.01700
H 	H 	0.88720 0.98890 0.64880 0.04700
O 	O 	0.71583 0.62053 0.70544 -0.44600
O 	O 	0.68176 0.63385 0.81912 -0.39800
C 	C 	0.80740 0.67560 0.97160 -0.00800
H 	H 	0.86930 0.68330 0.95420 -0.04200
H 	H 	0.78430 0.61770 0.95390 -0.04300
C 	C 	0.80750 0.67480 0.05100 -0.01000
H 	H 	0.78420 0.61670 0.06810 -0.01200
H 	H 	0.86960 0.68190 0.06840 -0.01200
C 	C 	0.83530 0.71400 0.05200 -0.02300
H 	H 	0.84380 0.65220 0.06950 0.02200
H 	H 	0.75100 0.61450 0.06930 0.02700
C 	C 	0.78630 0.83560 0.97300 -0.02200
H 	H 	0.75040 0.61380 0.95580 0.04200
H 	H 	0.84420 0.65170 0.95590 0.03400
C 	C 	0.65800 0.73600 0.97210 -0.01900
H 	H 	0.82200 0.63470 0.95480 0.04000
H 	H 	0.88160 0.71590 0.95450 0.05000
C 	C 	0.76380 0.65750 0.05110 -0.01700
H 	H 	0.88210 0.71530 0.06810 0.03100
H 	H 	0.82150 0.63360 0.06840 0.02500
C 	C 	0.67570 0.59630 0.76050 0.35700
C 	C 	0.61360 0.51800 0.75540 -0.07200
C 	C 	0.57740 0.47960 0.81550 -0.01500
H 	H 	0.59730 0.49870 0.86030 0.04800
C 	C 	0.58610 0.48730 0.68990 -0.01500
H 	H 	0.61280 0.51110 0.64880 0.04600
O 	O 	0.62053 0.78417 0.70544 -0.44600
O 	O 	0.63385 0.81824 0.81912 -0.39800
C 	C 	0.67560 0.69260 0.97160 -0.00800
H 	H 	0.68330 0.63070 0.95420 -0.04200
H 	H 	0.61770 0.71570 0.95390 -0.04300
C 	C 	0.67480 0.69250 0.05100 -0.01000
H 	H 	0.61670 0.71580 0.06810 -0.01200
H 	H 	0.68190 0.63040 0.06840 -0.01200
C 	C 	0.71400 0.66470 0.05200 -0.02300
H 	H 	0.65220 0.65620 0.06950 0.02200
H 	H 	0.61450 0.74900 0.06930 0.02700
C 	C 	0.83560 0.71370 0.97300 -0.02200
H 	H 	0.61380 0.74960 0.95580 0.04200
H 	H 	0.65170 0.65580 0.95590 0.03400
C 	C 	0.73600 0.84200 0.97210 -0.01900
H 	H 	0.63470 0.67800 0.95480 0.04000
H 	H 	0.71590 0.61840 0.95450 0.05000
C 	C 	0.65750 0.73620 0.05110 -0.01700
H 	H 	0.71530 0.61790 0.06810 0.03100
H 	H 	0.63360 0.67850 0.06840 0.02500
C 	C 	0.59630 0.82430 0.76050 0.35700
C 	C 	0.51800 0.88640 0.75540 -0.07200
C 	C 	0.47960 0.92260 0.81550 -0.01500
H 	H 	0.49870 0.90270 0.86030 0.04800
C 	C 	0.48730 0.91390 0.68990 -0.01600
H 	H 	0.51110 0.88720 0.64880 0.04600
O 	O 	0.87947 0.71583 0.70544 -0.44600
O 	O 	0.86615 0.68176 0.81912 -0.39800
C 	C 	0.82440 0.80740 0.97160 -0.00800
H 	H 	0.81670 0.86930 0.95420 -0.04200
H 	H 	0.88230 0.78430 0.95390 -0.04300
C 	C 	0.82520 0.80750 0.05100 -0.01000
H 	H 	0.88330 0.78420 0.06810 -0.01200
H 	H 	0.81810 0.86960 0.06840 -0.01200
C 	C 	0.78600 0.83530 0.05200 -0.02300
H 	H 	0.84780 0.84380 0.06950 0.02200
H 	H 	0.88550 0.75100 0.06930 0.02700
C 	C 	0.66440 0.78630 0.97300 -0.02200
H 	H 	0.88620 0.75040 0.95580 0.04200
H 	H 	0.84830 0.84420 0.95590 0.03400
C 	C 	0.76400 0.65800 0.97210 -0.01900
H 	H 	0.86530 0.82200 0.95480 0.04000
H 	H 	0.78410 0.88160 0.95450 0.05000
C 	C 	0.84250 0.76380 0.05110 -0.01700
H 	H 	0.78470 0.88210 0.06810 0.03100
H 	H 	0.86640 0.82150 0.06840 0.02500
C 	C 	0.90370 0.67570 0.76050 0.35700
C 	C 	0.98200 0.61360 0.75540 -0.07100
C 	C 	0.02040 0.57740 0.81550 -0.01500
H 	H 	0.00130 0.59730 0.86030 0.04800
C 	C 	0.01270 0.58610 0.68990 -0.01600
H 	H 	0.98890 0.61280 0.64880 0.04600
O 	O 	0.21583 0.37947 0.79456 -0.44600
O 	O 	0.18176 0.36615 0.68088 -0.39800
C 	C 	0.30740 0.32440 0.52840 -0.00800
H 	H 	0.36930 0.31670 0.54580 -0.04100
H 	H 	0.28430 0.38230 0.54610 -0.04200
C 	C 	0.30750 0.32520 0.44900 -0.01000
H 	H 	0.28420 0.38330 0.43190 -0.01300
H 	H 	0.36960 0.31810 0.43160 -0.01300
C 	C 	0.33530 0.28600 0.44800 -0.02200
H 	H 	0.34380 0.34780 0.43050 0.02200
H 	H 	0.25100 0.38550 0.43070 0.02700
C 	C 	0.28630 0.16440 0.52700 -0.02200
H 	H 	0.25040 0.38620 0.54420 0.04200
H 	H 	0.34420 0.34830 0.54410 0.03400
C 	C 	0.15800 0.26400 0.52790 -0.01900
H 	H 	0.32200 0.36530 0.54520 0.04000
H 	H 	0.38160 0.28410 0.54550 0.05000
C 	C 	0.26380 0.34250 0.44890 -0.01700
H 	H 	0.38210 0.28470 0.43190 0.03100
H 	H 	0.32150 0.36640 0.43160 0.02500
C 	C 	0.17570 0.40370 0.73950 0.35700
C 	C 	0.11360 0.48200 0.74460 -0.07200
C 	C 	0.07740 0.52040 0.68450 -0.01500
H 	H 	0.09730 0.50130 0.63970 0.04800
C 	C 	0.08610 0.51270 0.81010 -0.01500
H 	H 	0.11280 0.48890 0.85120 0.04600
O 	O 	0.28417 0.12053 0.79456 -0.44600
O 	O 	0.31824 0.13385 0.68088 -0.39800
C 	C 	0.19260 0.17560 0.52840 -0.00800
H 	H 	0.13070 0.18330 0.54580 -0.04100
H 	H 	0.21570 0.11770 0.54610 -0.04200
C 	C 	0.19250 0.17480 0.44900 -0.01000
H 	H 	0.21580 0.11670 0.43190 -0.01300
H 	H 	0.13040 0.18190 0.43160 -0.01300
C 	C 	0.16470 0.21400 0.44800 -0.02200
H 	H 	0.15620 0.15220 0.43050 0.02200
H 	H 	0.24900 0.11450 0.43070 0.02700
C 	C 	0.21370 0.33560 0.52700 -0.02200
H 	H 	0.24960 0.11380 0.54420 0.04200
H 	H 	0.15580 0.15170 0.54410 0.03400
C 	C 	0.34200 0.23600 0.52790 -0.01900
H 	H 	0.17800 0.13470 0.54520 0.04000
H 	H 	0.11840 0.21590 0.54550 0.05000
C 	C 	0.23620 0.15750 0.44890 -0.01700
H 	H 	0.11790 0.21530 0.43190 0.03100
H 	H 	0.17850 0.13360 0.43160 0.02500
C 	C 	0.32430 0.09630 0.73950 0.35700
C 	C 	0.38640 0.01800 0.74460 -0.07200
C 	C 	0.42260 0.97960 0.68450 -0.01500
H 	H 	0.40270 0.99870 0.63970 0.04800
C 	C 	0.41390 0.98730 0.81010 -0.01500
H 	H 	0.38720 0.01110 0.85120 0.04600
O 	O 	0.37947 0.28417 0.79456 -0.44600
O 	O 	0.36615 0.31824 0.68088 -0.39800
C 	C 	0.32440 0.19260 0.52840 -0.00800
H 	H 	0.31670 0.13070 0.54580 -0.04100
H 	H 	0.38230 0.21570 0.54610 -0.04200
C 	C 	0.32520 0.19250 0.44900 -0.01000
H 	H 	0.38330 0.21580 0.43190 -0.01300
H 	H 	0.31810 0.13040 0.43160 -0.01300
C 	C 	0.28600 0.16470 0.44800 -0.02200
H 	H 	0.34780 0.15620 0.43050 0.02200
H 	H 	0.38550 0.24900 0.43070 0.02700
C 	C 	0.16440 0.21370 0.52700 -0.02200
H 	H 	0.38620 0.24960 0.54420 0.04200
H 	H 	0.34830 0.15580 0.54410 0.03400
C 	C 	0.26400 0.34200 0.52790 -0.01900
H 	H 	0.36530 0.17800 0.54520 0.04000
H 	H 	0.28410 0.11840 0.54550 0.05000
C 	C 	0.34250 0.23620 0.44890 -0.01700
H 	H 	0.28470 0.11790 0.43190 0.03100
H 	H 	0.36640 0.17850 0.43160 0.02500
C 	C 	0.40370 0.32430 0.73950 0.35700
C 	C 	0.48200 0.38640 0.74460 -0.07200
C 	C 	0.52040 0.42260 0.68450 -0.01500
H 	H 	0.50130 0.40270 0.63970 0.04800
C 	C 	0.51270 0.41390 0.81010 -0.01500
H 	H 	0.48890 0.38720 0.85120 0.04600
O 	O 	0.12053 0.21583 0.79456 -0.44600
O 	O 	0.13385 0.18176 0.68088 -0.39800
C 	C 	0.17560 0.30740 0.52840 -0.00800
H 	H 	0.18330 0.36930 0.54580 -0.04100
H 	H 	0.11770 0.28430 0.54610 -0.04200
C 	C 	0.17480 0.30750 0.44900 -0.01000
H 	H 	0.11670 0.28420 0.43190 -0.01300
H 	H 	0.18190 0.36960 0.43160 -0.01300
C 	C 	0.21400 0.33530 0.44800 -0.02200
H 	H 	0.15220 0.34380 0.43050 0.02200
H 	H 	0.11450 0.25100 0.43070 0.02700
C 	C 	0.33560 0.28630 0.52700 -0.02300
H 	H 	0.11380 0.25040 0.54420 0.04200
H 	H 	0.15170 0.34420 0.54410 0.03400
C 	C 	0.23600 0.15800 0.52790 -0.01900
H 	H 	0.13470 0.32200 0.54520 0.04000
H 	H 	0.21590 0.38160 0.54550 0.05000
C 	C 	0.15750 0.26380 0.44890 -0.01700
H 	H 	0.21530 0.38210 0.43190 0.03100
H 	H 	0.13360 0.32150 0.43160 0.02500
C 	C 	0.09630 0.17570 0.73950 0.35700
C 	C 	0.01800 0.11360 0.74460 -0.07200
C 	C 	0.97960 0.07740 0.68450 -0.01500
H 	H 	0.99870 0.09730 0.63970 0.04800
C 	C 	0.98730 0.08610 0.81010 -0.01500
H 	H 	0.01110 0.11280 0.85120 0.04600
Cu	Cu	0.25000 0.25000 0.16175 0.91000
Cu	Cu	0.25000 0.25000 0.31481 0.90900
N 	N 	0.25000 0.25000 0.05480 -0.15700
N 	N 	0.25000 0.25000 0.92130 -0.19600
Zn	Zn	0.25000 0.25000 0.81481 1.21700
Cu	Cu	0.75000 0.75000 0.33825 0.91000
Cu	Cu	0.75000 0.75000 0.18519 0.90900
N 	N 	0.75000 0.75000 0.44520 -0.15700
N 	N 	0.75000 0.75000 0.57870 -0.19600
Zn	Zn	0.75000 0.75000 0.68519 1.21700
Cu	Cu	0.75000 0.75000 0.83825 0.90200
N 	N 	0.75000 0.75000 0.94520 -0.15700
N 	N 	0.75000 0.75000 0.07870 -0.16000
Cu	Cu	0.25000 0.25000 0.66175 0.90200
N 	N 	0.25000 0.25000 0.55480 -0.15700
N 	N 	0.25000 0.25000 0.42130 -0.16000
