data_crystal

_cell_length_a 21.83800
_cell_length_b 21.83800
_cell_length_c 14.72100
_cell_angle_alpha 90.00000
_cell_angle_beta  90.00000
_cell_angle_gamma 90.00000

_symmetry_space_group_name_	'P 1'
_symmetry_space_group_name_H-M	'P 1'

loop_
_symmetry_equiv_pos_as_xyz
  x,y,z

loop_
_atom_site_label
_atom_site_type_symbol
_atom_site_fract_x
_atom_site_fract_y
_atom_site_fract_z
_atom_site_charge
O 	O 	0.20571 0.45209 0.17255 -0.33800
O 	O 	0.29739 0.46005 0.10970 -0.38800
O 	O 	0.13790 0.36298 0.99980 -0.22100
O 	O 	0.15205 0.56523 0.06320 -0.23900
O 	O 	0.81731 0.37960 0.02610 -0.22400
O 	O 	0.82872 0.58661 0.05250 -0.23700
O 	O 	0.77977 0.52405 0.88450 -0.34400
O 	O 	0.68647 0.54251 0.93660 -0.36400
N 	N 	0.14474 0.46702 0.01500 -0.16400
N 	N 	0.82303 0.48292 0.04320 -0.16800
C 	C 	0.23970 0.45854 0.10470 0.26500
C 	C 	0.21230 0.46160 0.01000 0.05300
H 	H 	0.22112 0.42137 0.98040 0.04200
C 	C 	0.24230 0.51120 0.94970 -0.42000
H 	H 	0.28673 0.50523 0.94907 0.15200
H 	H 	0.22631 0.50788 0.88767 0.15300
H 	H 	0.23274 0.55180 0.97417 0.17200
C 	C 	0.11200 0.41150 0.01230 0.21200
C 	C 	0.11920 0.52300 0.04310 0.22400
C 	C 	0.05150 0.52672 0.04410 -0.05100
C 	C 	0.02300 0.58260 0.05480 -0.02600
H 	H 	0.04661 0.61890 0.06051 0.07300
C 	C 	0.95870 0.58542 0.05730 -0.01000
H 	H 	0.93912 0.62388 0.06530 0.06100
C 	C 	0.92383 0.53359 0.04820 -0.05700
C 	C 	0.95182 0.47608 0.03850 0.03500
C 	C 	0.01643 0.47260 0.03410 0.02600
C 	C 	0.04440 0.41544 0.02130 -0.05000
C 	C 	0.00930 0.36300 0.01500 -0.03000
H 	H 	0.02866 0.32442 0.00671 0.04500
C 	C 	0.94570 0.36643 0.02080 -0.01800
H 	H 	0.92194 0.33007 0.01725 0.05000
C 	C 	0.91702 0.42219 0.03160 -0.05500
C 	C 	0.84870 0.42470 0.03360 0.22200
C 	C 	0.85560 0.53760 0.04820 0.22100
C 	C 	0.75470 0.48810 0.03340 0.06400
H 	H 	0.73957 0.44542 0.02325 0.03800
C 	C 	0.72370 0.51010 0.11890 -0.41900
H 	H 	0.72427 0.47742 0.16453 0.14800
H 	H 	0.68123 0.52125 0.10526 0.15000
H 	H 	0.74546 0.54599 0.14255 0.16100
C 	C 	0.74090 0.52306 0.94590 0.26700
O 	O 	0.29429 0.95209 0.57745 -0.33700
O 	O 	0.20261 0.96005 0.64030 -0.38600
O 	O 	0.36210 0.86298 0.75020 -0.22200
O 	O 	0.34795 0.06523 0.68680 -0.23800
O 	O 	0.68269 0.87960 0.72390 -0.22300
O 	O 	0.67128 0.08661 0.69750 -0.23600
O 	O 	0.72023 0.02405 0.86550 -0.34300
O 	O 	0.81353 0.04251 0.81340 -0.36300
N 	N 	0.35526 0.96702 0.73500 -0.16300
N 	N 	0.67697 0.98292 0.70680 -0.16700
C 	C 	0.26030 0.95854 0.64530 0.26500
C 	C 	0.28770 0.96160 0.74000 0.05800
H 	H 	0.27888 0.92137 0.76960 0.04000
C 	C 	0.25770 0.01120 0.80030 -0.42300
H 	H 	0.21327 0.00523 0.80093 0.15200
H 	H 	0.27369 0.00788 0.86233 0.15300
H 	H 	0.26726 0.05180 0.77583 0.17200
C 	C 	0.38800 0.91150 0.73770 0.21400
C 	C 	0.38080 0.02300 0.70690 0.22500
C 	C 	0.44850 0.02672 0.70590 -0.05400
C 	C 	0.47700 0.08260 0.69520 -0.02100
H 	H 	0.45339 0.11890 0.68949 0.07200
C 	C 	0.54130 0.08542 0.69270 -0.01500
H 	H 	0.56088 0.12388 0.68470 0.06200
C 	C 	0.57617 0.03359 0.70180 -0.05500
C 	C 	0.54818 0.97608 0.71150 0.03200
C 	C 	0.48357 0.97260 0.71590 0.03100
C 	C 	0.45560 0.91544 0.72870 -0.05400
C 	C 	0.49070 0.86300 0.73500 -0.02500
H 	H 	0.47134 0.82442 0.74329 0.04400
C 	C 	0.55430 0.86643 0.72920 -0.02300
H 	H 	0.57806 0.83007 0.73275 0.05000
C 	C 	0.58298 0.92219 0.71840 -0.05200
C 	C 	0.65130 0.92470 0.71640 0.22100
C 	C 	0.64440 0.03760 0.70180 0.22000
C 	C 	0.74530 0.98810 0.71660 0.06500
H 	H 	0.76043 0.94542 0.72675 0.03800
C 	C 	0.77630 0.01010 0.63110 -0.42200
H 	H 	0.77573 0.97742 0.58547 0.14900
H 	H 	0.81877 0.02125 0.64474 0.15000
H 	H 	0.75454 0.04599 0.60745 0.16200
C 	C 	0.75910 0.02306 0.80410 0.26600
Cd	Cd	0.20490 0.95069 0.47919 1.20200
N 	N 	0.22710 0.84918 0.45650 -0.24000
N 	N 	0.30199 0.55700 0.28090 -0.23100
C 	C 	0.18390 0.81060 0.42380 0.08000
H 	H 	0.14247 0.82376 0.42316 -0.03000
C 	C 	0.19770 0.75330 0.39150 -0.13100
H 	H 	0.16588 0.72757 0.36932 0.09600
C 	C 	0.25770 0.73270 0.39110 0.06700
C 	C 	0.30140 0.77248 0.42830 -0.12300
H 	H 	0.34306 0.76005 0.43218 0.08000
C 	C 	0.28440 0.82899 0.45890 0.08400
H 	H 	0.31511 0.85517 0.48302 0.01600
C 	C 	0.25073 0.58699 0.25700 0.06500
H 	H 	0.22389 0.56799 0.21480 0.01400
C 	C 	0.23498 0.64361 0.29030 -0.11500
H 	H 	0.19822 0.66312 0.27154 0.09100
C 	C 	0.27460 0.67212 0.35300 0.05700
C 	C 	0.32801 0.64150 0.37680 -0.11800
H 	H 	0.35603 0.65932 0.41846 0.06800
C 	C 	0.33991 0.58471 0.33920 0.07100
H 	H 	0.37679 0.56442 0.35550 -0.02200
Cd	Cd	0.29510 0.45069 0.27081 1.20300
N 	N 	0.27290 0.34918 0.29350 -0.24000
N 	N 	0.19801 0.05700 0.46910 -0.23100
C 	C 	0.31610 0.31060 0.32620 0.08000
H 	H 	0.35753 0.32376 0.32684 -0.03000
C 	C 	0.30230 0.25330 0.35850 -0.13100
H 	H 	0.33412 0.22757 0.38068 0.09600
C 	C 	0.24230 0.23270 0.35890 0.06700
C 	C 	0.19860 0.27248 0.32170 -0.12300
H 	H 	0.15694 0.26005 0.31782 0.08000
C 	C 	0.21560 0.32899 0.29110 0.08300
H 	H 	0.18489 0.35517 0.26698 0.01600
C 	C 	0.24927 0.08699 0.49300 0.06500
H 	H 	0.27611 0.06799 0.53520 0.01400
C 	C 	0.26502 0.14361 0.45970 -0.11500
H 	H 	0.30178 0.16312 0.47846 0.09100
C 	C 	0.22540 0.17212 0.39700 0.05700
C 	C 	0.17199 0.14150 0.37320 -0.11800
H 	H 	0.14397 0.15932 0.33154 0.06800
C 	C 	0.16009 0.08471 0.41080 0.07100
H 	H 	0.12321 0.06442 0.39450 -0.02200
O 	O 	0.79429 0.54791 0.67255 -0.33700
O 	O 	0.70261 0.53995 0.60970 -0.38600
O 	O 	0.86210 0.63702 0.49980 -0.22200
O 	O 	0.84795 0.43477 0.56320 -0.23800
O 	O 	0.18269 0.62040 0.52610 -0.22300
O 	O 	0.17128 0.41339 0.55250 -0.23600
O 	O 	0.22023 0.47595 0.38450 -0.34300
O 	O 	0.31353 0.45749 0.43660 -0.36300
N 	N 	0.85526 0.53298 0.51500 -0.16300
N 	N 	0.17697 0.51708 0.54320 -0.16700
C 	C 	0.76030 0.54146 0.60470 0.26500
C 	C 	0.78770 0.53840 0.51000 0.05700
H 	H 	0.77888 0.57863 0.48040 0.04000
C 	C 	0.75770 0.48880 0.44970 -0.42200
H 	H 	0.71327 0.49477 0.44907 0.15200
H 	H 	0.77369 0.49212 0.38767 0.15300
H 	H 	0.76726 0.44820 0.47417 0.17200
C 	C 	0.88800 0.58850 0.51230 0.21400
C 	C 	0.88080 0.47700 0.54310 0.22500
C 	C 	0.94850 0.47328 0.54410 -0.05300
C 	C 	0.97700 0.41740 0.55480 -0.02200
H 	H 	0.95339 0.38110 0.56051 0.07200
C 	C 	0.04130 0.41458 0.55730 -0.01400
H 	H 	0.06088 0.37612 0.56530 0.06200
C 	C 	0.07617 0.46641 0.54820 -0.05500
C 	C 	0.04818 0.52392 0.53850 0.03200
C 	C 	0.98357 0.52740 0.53410 0.03000
C 	C 	0.95560 0.58456 0.52130 -0.05300
C 	C 	0.99070 0.63700 0.51500 -0.02500
H 	H 	0.97134 0.67558 0.50671 0.04400
C 	C 	0.05430 0.63357 0.52080 -0.02300
H 	H 	0.07806 0.66993 0.51725 0.05000
C 	C 	0.08298 0.57781 0.53160 -0.05200
C 	C 	0.15130 0.57530 0.53360 0.22100
C 	C 	0.14440 0.46240 0.54820 0.22000
C 	C 	0.24530 0.51190 0.53340 0.06300
H 	H 	0.26043 0.55458 0.52325 0.03800
C 	C 	0.27630 0.48990 0.61890 -0.41800
H 	H 	0.27573 0.52258 0.66453 0.14800
H 	H 	0.31877 0.47875 0.60526 0.15000
H 	H 	0.25454 0.45401 0.64255 0.16100
C 	C 	0.25910 0.47694 0.44590 0.26800
O 	O 	0.70571 0.04791 0.07745 -0.33600
O 	O 	0.79739 0.03995 0.14030 -0.38500
O 	O 	0.63790 0.13702 0.25020 -0.22200
O 	O 	0.65205 0.93477 0.18680 -0.23800
O 	O 	0.31731 0.12040 0.22390 -0.22300
O 	O 	0.32872 0.91339 0.19750 -0.23700
O 	O 	0.27977 0.97595 0.36550 -0.34200
O 	O 	0.18647 0.95749 0.31340 -0.36300
N 	N 	0.64474 0.03298 0.23500 -0.16300
N 	N 	0.32303 0.01708 0.20680 -0.16700
C 	C 	0.73970 0.04146 0.14530 0.26500
C 	C 	0.71230 0.03840 0.24000 0.05800
H 	H 	0.72112 0.07863 0.26960 0.04000
C 	C 	0.74230 0.98880 0.30030 -0.42400
H 	H 	0.78673 0.99477 0.30093 0.15200
H 	H 	0.72631 0.99212 0.36233 0.15400
H 	H 	0.73274 0.94820 0.27583 0.17200
C 	C 	0.61200 0.08850 0.23770 0.21400
C 	C 	0.61920 0.97700 0.20690 0.22500
C 	C 	0.55150 0.97328 0.20590 -0.05500
C 	C 	0.52300 0.91740 0.19520 -0.02100
H 	H 	0.54661 0.88110 0.18949 0.07200
C 	C 	0.45870 0.91458 0.19270 -0.01500
H 	H 	0.43912 0.87612 0.18470 0.06200
C 	C 	0.42383 0.96641 0.20180 -0.05600
C 	C 	0.45182 0.02392 0.21150 0.03200
C 	C 	0.51643 0.02740 0.21590 0.03200
C 	C 	0.54440 0.08456 0.22870 -0.05300
C 	C 	0.50930 0.13700 0.23500 -0.02500
H 	H 	0.52866 0.17558 0.24329 0.04400
C 	C 	0.44570 0.13357 0.22920 -0.02300
H 	H 	0.42194 0.16993 0.23275 0.05000
C 	C 	0.41702 0.07781 0.21840 -0.05200
C 	C 	0.34870 0.07530 0.21640 0.22100
C 	C 	0.35560 0.96240 0.20180 0.22000
C 	C 	0.25470 0.01190 0.21660 0.06900
H 	H 	0.23957 0.05458 0.22675 0.03700
C 	C 	0.22370 0.98990 0.13110 -0.42900
H 	H 	0.22427 0.02258 0.08547 0.15200
H 	H 	0.18123 0.97875 0.14474 0.15200
H 	H 	0.24546 0.95401 0.10745 0.16400
C 	C 	0.24090 0.97694 0.30410 0.26500
Cd	Cd	0.79510 0.04931 0.97919 1.20200
N 	N 	0.77290 0.15082 0.95650 -0.24100
N 	N 	0.69801 0.44300 0.78090 -0.23100
C 	C 	0.81610 0.18940 0.92380 0.08000
H 	H 	0.85753 0.17624 0.92316 -0.03000
C 	C 	0.80230 0.24670 0.89150 -0.13100
H 	H 	0.83412 0.27243 0.86932 0.09500
C 	C 	0.74230 0.26730 0.89110 0.06700
C 	C 	0.69860 0.22752 0.92830 -0.12400
H 	H 	0.65694 0.23995 0.93218 0.08000
C 	C 	0.71560 0.17101 0.95890 0.08300
H 	H 	0.68489 0.14483 0.98302 0.01600
C 	C 	0.74927 0.41301 0.75700 0.06500
H 	H 	0.77611 0.43201 0.71480 0.01400
C 	C 	0.76502 0.35639 0.79030 -0.11500
H 	H 	0.80178 0.33688 0.77154 0.09100
C 	C 	0.72540 0.32788 0.85300 0.05700
C 	C 	0.67199 0.35850 0.87680 -0.11800
H 	H 	0.64397 0.34068 0.91846 0.06800
C 	C 	0.66009 0.41529 0.83920 0.07100
H 	H 	0.62321 0.43558 0.85550 -0.02200
Cd	Cd	0.70490 0.54931 0.77081 1.20300
N 	N 	0.72710 0.65082 0.79350 -0.24000
N 	N 	0.80199 0.94300 0.96910 -0.23100
C 	C 	0.68390 0.68940 0.82620 0.08000
H 	H 	0.64247 0.67624 0.82684 -0.03000
C 	C 	0.69770 0.74670 0.85850 -0.13100
H 	H 	0.66588 0.77243 0.88068 0.09600
C 	C 	0.75770 0.76730 0.85890 0.06600
C 	C 	0.80140 0.72752 0.82170 -0.12300
H 	H 	0.84306 0.73995 0.81782 0.08000
C 	C 	0.78440 0.67101 0.79110 0.08300
H 	H 	0.81511 0.64483 0.76698 0.01600
C 	C 	0.75073 0.91301 0.99300 0.06700
H 	H 	0.72389 0.93201 0.03520 0.01300
C 	C 	0.73498 0.85639 0.95970 -0.11600
H 	H 	0.69822 0.83688 0.97846 0.09200
C 	C 	0.77460 0.82788 0.89700 0.05700
C 	C 	0.82801 0.85850 0.87320 -0.11900
H 	H 	0.85603 0.84068 0.83154 0.06800
C 	C 	0.83991 0.91529 0.91080 0.07100
H 	H 	0.87679 0.93558 0.89450 -0.02200
O 	O 	0.04791 0.70571 0.92255 -0.33600
O 	O 	0.03995 0.79739 0.85970 -0.38500
O 	O 	0.13702 0.63790 0.74980 -0.22200
O 	O 	0.93477 0.65205 0.81320 -0.23800
O 	O 	0.12040 0.31731 0.77610 -0.22300
O 	O 	0.91339 0.32872 0.80250 -0.23700
O 	O 	0.97595 0.27977 0.63450 -0.34200
O 	O 	0.95749 0.18647 0.68660 -0.36300
N 	N 	0.03298 0.64474 0.76500 -0.16300
N 	N 	0.01708 0.32303 0.79320 -0.16700
C 	C 	0.04146 0.73970 0.85470 0.26500
C 	C 	0.03840 0.71230 0.76000 0.05800
H 	H 	0.07863 0.72112 0.73040 0.04000
C 	C 	0.98880 0.74230 0.69970 -0.42400
H 	H 	0.99477 0.78673 0.69907 0.15200
H 	H 	0.99212 0.72631 0.63767 0.15400
H 	H 	0.94820 0.73274 0.72417 0.17200
C 	C 	0.08850 0.61200 0.76230 0.21400
C 	C 	0.97700 0.61920 0.79310 0.22500
C 	C 	0.97328 0.55150 0.79410 -0.05500
C 	C 	0.91740 0.52300 0.80480 -0.02100
H 	H 	0.88110 0.54661 0.81051 0.07200
C 	C 	0.91458 0.45870 0.80730 -0.01500
H 	H 	0.87612 0.43912 0.81530 0.06200
C 	C 	0.96641 0.42383 0.79820 -0.05600
C 	C 	0.02392 0.45182 0.78850 0.03200
C 	C 	0.02740 0.51643 0.78410 0.03200
C 	C 	0.08456 0.54440 0.77130 -0.05300
C 	C 	0.13700 0.50930 0.76500 -0.02500
H 	H 	0.17558 0.52866 0.75671 0.04400
C 	C 	0.13357 0.44570 0.77080 -0.02300
H 	H 	0.16993 0.42194 0.76725 0.05000
C 	C 	0.07781 0.41702 0.78160 -0.05200
C 	C 	0.07530 0.34870 0.78360 0.22100
C 	C 	0.96240 0.35560 0.79820 0.22000
C 	C 	0.01190 0.25470 0.78340 0.06900
H 	H 	0.05458 0.23957 0.77325 0.03700
C 	C 	0.98990 0.22370 0.86890 -0.42900
H 	H 	0.02258 0.22427 0.91453 0.15200
H 	H 	0.97875 0.18123 0.85526 0.15200
H 	H 	0.95401 0.24546 0.89255 0.16400
C 	C 	0.97694 0.24090 0.69590 0.26500
O 	O 	0.54791 0.79429 0.32745 -0.33700
O 	O 	0.53995 0.70261 0.39030 -0.38600
O 	O 	0.63702 0.86210 0.50020 -0.22200
O 	O 	0.43477 0.84795 0.43680 -0.23800
O 	O 	0.62040 0.18269 0.47390 -0.22300
O 	O 	0.41339 0.17128 0.44750 -0.23600
O 	O 	0.47595 0.22023 0.61550 -0.34300
O 	O 	0.45749 0.31353 0.56340 -0.36300
N 	N 	0.53298 0.85526 0.48500 -0.16300
N 	N 	0.51708 0.17697 0.45680 -0.16700
C 	C 	0.54146 0.76030 0.39530 0.26500
C 	C 	0.53840 0.78770 0.49000 0.05700
H 	H 	0.57863 0.77888 0.51960 0.04000
C 	C 	0.48880 0.75770 0.55030 -0.42200
H 	H 	0.49477 0.71327 0.55093 0.15200
H 	H 	0.49212 0.77369 0.61233 0.15300
H 	H 	0.44820 0.76726 0.52583 0.17200
C 	C 	0.58850 0.88800 0.48770 0.21400
C 	C 	0.47700 0.88080 0.45690 0.22500
C 	C 	0.47328 0.94850 0.45590 -0.05300
C 	C 	0.41740 0.97700 0.44520 -0.02200
H 	H 	0.38110 0.95339 0.43949 0.07200
C 	C 	0.41458 0.04130 0.44270 -0.01400
H 	H 	0.37612 0.06088 0.43470 0.06200
C 	C 	0.46641 0.07617 0.45180 -0.05500
C 	C 	0.52392 0.04818 0.46150 0.03200
C 	C 	0.52740 0.98357 0.46590 0.03000
C 	C 	0.58456 0.95560 0.47870 -0.05300
C 	C 	0.63700 0.99070 0.48500 -0.02500
H 	H 	0.67558 0.97134 0.49329 0.04400
C 	C 	0.63357 0.05430 0.47920 -0.02300
H 	H 	0.66993 0.07806 0.48275 0.05000
C 	C 	0.57781 0.08298 0.46840 -0.05200
C 	C 	0.57530 0.15130 0.46640 0.22100
C 	C 	0.46240 0.14440 0.45180 0.22000
C 	C 	0.51190 0.24530 0.46660 0.06300
H 	H 	0.55458 0.26043 0.47675 0.03800
C 	C 	0.48990 0.27630 0.38110 -0.41800
H 	H 	0.52258 0.27573 0.33547 0.14800
H 	H 	0.47875 0.31877 0.39474 0.15000
H 	H 	0.45401 0.25454 0.35745 0.16100
C 	C 	0.47694 0.25910 0.55410 0.26800
Cd	Cd	0.54931 0.70490 0.22919 1.20300
N 	N 	0.65082 0.72710 0.20650 -0.24000
N 	N 	0.94300 0.80199 0.03090 -0.23100
C 	C 	0.68940 0.68390 0.17380 0.08000
H 	H 	0.67624 0.64247 0.17316 -0.03000
C 	C 	0.74670 0.69770 0.14150 -0.13100
H 	H 	0.77243 0.66588 0.11932 0.09600
C 	C 	0.76730 0.75770 0.14110 0.06600
C 	C 	0.72752 0.80140 0.17830 -0.12300
H 	H 	0.73995 0.84306 0.18218 0.08000
C 	C 	0.67101 0.78440 0.20890 0.08300
H 	H 	0.64483 0.81511 0.23302 0.01600
C 	C 	0.91301 0.75073 0.00700 0.06700
H 	H 	0.93201 0.72389 0.96480 0.01300
C 	C 	0.85639 0.73498 0.04030 -0.11600
H 	H 	0.83688 0.69822 0.02154 0.09200
C 	C 	0.82788 0.77460 0.10300 0.05700
C 	C 	0.85850 0.82801 0.12680 -0.11900
H 	H 	0.84068 0.85603 0.16846 0.06800
C 	C 	0.91529 0.83991 0.08920 0.07100
H 	H 	0.93558 0.87679 0.10550 -0.02200
Cd	Cd	0.04931 0.79510 0.02081 1.20200
N 	N 	0.15082 0.77290 0.04350 -0.24100
N 	N 	0.44300 0.69801 0.21910 -0.23100
C 	C 	0.18940 0.81610 0.07620 0.08000
H 	H 	0.17624 0.85753 0.07684 -0.03000
C 	C 	0.24670 0.80230 0.10850 -0.13100
H 	H 	0.27243 0.83412 0.13068 0.09500
C 	C 	0.26730 0.74230 0.10890 0.06700
C 	C 	0.22752 0.69860 0.07170 -0.12400
H 	H 	0.23995 0.65694 0.06782 0.08000
C 	C 	0.17101 0.71560 0.04110 0.08300
H 	H 	0.14483 0.68489 0.01698 0.01600
C 	C 	0.41301 0.74927 0.24300 0.06500
H 	H 	0.43201 0.77611 0.28520 0.01400
C 	C 	0.35639 0.76502 0.20970 -0.11500
H 	H 	0.33688 0.80178 0.22846 0.09100
C 	C 	0.32788 0.72540 0.14700 0.05700
C 	C 	0.35850 0.67199 0.12320 -0.11800
H 	H 	0.34068 0.64397 0.08154 0.06800
C 	C 	0.41529 0.66009 0.16080 0.07100
H 	H 	0.43558 0.62321 0.14450 -0.02200
O 	O 	0.95209 0.29429 0.42255 -0.33700
O 	O 	0.96005 0.20261 0.35970 -0.38600
O 	O 	0.86298 0.36210 0.24980 -0.22200
O 	O 	0.06523 0.34795 0.31320 -0.23800
O 	O 	0.87960 0.68269 0.27610 -0.22300
O 	O 	0.08661 0.67128 0.30250 -0.23600
O 	O 	0.02405 0.72023 0.13450 -0.34300
O 	O 	0.04251 0.81353 0.18660 -0.36300
N 	N 	0.96702 0.35526 0.26500 -0.16300
N 	N 	0.98292 0.67697 0.29320 -0.16700
C 	C 	0.95854 0.26030 0.35470 0.26500
C 	C 	0.96160 0.28770 0.26000 0.05800
H 	H 	0.92137 0.27888 0.23040 0.04000
C 	C 	0.01120 0.25770 0.19970 -0.42300
H 	H 	0.00523 0.21327 0.19907 0.15200
H 	H 	0.00788 0.27369 0.13767 0.15300
H 	H 	0.05180 0.26726 0.22417 0.17200
C 	C 	0.91150 0.38800 0.26230 0.21400
C 	C 	0.02300 0.38080 0.29310 0.22500
C 	C 	0.02672 0.44850 0.29410 -0.05400
C 	C 	0.08260 0.47700 0.30480 -0.02100
H 	H 	0.11890 0.45339 0.31051 0.07200
C 	C 	0.08542 0.54130 0.30730 -0.01500
H 	H 	0.12388 0.56088 0.31530 0.06200
C 	C 	0.03359 0.57617 0.29820 -0.05500
C 	C 	0.97608 0.54818 0.28850 0.03200
C 	C 	0.97260 0.48357 0.28410 0.03100
C 	C 	0.91544 0.45560 0.27130 -0.05400
C 	C 	0.86300 0.49070 0.26500 -0.02500
H 	H 	0.82442 0.47134 0.25671 0.04400
C 	C 	0.86643 0.55430 0.27080 -0.02300
H 	H 	0.83007 0.57806 0.26725 0.05000
C 	C 	0.92219 0.58298 0.28160 -0.05200
C 	C 	0.92470 0.65130 0.28360 0.22100
C 	C 	0.03760 0.64440 0.29820 0.22000
C 	C 	0.98810 0.74530 0.28340 0.06500
H 	H 	0.94542 0.76043 0.27325 0.03800
C 	C 	0.01010 0.77630 0.36890 -0.42200
H 	H 	0.97742 0.77573 0.41453 0.14900
H 	H 	0.02125 0.81877 0.35526 0.15000
H 	H 	0.04599 0.75454 0.39255 0.16200
C 	C 	0.02306 0.75910 0.19590 0.26600
O 	O 	0.45209 0.20571 0.82745 -0.33700
O 	O 	0.46005 0.29739 0.89030 -0.38700
O 	O 	0.36298 0.13790 0.00020 -0.22000
O 	O 	0.56523 0.15205 0.93680 -0.23800
O 	O 	0.37960 0.81731 0.97390 -0.22300
O 	O 	0.58661 0.82872 0.94750 -0.23600
O 	O 	0.52405 0.77977 0.11550 -0.34300
O 	O 	0.54251 0.68647 0.06340 -0.36300
N 	N 	0.46702 0.14474 0.98500 -0.16300
N 	N 	0.48292 0.82303 0.95680 -0.16700
C 	C 	0.45854 0.23970 0.89530 0.26600
C 	C 	0.46160 0.21230 0.99000 0.05400
H 	H 	0.42137 0.22112 0.01960 0.04200
C 	C 	0.51120 0.24230 0.05030 -0.42000
H 	H 	0.50523 0.28673 0.05093 0.15200
H 	H 	0.50788 0.22631 0.11233 0.15300
H 	H 	0.55180 0.23274 0.02583 0.17200
C 	C 	0.41150 0.11200 0.98770 0.21200
C 	C 	0.52300 0.11920 0.95690 0.22400
C 	C 	0.52672 0.05150 0.95590 -0.05100
C 	C 	0.58260 0.02300 0.94520 -0.02600
H 	H 	0.61890 0.04661 0.93949 0.07300
C 	C 	0.58542 0.95870 0.94270 -0.01000
H 	H 	0.62388 0.93912 0.93470 0.06100
C 	C 	0.53359 0.92383 0.95180 -0.05700
C 	C 	0.47608 0.95182 0.96150 0.03500
C 	C 	0.47260 0.01643 0.96590 0.02600
C 	C 	0.41544 0.04440 0.97870 -0.05000
C 	C 	0.36300 0.00930 0.98500 -0.03000
H 	H 	0.32442 0.02866 0.99329 0.04500
C 	C 	0.36643 0.94570 0.97920 -0.01800
H 	H 	0.33007 0.92194 0.98275 0.05000
C 	C 	0.42219 0.91702 0.96840 -0.05500
C 	C 	0.42470 0.84870 0.96640 0.22200
C 	C 	0.53760 0.85560 0.95180 0.22100
C 	C 	0.48810 0.75470 0.96660 0.06400
H 	H 	0.44542 0.73957 0.97675 0.03800
C 	C 	0.51010 0.72370 0.88110 -0.41900
H 	H 	0.47742 0.72427 0.83547 0.14800
H 	H 	0.52125 0.68123 0.89474 0.15000
H 	H 	0.54599 0.74546 0.85745 0.16100
C 	C 	0.52306 0.74090 0.05410 0.26700
Cd	Cd	0.45069 0.29510 0.72919 1.20300
N 	N 	0.34918 0.27290 0.70650 -0.24000
N 	N 	0.05700 0.19801 0.53090 -0.23100
C 	C 	0.31060 0.31610 0.67380 0.08000
H 	H 	0.32376 0.35753 0.67316 -0.03000
C 	C 	0.25330 0.30230 0.64150 -0.13100
H 	H 	0.22757 0.33412 0.61932 0.09600
C 	C 	0.23270 0.24230 0.64110 0.06700
C 	C 	0.27248 0.19860 0.67830 -0.12300
H 	H 	0.26005 0.15694 0.68218 0.08000
C 	C 	0.32899 0.21560 0.70890 0.08300
H 	H 	0.35517 0.18489 0.73302 0.01600
C 	C 	0.08699 0.24927 0.50700 0.06500
H 	H 	0.06799 0.27611 0.46480 0.01400
C 	C 	0.14361 0.26502 0.54030 -0.11500
H 	H 	0.16312 0.30178 0.52154 0.09100
C 	C 	0.17212 0.22540 0.60300 0.05700
C 	C 	0.14150 0.17199 0.62680 -0.11800
H 	H 	0.15932 0.14397 0.66846 0.06800
C 	C 	0.08471 0.16009 0.58920 0.07100
H 	H 	0.06442 0.12321 0.60550 -0.02200
Cd	Cd	0.95069 0.20490 0.52081 1.20200
N 	N 	0.84918 0.22710 0.54350 -0.24000
N 	N 	0.55700 0.30199 0.71910 -0.23100
C 	C 	0.81060 0.18390 0.57620 0.08000
H 	H 	0.82376 0.14247 0.57684 -0.03000
C 	C 	0.75330 0.19770 0.60850 -0.13100
H 	H 	0.72757 0.16588 0.63068 0.09600
C 	C 	0.73270 0.25770 0.60890 0.06700
C 	C 	0.77248 0.30140 0.57170 -0.12300
H 	H 	0.76005 0.34306 0.56782 0.08000
C 	C 	0.82899 0.28440 0.54110 0.08400
H 	H 	0.85517 0.31511 0.51698 0.01600
C 	C 	0.58699 0.25073 0.74300 0.06500
H 	H 	0.56799 0.22389 0.78520 0.01400
C 	C 	0.64361 0.23498 0.70970 -0.11500
H 	H 	0.66312 0.19822 0.72846 0.09100
C 	C 	0.67212 0.27460 0.64700 0.05700
C 	C 	0.64150 0.32801 0.62320 -0.11800
H 	H 	0.65932 0.35603 0.58154 0.06800
C 	C 	0.58471 0.33991 0.66080 0.07100
H 	H 	0.56442 0.37679 0.64450 -0.02200
