data_crystal

_cell_length_a 15.06240
_cell_length_b 15.06240
_cell_length_c 19.25410
_cell_angle_alpha 90.00000
_cell_angle_beta  90.00000
_cell_angle_gamma 90.00000

_symmetry_space_group_name_	'P 1'
_symmetry_space_group_name_H-M	'P 1'

loop_
_symmetry_equiv_pos_as_xyz
  x,y,z

loop_
_atom_site_label
_atom_site_type_symbol
_atom_site_fract_x
_atom_site_fract_y
_atom_site_fract_z
_atom_site_charge
O 	O 	0.94407 0.12067 0.05772 -0.49300
C 	C 	0.82803 0.26332 0.06200 -0.01100
H 	H 	0.85100 0.24290 0.10390 0.04500
C 	C 	0.95600 0.07780 0.21100 2.82900
H 	H 	0.90610 0.09530 0.18230 -0.35700
H 	H 	0.99690 0.12740 0.21490 -0.75800
C 	C 	0.91580 0.02700 0.20890 -2.42300
O 	O 	0.44407 0.62067 0.55772 -0.47000
C 	C 	0.32803 0.76332 0.56200 -0.01500
H 	H 	0.35100 0.74290 0.60390 0.04300
C 	C 	0.45600 0.57780 0.71100 -0.06400
H 	H 	0.40610 0.59530 0.68230 0.03900
H 	H 	0.49690 0.62740 0.71490 0.04500
C 	C 	0.41580 0.52700 0.70890 0.00400
O 	O 	0.05593 0.87933 0.05772 -0.49300
C 	C 	0.17197 0.73668 0.06200 0.00200
H 	H 	0.14900 0.75710 0.10390 0.03800
C 	C 	0.04400 0.92220 0.21100 -2.94700
H 	H 	0.09390 0.90470 0.18230 0.44500
H 	H 	0.00310 0.87260 0.21490 0.81100
C 	C 	0.08420 0.97300 0.20890 2.20600
O 	O 	0.55593 0.37933 0.55772 -0.46300
C 	C 	0.67197 0.23668 0.56200 -0.02400
H 	H 	0.64900 0.25710 0.60390 0.05700
C 	C 	0.54400 0.42220 0.71100 -0.02800
H 	H 	0.59390 0.40470 0.68230 0.03100
H 	H 	0.50310 0.37260 0.71490 0.05100
C 	C 	0.58420 0.47300 0.70890 -0.03200
O 	O 	0.87933 0.94407 0.05772 -0.59300
C 	C 	0.73668 0.82803 0.06200 0.00300
H 	H 	0.75710 0.85100 0.10390 0.00200
C 	C 	0.92220 0.95600 0.21100 0.06400
H 	H 	0.90470 0.90610 0.18230 -0.30200
H 	H 	0.87260 0.99690 0.21490 0.92200
C 	C 	0.97300 0.91580 0.20890 0.60000
O 	O 	0.37933 0.44407 0.55772 -0.46000
C 	C 	0.23668 0.32803 0.56200 0.01100
H 	H 	0.25710 0.35100 0.60390 0.06000
C 	C 	0.42220 0.45600 0.71100 -0.05600
H 	H 	0.40470 0.40610 0.68230 0.05000
H 	H 	0.37260 0.49690 0.71490 0.05100
C 	C 	0.47300 0.41580 0.70890 -0.01600
O 	O 	0.12067 0.05593 0.05772 -0.41100
C 	C 	0.26332 0.17197 0.06200 -0.00700
H 	H 	0.24290 0.14900 0.10390 0.07700
C 	C 	0.07780 0.04400 0.21100 -0.48800
H 	H 	0.09530 0.09390 0.18230 0.41900
H 	H 	0.12740 0.00310 0.21490 -0.65500
C 	C 	0.02700 0.08420 0.20890 -0.51900
O 	O 	0.62067 0.55593 0.55772 -0.47300
C 	C 	0.76332 0.67197 0.56200 -0.05500
H 	H 	0.74290 0.64900 0.60390 0.04000
C 	C 	0.57780 0.54400 0.71100 -0.03600
H 	H 	0.59530 0.59390 0.68230 0.02000
H 	H 	0.62740 0.50310 0.71490 0.04500
C 	C 	0.52700 0.58420 0.70890 -0.01100
O 	O 	0.05593 0.12067 0.44228 -0.41600
C 	C 	0.17197 0.26332 0.43800 -0.01000
H 	H 	0.14900 0.24290 0.39610 0.08000
C 	C 	0.04400 0.07780 0.28900 -0.48300
H 	H 	0.09390 0.09530 0.31770 0.42000
H 	H 	0.00310 0.12740 0.28510 -0.65600
C 	C 	0.08420 0.02700 0.29110 -0.52500
O 	O 	0.55593 0.62067 0.94228 -0.42400
C 	C 	0.67197 0.76332 0.93800 -0.00200
H 	H 	0.64900 0.74290 0.89610 0.03000
C 	C 	0.54400 0.57780 0.78900 -0.03600
H 	H 	0.59390 0.59530 0.81770 0.02100
H 	H 	0.50310 0.62740 0.78510 0.04600
C 	C 	0.58420 0.52700 0.79110 -0.01300
O 	O 	0.94407 0.87933 0.44228 -0.60100
C 	C 	0.82803 0.73668 0.43800 -0.00000
H 	H 	0.85100 0.75710 0.39610 0.00400
C 	C 	0.95600 0.92220 0.28900 0.05900
H 	H 	0.90610 0.90470 0.31770 -0.30100
H 	H 	0.99690 0.87260 0.28510 0.92500
C 	C 	0.91580 0.97300 0.29110 0.60300
O 	O 	0.44407 0.37933 0.94228 -0.41100
C 	C 	0.32803 0.23668 0.93800 0.06400
H 	H 	0.35100 0.25710 0.89610 0.05000
C 	C 	0.45600 0.42220 0.78900 -0.05500
H 	H 	0.40610 0.40470 0.81770 0.05100
H 	H 	0.49690 0.37260 0.78510 0.05200
C 	C 	0.41580 0.47300 0.79110 -0.01700
O 	O 	0.12067 0.94407 0.44228 -0.49800
C 	C 	0.26332 0.82803 0.43800 -0.01400
H 	H 	0.24290 0.85100 0.39610 0.04800
C 	C 	0.07780 0.95600 0.28900 2.83300
H 	H 	0.09530 0.90610 0.31770 -0.35600
H 	H 	0.12740 0.99690 0.28510 -0.75600
C 	C 	0.02700 0.91580 0.29110 -2.42600
O 	O 	0.62067 0.44407 0.94228 -0.42100
C 	C 	0.76332 0.32803 0.93800 0.03800
H 	H 	0.74290 0.35100 0.89610 0.03200
C 	C 	0.57780 0.45600 0.78900 -0.06300
H 	H 	0.59530 0.40610 0.81770 0.04000
H 	H 	0.62740 0.49690 0.78510 0.04600
C 	C 	0.52700 0.41580 0.79110 0.00300
O 	O 	0.87933 0.05593 0.44228 -0.49900
C 	C 	0.73668 0.17197 0.43800 -0.00100
H 	H 	0.75710 0.14900 0.39610 0.04100
C 	C 	0.92220 0.04400 0.28900 -2.95100
H 	H 	0.90470 0.09390 0.31770 0.44700
H 	H 	0.87260 0.00310 0.28510 0.81200
C 	C 	0.97300 0.08420 0.29110 2.20700
O 	O 	0.37933 0.55593 0.94228 -0.41400
C 	C 	0.23668 0.67197 0.93800 0.02900
H 	H 	0.25710 0.64900 0.89610 0.04600
C 	C 	0.42220 0.54400 0.78900 -0.02700
H 	H 	0.40470 0.59390 0.81770 0.03300
H 	H 	0.37260 0.50310 0.78510 0.05200
C 	C 	0.47300 0.58420 0.79110 -0.03300
O 	O 	0.05593 0.87933 0.94228 -0.45000
C 	C 	0.17197 0.73668 0.93800 0.05100
H 	H 	0.14900 0.75710 0.89610 0.03200
C 	C 	0.04400 0.92220 0.78900 -2.94900
H 	H 	0.09390 0.90470 0.81770 0.44800
H 	H 	0.00310 0.87260 0.78510 0.81500
C 	C 	0.08420 0.97300 0.79110 2.20500
O 	O 	0.55593 0.37933 0.44228 -0.46400
C 	C 	0.67197 0.23668 0.43800 -0.02400
H 	H 	0.64900 0.25710 0.39610 0.05600
C 	C 	0.54400 0.42220 0.28900 -0.02700
H 	H 	0.59390 0.40470 0.31770 0.03000
H 	H 	0.50310 0.37260 0.28510 0.05000
C 	C 	0.58420 0.47300 0.29110 -0.03200
O 	O 	0.94407 0.12067 0.94228 -0.45000
C 	C 	0.82803 0.26332 0.93800 0.03800
H 	H 	0.85100 0.24290 0.89610 0.03900
C 	C 	0.95600 0.07780 0.78900 2.83100
H 	H 	0.90610 0.09530 0.81770 -0.35300
H 	H 	0.99690 0.12740 0.78510 -0.75500
C 	C 	0.91580 0.02700 0.79110 -2.42600
O 	O 	0.44407 0.62067 0.44228 -0.47000
C 	C 	0.32803 0.76332 0.43800 -0.01500
H 	H 	0.35100 0.74290 0.39610 0.04200
C 	C 	0.45600 0.57780 0.28900 -0.06300
H 	H 	0.40610 0.59530 0.31770 0.03800
H 	H 	0.49690 0.62740 0.28510 0.04400
C 	C 	0.41580 0.52700 0.29110 0.00400
O 	O 	0.12067 0.05593 0.94228 -0.36800
C 	C 	0.26332 0.17197 0.93800 0.04200
H 	H 	0.24290 0.14900 0.89610 0.07000
C 	C 	0.07780 0.04400 0.78900 -0.48800
H 	H 	0.09530 0.09390 0.81770 0.42300
H 	H 	0.12740 0.00310 0.78510 -0.65300
C 	C 	0.02700 0.08420 0.79110 -0.52100
O 	O 	0.62067 0.55593 0.44228 -0.47400
C 	C 	0.76332 0.67197 0.43800 -0.05500
H 	H 	0.74290 0.64900 0.39610 0.03900
C 	C 	0.57780 0.54400 0.28900 -0.03500
H 	H 	0.59530 0.59390 0.31770 0.01900
H 	H 	0.62740 0.50310 0.28510 0.04400
C 	C 	0.52700 0.58420 0.29110 -0.01200
O 	O 	0.87933 0.94407 0.94228 -0.55100
C 	C 	0.73668 0.82803 0.93800 0.05100
H 	H 	0.75710 0.85100 0.89610 -0.00500
C 	C 	0.92220 0.95600 0.78900 0.06400
H 	H 	0.90470 0.90610 0.81770 -0.29900
H 	H 	0.87260 0.99690 0.78510 0.92500
C 	C 	0.97300 0.91580 0.79110 0.59800
O 	O 	0.37933 0.44407 0.44228 -0.46000
C 	C 	0.23668 0.32803 0.43800 0.01100
H 	H 	0.25710 0.35100 0.39610 0.05900
C 	C 	0.42220 0.45600 0.28900 -0.05500
H 	H 	0.40470 0.40610 0.31770 0.04900
H 	H 	0.37260 0.49690 0.28510 0.05000
C 	C 	0.47300 0.41580 0.29110 -0.01700
O 	O 	0.94407 0.87933 0.55772 -0.60100
C 	C 	0.82803 0.73668 0.56200 -0.00000
H 	H 	0.85100 0.75710 0.60390 0.00500
C 	C 	0.95600 0.92220 0.71100 0.05800
H 	H 	0.90610 0.90470 0.68230 -0.30000
H 	H 	0.99690 0.87260 0.71490 0.92600
C 	C 	0.91580 0.97300 0.70890 0.60400
O 	O 	0.44407 0.37933 0.05772 -0.45400
C 	C 	0.32803 0.23668 0.06200 0.01400
H 	H 	0.35100 0.25710 0.10390 0.05700
C 	C 	0.45600 0.42220 0.21100 -0.05500
H 	H 	0.40610 0.40470 0.18230 0.04800
H 	H 	0.49690 0.37260 0.21490 0.04900
C 	C 	0.41580 0.47300 0.20890 -0.01600
O 	O 	0.05593 0.12067 0.55772 -0.41600
C 	C 	0.17197 0.26332 0.56200 -0.01000
H 	H 	0.14900 0.24290 0.60390 0.08100
C 	C 	0.04400 0.07780 0.71100 -0.48400
H 	H 	0.09390 0.09530 0.68230 0.42100
H 	H 	0.00310 0.12740 0.71490 -0.65600
C 	C 	0.08420 0.02700 0.70890 -0.52500
O 	O 	0.55593 0.62067 0.05772 -0.46700
C 	C 	0.67197 0.76332 0.06200 -0.05100
H 	H 	0.64900 0.74290 0.10390 0.03700
C 	C 	0.54400 0.57780 0.21100 -0.03600
H 	H 	0.59390 0.59530 0.18230 0.01800
H 	H 	0.50310 0.62740 0.21490 0.04400
C 	C 	0.58420 0.52700 0.20890 -0.01100
O 	O 	0.87933 0.05593 0.55772 -0.49800
C 	C 	0.73668 0.17197 0.56200 -0.00100
H 	H 	0.75710 0.14900 0.60390 0.04200
C 	C 	0.92220 0.04400 0.71100 -2.95300
H 	H 	0.90470 0.09390 0.68230 0.44800
H 	H 	0.87260 0.00310 0.71490 0.81300
C 	C 	0.97300 0.08420 0.70890 2.20800
O 	O 	0.37933 0.55593 0.05772 -0.45800
C 	C 	0.23668 0.67197 0.06200 -0.02100
H 	H 	0.25710 0.64900 0.10390 0.05300
C 	C 	0.42220 0.54400 0.21100 -0.02700
H 	H 	0.40470 0.59390 0.18230 0.02900
H 	H 	0.37260 0.50310 0.21490 0.04900
C 	C 	0.47300 0.58420 0.20890 -0.03200
O 	O 	0.12067 0.94407 0.55772 -0.49800
C 	C 	0.26332 0.82803 0.56200 -0.01400
H 	H 	0.24290 0.85100 0.60390 0.04900
C 	C 	0.07780 0.95600 0.71100 2.83400
H 	H 	0.09530 0.90610 0.68230 -0.35600
H 	H 	0.12740 0.99690 0.71490 -0.75500
C 	C 	0.02700 0.91580 0.70890 -2.42600
O 	O 	0.62067 0.44407 0.05772 -0.46400
C 	C 	0.76332 0.32803 0.06200 -0.01200
H 	H 	0.74290 0.35100 0.10390 0.03900
C 	C 	0.57780 0.45600 0.21100 -0.06400
H 	H 	0.59530 0.40610 0.18230 0.03700
H 	H 	0.62740 0.49690 0.21490 0.04300
C 	C 	0.52700 0.41580 0.20890 0.00500
Zn	Zn	-0.00000 0.00000 0.07664 1.31400
N 	N 	0.00000 0.00000 0.18290 0.07700
Zn	Zn	0.50000 0.50000 0.57664 1.21400
N 	N 	0.50000 0.50000 0.68290 -0.18700
Zn	Zn	0.00000 0.00000 0.42336 1.32100
N 	N 	0.00000 0.00000 0.31710 0.07900
Zn	Zn	0.50000 0.50000 0.92336 1.21600
N 	N 	0.50000 0.50000 0.81710 -0.18800
Zn	Zn	-0.00000 -0.00000 0.92336 1.32100
N 	N 	0.00000 0.00000 0.81710 0.07700
Zn	Zn	0.50000 0.50000 0.42336 1.21400
N 	N 	0.50000 0.50000 0.31710 -0.18700
Zn	Zn	0.00000 0.00000 0.57664 1.32100
N 	N 	0.00000 0.00000 0.68290 0.07900
Zn	Zn	0.50000 0.50000 0.07664 1.20900
N 	N 	0.50000 0.50000 0.18290 -0.18800
C 	C 	0.92100 0.15070 -0.00000 0.35500
C 	C 	0.85910 0.22860 -0.00000 -0.13300
C 	C 	0.42100 0.65070 0.50000 0.39100
C 	C 	0.35910 0.72860 0.50000 -0.08700
C 	C 	0.07900 0.84930 -0.00000 0.35600
C 	C 	0.14090 0.77140 -0.00000 -0.14400
C 	C 	0.57900 0.34930 0.50000 0.38900
C 	C 	0.64090 0.27140 0.50000 -0.07100
C 	C 	0.84930 0.92100 -0.00000 0.35300
C 	C 	0.77140 0.85910 -0.00000 -0.18900
C 	C 	0.34930 0.42100 0.50000 0.40000
C 	C 	0.27140 0.35910 0.50000 -0.07700
C 	C 	0.15070 0.07900 -0.00000 0.36100
C 	C 	0.22860 0.14090 -0.00000 -0.09600
C 	C 	0.65070 0.57900 0.50000 0.37800
C 	C 	0.72860 0.64090 0.50000 -0.07800
C 	C 	0.07900 0.15070 0.50000 0.41500
C 	C 	0.14090 0.22860 0.50000 -0.04800
C 	C 	0.57900 0.65070 -0.00000 0.32400
C 	C 	0.64090 0.72860 -0.00000 -0.12500
C 	C 	0.92100 0.84930 0.50000 0.40500
C 	C 	0.85910 0.77140 0.50000 -0.14400
C 	C 	0.42100 0.34930 -0.00000 0.34600
C 	C 	0.35910 0.27140 -0.00000 -0.12500
C 	C 	0.15070 0.92100 0.50000 0.40800
C 	C 	0.22860 0.85910 0.50000 -0.08600
C 	C 	0.65070 0.42100 -0.00000 0.33700
C 	C 	0.72860 0.35910 -0.00000 -0.13400
C 	C 	0.84930 0.07900 0.50000 0.40900
C 	C 	0.77140 0.14090 0.50000 -0.09700
C 	C 	0.34930 0.57900 -0.00000 0.33400
C 	C 	0.27140 0.64090 -0.00000 -0.11800
