data_crystal

_cell_length_a 14.93670
_cell_length_b 14.93670
_cell_length_c 19.17850
_cell_angle_alpha 90.00000
_cell_angle_beta  90.00000
_cell_angle_gamma 90.00000

_symmetry_space_group_name_	'P 1'
_symmetry_space_group_name_H-M	'P 1'

loop_
_symmetry_equiv_pos_as_xyz
  x,y,z

loop_
_atom_site_label
_atom_site_type_symbol
_atom_site_fract_x
_atom_site_fract_y
_atom_site_fract_z
_atom_site_charge
O 	O 	0.13351 0.18320 0.31823 -0.45500
O 	O 	0.12093 0.21415 0.20425 -0.45900
C 	C 	0.09639 0.17571 0.25946 0.37300
C 	C 	0.01788 0.11347 0.25498 -0.07500
C 	C 	0.97980 0.07780 0.31518 -0.01200
H 	H 	0.99900 0.09800 0.35970 0.04900
C 	C 	0.98700 0.08590 0.18990 -0.01400
H 	H 	0.01060 0.11240 0.14880 0.04700
C 	C 	0.19600 0.17610 0.47040 0.01900
H 	H 	0.22080 0.11860 0.45320 0.03500
H 	H 	0.13400 0.18160 0.45300 0.01400
C 	C 	0.16180 0.23500 0.47110 -0.05900
H 	H 	0.14020 0.17530 0.45530 0.02000
C 	C 	0.19600 0.17630 0.54990 0.01300
H 	H 	0.22020 0.11880 0.56720 0.01300
H 	H 	0.13380 0.18220 0.56700 0.03400
C 	C 	0.26200 0.16110 0.55000 -0.05400
H 	H 	0.21240 0.12240 0.56580 0.01800
O 	O 	0.36649 0.31680 0.31823 -0.45600
O 	O 	0.37907 0.28585 0.20425 -0.46000
C 	C 	0.40361 0.32429 0.25946 0.37200
C 	C 	0.48212 0.38653 0.25498 -0.07600
C 	C 	0.52020 0.42220 0.31518 -0.01400
H 	H 	0.50100 0.40200 0.35970 0.04800
C 	C 	0.51300 0.41410 0.18990 -0.01400
H 	H 	0.48940 0.38760 0.14880 0.04600
C 	C 	0.30400 0.32390 0.47040 0.01800
H 	H 	0.27920 0.38140 0.45320 0.03400
H 	H 	0.36600 0.31840 0.45300 0.01300
C 	C 	0.33820 0.26500 0.47110 -0.06000
H 	H 	0.35980 0.32470 0.45530 0.01900
C 	C 	0.30400 0.32370 0.54990 0.01200
H 	H 	0.27980 0.38120 0.56720 0.01200
H 	H 	0.36620 0.31780 0.56700 0.03300
C 	C 	0.23800 0.33890 0.55000 -0.05400
H 	H 	0.28760 0.37760 0.56580 0.01800
O 	O 	0.31680 0.13351 0.31823 -0.45600
O 	O 	0.28585 0.12093 0.20425 -0.46000
C 	C 	0.32429 0.09639 0.25946 0.37200
C 	C 	0.38653 0.01788 0.25498 -0.07600
C 	C 	0.42220 0.97980 0.31518 -0.01400
H 	H 	0.40200 0.99900 0.35970 0.04800
C 	C 	0.41410 0.98700 0.18990 -0.01400
H 	H 	0.38760 0.01060 0.14880 0.04600
C 	C 	0.32390 0.19600 0.47040 0.01800
H 	H 	0.38140 0.22080 0.45320 0.03400
H 	H 	0.31840 0.13400 0.45300 0.01300
C 	C 	0.26500 0.16180 0.47110 -0.06000
H 	H 	0.32470 0.14020 0.45530 0.01900
C 	C 	0.32370 0.19600 0.54990 0.01200
H 	H 	0.38120 0.22020 0.56720 0.01200
H 	H 	0.31780 0.13380 0.56700 0.03300
C 	C 	0.33890 0.26200 0.55000 -0.05400
H 	H 	0.37760 0.21240 0.56580 0.01800
O 	O 	0.18320 0.36649 0.31823 -0.45600
O 	O 	0.21415 0.37907 0.20425 -0.46000
C 	C 	0.17571 0.40361 0.25946 0.37200
C 	C 	0.11347 0.48212 0.25498 -0.07600
C 	C 	0.07780 0.52020 0.31518 -0.01300
H 	H 	0.09800 0.50100 0.35970 0.04800
C 	C 	0.08590 0.51300 0.18990 -0.01400
H 	H 	0.11240 0.48940 0.14880 0.04600
C 	C 	0.17610 0.30400 0.47040 0.01800
H 	H 	0.11860 0.27920 0.45320 0.03400
H 	H 	0.18160 0.36600 0.45300 0.01300
C 	C 	0.23500 0.33820 0.47110 -0.06000
H 	H 	0.17530 0.35980 0.45530 0.01900
C 	C 	0.17630 0.30400 0.54990 0.01200
H 	H 	0.11880 0.27980 0.56720 0.01200
H 	H 	0.18220 0.36620 0.56700 0.03300
C 	C 	0.16110 0.23800 0.55000 -0.05400
H 	H 	0.12240 0.28760 0.56580 0.01800
O 	O 	0.86649 0.68320 0.18177 -0.45600
O 	O 	0.87907 0.71415 0.29575 -0.46000
C 	C 	0.90361 0.67571 0.24054 0.37200
C 	C 	0.98212 0.61347 0.24502 -0.07500
C 	C 	0.02020 0.57780 0.18482 -0.01400
H 	H 	0.00100 0.59800 0.14030 0.04800
C 	C 	0.01300 0.58590 0.31010 -0.01500
H 	H 	0.98940 0.61240 0.35120 0.04700
C 	C 	0.80400 0.67610 0.02960 0.01800
H 	H 	0.77920 0.61860 0.04680 0.03400
H 	H 	0.86600 0.68160 0.04700 0.01300
C 	C 	0.83820 0.73500 0.02890 -0.06000
H 	H 	0.85980 0.67530 0.04470 0.01900
C 	C 	0.80400 0.67630 0.95010 0.01200
H 	H 	0.77980 0.61880 0.93280 0.01200
H 	H 	0.86620 0.68220 0.93300 0.03300
C 	C 	0.73800 0.66110 0.95000 -0.05400
H 	H 	0.78760 0.62240 0.93420 0.01800
O 	O 	0.63351 0.81680 0.18177 -0.45600
O 	O 	0.62093 0.78585 0.29575 -0.46000
C 	C 	0.59639 0.82429 0.24054 0.37200
C 	C 	0.51788 0.88653 0.24502 -0.07600
C 	C 	0.47980 0.92220 0.18482 -0.01400
H 	H 	0.49900 0.90200 0.14030 0.04800
C 	C 	0.48700 0.91410 0.31010 -0.01500
H 	H 	0.51060 0.88760 0.35120 0.04600
C 	C 	0.69600 0.82390 0.02960 0.01800
H 	H 	0.72080 0.88140 0.04680 0.03400
H 	H 	0.63400 0.81840 0.04700 0.01300
C 	C 	0.66180 0.76500 0.02890 -0.06000
H 	H 	0.64020 0.82470 0.04470 0.01900
C 	C 	0.69600 0.82370 0.95010 0.01200
H 	H 	0.72020 0.88120 0.93280 0.01200
H 	H 	0.63380 0.81780 0.93300 0.03300
C 	C 	0.76200 0.83890 0.95000 -0.05400
H 	H 	0.71240 0.87760 0.93420 0.01800
O 	O 	0.68320 0.63351 0.18177 -0.45600
O 	O 	0.71415 0.62093 0.29575 -0.46000
C 	C 	0.67571 0.59639 0.24054 0.37200
C 	C 	0.61347 0.51788 0.24502 -0.07600
C 	C 	0.57780 0.47980 0.18482 -0.01400
H 	H 	0.59800 0.49900 0.14030 0.04800
C 	C 	0.58590 0.48700 0.31010 -0.01400
H 	H 	0.61240 0.51060 0.35120 0.04600
C 	C 	0.67610 0.69600 0.02960 0.01800
H 	H 	0.61860 0.72080 0.04680 0.03400
H 	H 	0.68160 0.63400 0.04700 0.01300
C 	C 	0.73500 0.66180 0.02890 -0.06000
H 	H 	0.67530 0.64020 0.04470 0.01900
C 	C 	0.67630 0.69600 0.95010 0.01200
H 	H 	0.61880 0.72020 0.93280 0.01200
H 	H 	0.68220 0.63380 0.93300 0.03300
C 	C 	0.66110 0.76200 0.95000 -0.05400
H 	H 	0.62240 0.71240 0.93420 0.01800
O 	O 	0.81680 0.86649 0.18177 -0.45600
O 	O 	0.78585 0.87907 0.29575 -0.46000
C 	C 	0.82429 0.90361 0.24054 0.37200
C 	C 	0.88653 0.98212 0.24502 -0.07500
C 	C 	0.92220 0.02020 0.18482 -0.01400
H 	H 	0.90200 0.00100 0.14030 0.04800
C 	C 	0.91410 0.01300 0.31010 -0.01600
H 	H 	0.88760 0.98940 0.35120 0.04700
C 	C 	0.82390 0.80400 0.02960 0.01800
H 	H 	0.88140 0.77920 0.04680 0.03400
H 	H 	0.81840 0.86600 0.04700 0.01300
C 	C 	0.76500 0.83820 0.02890 -0.06000
H 	H 	0.82470 0.85980 0.04470 0.01900
C 	C 	0.82370 0.80400 0.95010 0.01200
H 	H 	0.88120 0.77980 0.93280 0.01200
H 	H 	0.81780 0.86620 0.93300 0.03300
C 	C 	0.83890 0.73800 0.95000 -0.05400
H 	H 	0.87760 0.78760 0.93420 0.01800
O 	O 	0.86649 0.81680 0.68177 -0.45600
O 	O 	0.87907 0.78585 0.79575 -0.46000
C 	C 	0.90361 0.82429 0.74054 0.37200
C 	C 	0.98212 0.88653 0.74502 -0.07600
C 	C 	0.02020 0.92220 0.68482 -0.01300
H 	H 	0.00100 0.90200 0.64030 0.04800
C 	C 	0.01300 0.91410 0.81010 -0.01500
H 	H 	0.98940 0.88760 0.85120 0.04600
C 	C 	0.80400 0.82390 0.52960 0.01800
H 	H 	0.77920 0.88140 0.54680 0.03400
H 	H 	0.86600 0.81840 0.54700 0.01300
C 	C 	0.83820 0.76500 0.52890 -0.06000
H 	H 	0.85980 0.82470 0.54470 0.01900
C 	C 	0.80400 0.82370 0.45010 0.01200
H 	H 	0.77980 0.88120 0.43280 0.01200
H 	H 	0.86620 0.81780 0.43300 0.03300
C 	C 	0.73800 0.83890 0.45000 -0.05400
H 	H 	0.78760 0.87760 0.43420 0.01800
O 	O 	0.63351 0.68320 0.68177 -0.45600
O 	O 	0.62093 0.71415 0.79575 -0.46000
C 	C 	0.59639 0.67571 0.74054 0.37200
C 	C 	0.51788 0.61347 0.74502 -0.07600
C 	C 	0.47980 0.57780 0.68482 -0.01400
H 	H 	0.49900 0.59800 0.64030 0.04800
C 	C 	0.48700 0.58590 0.81010 -0.01400
H 	H 	0.51060 0.61240 0.85120 0.04600
C 	C 	0.69600 0.67610 0.52960 0.01800
H 	H 	0.72080 0.61860 0.54680 0.03400
H 	H 	0.63400 0.68160 0.54700 0.01300
C 	C 	0.66180 0.73500 0.52890 -0.06000
H 	H 	0.64020 0.67530 0.54470 0.01900
C 	C 	0.69600 0.67630 0.45010 0.01200
H 	H 	0.72020 0.61880 0.43280 0.01200
H 	H 	0.63380 0.68220 0.43300 0.03300
C 	C 	0.76200 0.66110 0.45000 -0.05400
H 	H 	0.71240 0.62240 0.43420 0.01800
O 	O 	0.68320 0.86649 0.68177 -0.45600
O 	O 	0.71415 0.87907 0.79575 -0.46000
C 	C 	0.67571 0.90361 0.74054 0.37200
C 	C 	0.61347 0.98212 0.74502 -0.07600
C 	C 	0.57780 0.02020 0.68482 -0.01400
H 	H 	0.59800 0.00100 0.64030 0.04800
C 	C 	0.58590 0.01300 0.81010 -0.01400
H 	H 	0.61240 0.98940 0.85120 0.04600
C 	C 	0.67610 0.80400 0.52960 0.01800
H 	H 	0.61860 0.77920 0.54680 0.03400
H 	H 	0.68160 0.86600 0.54700 0.01300
C 	C 	0.73500 0.83820 0.52890 -0.06000
H 	H 	0.67530 0.85980 0.54470 0.01900
C 	C 	0.67630 0.80400 0.45010 0.01200
H 	H 	0.61880 0.77980 0.43280 0.01200
H 	H 	0.68220 0.86620 0.43300 0.03300
C 	C 	0.66110 0.73800 0.45000 -0.05400
H 	H 	0.62240 0.78760 0.43420 0.01800
O 	O 	0.81680 0.63351 0.68177 -0.45600
O 	O 	0.78585 0.62093 0.79575 -0.46000
C 	C 	0.82429 0.59639 0.74054 0.37200
C 	C 	0.88653 0.51788 0.74502 -0.07600
C 	C 	0.92220 0.47980 0.68482 -0.01300
H 	H 	0.90200 0.49900 0.64030 0.04800
C 	C 	0.91410 0.48700 0.81010 -0.01400
H 	H 	0.88760 0.51060 0.85120 0.04600
C 	C 	0.82390 0.69600 0.52960 0.01800
H 	H 	0.88140 0.72080 0.54680 0.03400
H 	H 	0.81840 0.63400 0.54700 0.01300
C 	C 	0.76500 0.66180 0.52890 -0.06000
H 	H 	0.82470 0.64020 0.54470 0.01900
C 	C 	0.82370 0.69600 0.45010 0.01200
H 	H 	0.88120 0.72020 0.43280 0.01200
H 	H 	0.81780 0.63380 0.43300 0.03300
C 	C 	0.83890 0.76200 0.45000 -0.05400
H 	H 	0.87760 0.71240 0.43420 0.01800
O 	O 	0.13351 0.31680 0.81823 -0.45600
O 	O 	0.12093 0.28585 0.70425 -0.46000
C 	C 	0.09639 0.32429 0.75946 0.37200
C 	C 	0.01788 0.38653 0.75498 -0.07500
C 	C 	0.97980 0.42220 0.81518 -0.01400
H 	H 	0.99900 0.40200 0.85970 0.04800
C 	C 	0.98700 0.41410 0.68990 -0.01500
H 	H 	0.01060 0.38760 0.64880 0.04700
C 	C 	0.19600 0.32390 0.97040 0.01800
H 	H 	0.22080 0.38140 0.95320 0.03400
H 	H 	0.13400 0.31840 0.95300 0.01300
C 	C 	0.16180 0.26500 0.97110 -0.06000
H 	H 	0.14020 0.32470 0.95530 0.01900
C 	C 	0.19600 0.32370 0.04990 0.01200
H 	H 	0.22020 0.38120 0.06720 0.01200
H 	H 	0.13380 0.31780 0.06700 0.03300
C 	C 	0.26200 0.33890 0.05000 -0.05400
H 	H 	0.21240 0.37760 0.06580 0.01800
O 	O 	0.36649 0.18320 0.81823 -0.45600
O 	O 	0.37907 0.21415 0.70425 -0.46000
C 	C 	0.40361 0.17571 0.75946 0.37200
C 	C 	0.48212 0.11347 0.75498 -0.07600
C 	C 	0.52020 0.07780 0.81518 -0.01400
H 	H 	0.50100 0.09800 0.85970 0.04800
C 	C 	0.51300 0.08590 0.68990 -0.01500
H 	H 	0.48940 0.11240 0.64880 0.04600
C 	C 	0.30400 0.17610 0.97040 0.01800
H 	H 	0.27920 0.11860 0.95320 0.03400
H 	H 	0.36600 0.18160 0.95300 0.01300
C 	C 	0.33820 0.23500 0.97110 -0.06000
H 	H 	0.35980 0.17530 0.95530 0.01900
C 	C 	0.30400 0.17630 0.04990 0.01200
H 	H 	0.27980 0.11880 0.06720 0.01200
H 	H 	0.36620 0.18220 0.06700 0.03300
C 	C 	0.23800 0.16110 0.05000 -0.05400
H 	H 	0.28760 0.12240 0.06580 0.01800
O 	O 	0.31680 0.36649 0.81823 -0.45600
O 	O 	0.28585 0.37907 0.70425 -0.46000
C 	C 	0.32429 0.40361 0.75946 0.37200
C 	C 	0.38653 0.48212 0.75498 -0.07600
C 	C 	0.42220 0.52020 0.81518 -0.01400
H 	H 	0.40200 0.50100 0.85970 0.04800
C 	C 	0.41410 0.51300 0.68990 -0.01400
H 	H 	0.38760 0.48940 0.64880 0.04600
C 	C 	0.32390 0.30400 0.97040 0.01800
H 	H 	0.38140 0.27920 0.95320 0.03400
H 	H 	0.31840 0.36600 0.95300 0.01300
C 	C 	0.26500 0.33820 0.97110 -0.06000
H 	H 	0.32470 0.35980 0.95530 0.01900
C 	C 	0.32370 0.30400 0.04990 0.01200
H 	H 	0.38120 0.27980 0.06720 0.01200
H 	H 	0.31780 0.36620 0.06700 0.03300
C 	C 	0.33890 0.23800 0.05000 -0.05400
H 	H 	0.37760 0.28760 0.06580 0.01800
O 	O 	0.18320 0.13351 0.81823 -0.45600
O 	O 	0.21415 0.12093 0.70425 -0.46000
C 	C 	0.17571 0.09639 0.75946 0.37200
C 	C 	0.11347 0.01788 0.75498 -0.07500
C 	C 	0.07780 0.97980 0.81518 -0.01400
H 	H 	0.09800 0.99900 0.85970 0.04800
C 	C 	0.08590 0.98700 0.68990 -0.01600
H 	H 	0.11240 0.01060 0.64880 0.04700
C 	C 	0.17610 0.19600 0.97040 0.01800
H 	H 	0.11860 0.22080 0.95320 0.03400
H 	H 	0.18160 0.13400 0.95300 0.01300
C 	C 	0.23500 0.16180 0.97110 -0.06000
H 	H 	0.17530 0.14020 0.95530 0.01900
C 	C 	0.17630 0.19600 0.04990 0.01200
H 	H 	0.11880 0.22020 0.06720 0.01200
H 	H 	0.18220 0.13380 0.06700 0.03300
C 	C 	0.16110 0.26200 0.05000 -0.05400
H 	H 	0.12240 0.21240 0.06580 0.01800
Zn	Zn	0.25000 0.25000 0.33713 1.21300
Zn	Zn	0.25000 0.25000 0.18405 1.21100
N 	N 	0.25000 0.25000 0.44360 -0.19500
N 	N 	0.25000 0.25000 0.57740 -0.19700
Zn	Zn	0.75000 0.75000 0.16287 1.21300
Zn	Zn	0.75000 0.75000 0.31595 1.21100
N 	N 	0.75000 0.75000 0.05640 -0.19600
N 	N 	0.75000 0.75000 0.92260 -0.19700
Zn	Zn	0.75000 0.75000 0.66287 1.21300
Zn	Zn	0.75000 0.75000 0.81595 1.21100
N 	N 	0.75000 0.75000 0.55640 -0.19500
N 	N 	0.75000 0.75000 0.42260 -0.19700
Zn	Zn	0.25000 0.25000 0.83713 1.21300
Zn	Zn	0.25000 0.25000 0.68405 1.21100
N 	N 	0.25000 0.25000 0.94360 -0.19600
N 	N 	0.25000 0.25000 0.07740 -0.19700
