data_crystal

_cell_length_a 14.97560
_cell_length_b 14.97560
_cell_length_c 19.20260
_cell_angle_alpha 90.00000
_cell_angle_beta  90.00000
_cell_angle_gamma 90.00000

_symmetry_space_group_name_	'P 1'
_symmetry_space_group_name_H-M	'P 1'

loop_
_symmetry_equiv_pos_as_xyz
  x,y,z

loop_
_atom_site_label
_atom_site_type_symbol
_atom_site_fract_x
_atom_site_fract_y
_atom_site_fract_z
_atom_site_charge
O 	O 	0.13309 0.18466 0.31601 -0.45900
O 	O 	0.12249 0.20994 0.20157 -0.46200
C 	C 	0.09727 0.17448 0.25739 0.38100
C 	C 	0.01896 0.11238 0.25395 -0.07900
C 	C 	0.98180 0.07770 0.31446 -0.01100
H 	H 	0.00150 0.09840 0.35860 0.04800
C 	C 	0.98703 0.08400 0.18955 -0.01200
H 	H 	0.00980 0.11000 0.14810 0.04700
C 	C 	0.19640 0.17590 0.46840 0.01200
H 	H 	0.22050 0.11880 0.45050 0.03500
H 	H 	0.13420 0.18200 0.45180 0.01200
C 	C 	0.16130 0.23300 0.46890 -0.05500
H 	H 	0.14030 0.17420 0.45280 0.02100
C 	C 	0.19740 0.17460 0.54700 0.00900
H 	H 	0.22340 0.11750 0.56330 0.01100
H 	H 	0.13530 0.17820 0.56460 0.03300
C 	C 	0.26400 0.16130 0.54860 -0.05200
H 	H 	0.21560 0.12160 0.56490 0.02100
O 	O 	0.36691 0.31534 0.31601 -0.46000
O 	O 	0.37751 0.29006 0.20157 -0.46300
C 	C 	0.40273 0.32552 0.25739 0.38000
C 	C 	0.48104 0.38762 0.25395 -0.07900
C 	C 	0.51820 0.42230 0.31446 -0.01300
H 	H 	0.49850 0.40160 0.35860 0.04800
C 	C 	0.51297 0.41600 0.18955 -0.01400
H 	H 	0.49020 0.39000 0.14810 0.04600
C 	C 	0.30360 0.32410 0.46840 0.01100
H 	H 	0.27950 0.38120 0.45050 0.03400
H 	H 	0.36580 0.31800 0.45180 0.01200
C 	C 	0.33870 0.26700 0.46890 -0.05500
H 	H 	0.35970 0.32580 0.45280 0.02100
C 	C 	0.30260 0.32540 0.54700 0.00900
H 	H 	0.27660 0.38250 0.56330 0.01100
H 	H 	0.36470 0.32180 0.56460 0.03300
C 	C 	0.23600 0.33870 0.54860 -0.05200
H 	H 	0.28440 0.37840 0.56490 0.02100
O 	O 	0.31534 0.13309 0.31601 -0.46000
O 	O 	0.29006 0.12249 0.20157 -0.46300
C 	C 	0.32552 0.09727 0.25739 0.38000
C 	C 	0.38762 0.01896 0.25395 -0.07900
C 	C 	0.42230 0.98180 0.31446 -0.01200
H 	H 	0.40160 0.00150 0.35860 0.04700
C 	C 	0.41600 0.98703 0.18955 -0.01300
H 	H 	0.39000 0.00980 0.14810 0.04600
C 	C 	0.32410 0.19640 0.46840 0.01100
H 	H 	0.38120 0.22050 0.45050 0.03400
H 	H 	0.31800 0.13420 0.45180 0.01200
C 	C 	0.26700 0.16130 0.46890 -0.05500
H 	H 	0.32580 0.14030 0.45280 0.02100
C 	C 	0.32540 0.19740 0.54700 0.00900
H 	H 	0.38250 0.22340 0.56330 0.01100
H 	H 	0.32180 0.13530 0.56460 0.03300
C 	C 	0.33870 0.26400 0.54860 -0.05200
H 	H 	0.37840 0.21560 0.56490 0.02100
O 	O 	0.18466 0.36691 0.31601 -0.46000
O 	O 	0.20994 0.37751 0.20157 -0.46300
C 	C 	0.17448 0.40273 0.25739 0.38000
C 	C 	0.11238 0.48104 0.25395 -0.07900
C 	C 	0.07770 0.51820 0.31446 -0.01300
H 	H 	0.09840 0.49850 0.35860 0.04800
C 	C 	0.08400 0.51297 0.18955 -0.01400
H 	H 	0.11000 0.49020 0.14810 0.04600
C 	C 	0.17590 0.30360 0.46840 0.01100
H 	H 	0.11880 0.27950 0.45050 0.03400
H 	H 	0.18200 0.36580 0.45180 0.01200
C 	C 	0.23300 0.33870 0.46890 -0.05500
H 	H 	0.17420 0.35970 0.45280 0.02100
C 	C 	0.17460 0.30260 0.54700 0.00900
H 	H 	0.11750 0.27660 0.56330 0.01100
H 	H 	0.17820 0.36470 0.56460 0.03300
C 	C 	0.16130 0.23600 0.54860 -0.05200
H 	H 	0.12160 0.28440 0.56490 0.02100
O 	O 	0.86691 0.68466 0.18399 -0.46000
O 	O 	0.87751 0.70994 0.29843 -0.46300
C 	C 	0.90273 0.67448 0.24261 0.38000
C 	C 	0.98104 0.61238 0.24605 -0.07900
C 	C 	0.01820 0.57770 0.18554 -0.01200
H 	H 	0.99850 0.59840 0.14140 0.04700
C 	C 	0.01297 0.58400 0.31045 -0.01300
H 	H 	0.99020 0.61000 0.35190 0.04600
C 	C 	0.80360 0.67590 0.03160 0.01100
H 	H 	0.77950 0.61880 0.04950 0.03400
H 	H 	0.86580 0.68200 0.04820 0.01200
C 	C 	0.83870 0.73300 0.03110 -0.05500
H 	H 	0.85970 0.67420 0.04720 0.02100
C 	C 	0.80260 0.67460 0.95300 0.00900
H 	H 	0.77660 0.61750 0.93670 0.01100
H 	H 	0.86470 0.67820 0.93540 0.03300
C 	C 	0.73600 0.66130 0.95140 -0.05200
H 	H 	0.78440 0.62160 0.93510 0.02100
O 	O 	0.63309 0.81534 0.18399 -0.46000
O 	O 	0.62249 0.79006 0.29843 -0.46300
C 	C 	0.59727 0.82552 0.24261 0.38000
C 	C 	0.51896 0.88762 0.24605 -0.07900
C 	C 	0.48180 0.92230 0.18554 -0.01300
H 	H 	0.50150 0.90160 0.14140 0.04800
C 	C 	0.48703 0.91600 0.31045 -0.01400
H 	H 	0.50980 0.89000 0.35190 0.04700
C 	C 	0.69640 0.82410 0.03160 0.01100
H 	H 	0.72050 0.88120 0.04950 0.03400
H 	H 	0.63420 0.81800 0.04820 0.01200
C 	C 	0.66130 0.76700 0.03110 -0.05500
H 	H 	0.64030 0.82580 0.04720 0.02100
C 	C 	0.69740 0.82540 0.95300 0.00900
H 	H 	0.72340 0.88250 0.93670 0.01100
H 	H 	0.63530 0.82180 0.93540 0.03300
C 	C 	0.76400 0.83870 0.95140 -0.05200
H 	H 	0.71560 0.87840 0.93510 0.02100
O 	O 	0.68466 0.63309 0.18399 -0.46000
O 	O 	0.70994 0.62249 0.29843 -0.46300
C 	C 	0.67448 0.59727 0.24261 0.38000
C 	C 	0.61238 0.51896 0.24605 -0.07900
C 	C 	0.57770 0.48180 0.18554 -0.01300
H 	H 	0.59840 0.50150 0.14140 0.04800
C 	C 	0.58400 0.48703 0.31045 -0.01400
H 	H 	0.61000 0.50980 0.35190 0.04600
C 	C 	0.67590 0.69640 0.03160 0.01100
H 	H 	0.61880 0.72050 0.04950 0.03400
H 	H 	0.68200 0.63420 0.04820 0.01200
C 	C 	0.73300 0.66130 0.03110 -0.05500
H 	H 	0.67420 0.64030 0.04720 0.02100
C 	C 	0.67460 0.69740 0.95300 0.00900
H 	H 	0.61750 0.72340 0.93670 0.01100
H 	H 	0.67820 0.63530 0.93540 0.03300
C 	C 	0.66130 0.76400 0.95140 -0.05200
H 	H 	0.62160 0.71560 0.93510 0.02100
O 	O 	0.81534 0.86691 0.18399 -0.46000
O 	O 	0.79006 0.87751 0.29843 -0.46300
C 	C 	0.82552 0.90273 0.24261 0.38000
C 	C 	0.88762 0.98104 0.24605 -0.08000
C 	C 	0.92230 0.01820 0.18554 -0.01200
H 	H 	0.90160 0.99850 0.14140 0.04700
C 	C 	0.91600 0.01297 0.31045 -0.01300
H 	H 	0.89000 0.99020 0.35190 0.04600
C 	C 	0.82410 0.80360 0.03160 0.01100
H 	H 	0.88120 0.77950 0.04950 0.03400
H 	H 	0.81800 0.86580 0.04820 0.01200
C 	C 	0.76700 0.83870 0.03110 -0.05500
H 	H 	0.82580 0.85970 0.04720 0.02100
C 	C 	0.82540 0.80260 0.95300 0.00900
H 	H 	0.88250 0.77660 0.93670 0.01100
H 	H 	0.82180 0.86470 0.93540 0.03300
C 	C 	0.83870 0.73600 0.95140 -0.05200
H 	H 	0.87840 0.78440 0.93510 0.02100
O 	O 	0.86691 0.81534 0.68399 -0.46000
O 	O 	0.87751 0.79006 0.79843 -0.46300
C 	C 	0.90273 0.82552 0.74261 0.38000
C 	C 	0.98104 0.88762 0.74605 -0.08000
C 	C 	0.01820 0.92230 0.68554 -0.01200
H 	H 	0.99850 0.90160 0.64140 0.04700
C 	C 	0.01297 0.91600 0.81045 -0.01300
H 	H 	0.99020 0.89000 0.85190 0.04600
C 	C 	0.80360 0.82410 0.53160 0.01100
H 	H 	0.77950 0.88120 0.54950 0.03400
H 	H 	0.86580 0.81800 0.54820 0.01200
C 	C 	0.83870 0.76700 0.53110 -0.05500
H 	H 	0.85970 0.82580 0.54720 0.02100
C 	C 	0.80260 0.82540 0.45300 0.00900
H 	H 	0.77660 0.88250 0.43670 0.01100
H 	H 	0.86470 0.82180 0.43540 0.03300
C 	C 	0.73600 0.83870 0.45140 -0.05200
H 	H 	0.78440 0.87840 0.43510 0.02100
O 	O 	0.63309 0.68466 0.68399 -0.46000
O 	O 	0.62249 0.70994 0.79843 -0.46300
C 	C 	0.59727 0.67448 0.74261 0.38000
C 	C 	0.51896 0.61238 0.74605 -0.07900
C 	C 	0.48180 0.57770 0.68554 -0.01300
H 	H 	0.50150 0.59840 0.64140 0.04800
C 	C 	0.48703 0.58400 0.81045 -0.01400
H 	H 	0.50980 0.61000 0.85190 0.04600
C 	C 	0.69640 0.67590 0.53160 0.01100
H 	H 	0.72050 0.61880 0.54950 0.03400
H 	H 	0.63420 0.68200 0.54820 0.01200
C 	C 	0.66130 0.73300 0.53110 -0.05500
H 	H 	0.64030 0.67420 0.54720 0.02100
C 	C 	0.69740 0.67460 0.45300 0.00900
H 	H 	0.72340 0.61750 0.43670 0.01100
H 	H 	0.63530 0.67820 0.43540 0.03300
C 	C 	0.76400 0.66130 0.45140 -0.05200
H 	H 	0.71560 0.62160 0.43510 0.02100
O 	O 	0.68466 0.86691 0.68399 -0.46000
O 	O 	0.70994 0.87751 0.79843 -0.46300
C 	C 	0.67448 0.90273 0.74261 0.38000
C 	C 	0.61238 0.98104 0.74605 -0.07900
C 	C 	0.57770 0.01820 0.68554 -0.01200
H 	H 	0.59840 0.99850 0.64140 0.04700
C 	C 	0.58400 0.01297 0.81045 -0.01300
H 	H 	0.61000 0.99020 0.85190 0.04600
C 	C 	0.67590 0.80360 0.53160 0.01100
H 	H 	0.61880 0.77950 0.54950 0.03400
H 	H 	0.68200 0.86580 0.54820 0.01200
C 	C 	0.73300 0.83870 0.53110 -0.05500
H 	H 	0.67420 0.85970 0.54720 0.02100
C 	C 	0.67460 0.80260 0.45300 0.00900
H 	H 	0.61750 0.77660 0.43670 0.01100
H 	H 	0.67820 0.86470 0.43540 0.03300
C 	C 	0.66130 0.73600 0.45140 -0.05200
H 	H 	0.62160 0.78440 0.43510 0.02100
O 	O 	0.81534 0.63309 0.68399 -0.46000
O 	O 	0.79006 0.62249 0.79843 -0.46300
C 	C 	0.82552 0.59727 0.74261 0.38000
C 	C 	0.88762 0.51896 0.74605 -0.07900
C 	C 	0.92230 0.48180 0.68554 -0.01300
H 	H 	0.90160 0.50150 0.64140 0.04800
C 	C 	0.91600 0.48703 0.81045 -0.01400
H 	H 	0.89000 0.50980 0.85190 0.04600
C 	C 	0.82410 0.69640 0.53160 0.01100
H 	H 	0.88120 0.72050 0.54950 0.03400
H 	H 	0.81800 0.63420 0.54820 0.01200
C 	C 	0.76700 0.66130 0.53110 -0.05500
H 	H 	0.82580 0.64030 0.54720 0.02100
C 	C 	0.82540 0.69740 0.45300 0.00900
H 	H 	0.88250 0.72340 0.43670 0.01100
H 	H 	0.82180 0.63530 0.43540 0.03300
C 	C 	0.83870 0.76400 0.45140 -0.05200
H 	H 	0.87840 0.71560 0.43510 0.02100
O 	O 	0.13309 0.31534 0.81601 -0.46000
O 	O 	0.12249 0.29006 0.70157 -0.46300
C 	C 	0.09727 0.32552 0.75739 0.38000
C 	C 	0.01896 0.38762 0.75395 -0.07900
C 	C 	0.98180 0.42230 0.81446 -0.01200
H 	H 	0.00150 0.40160 0.85860 0.04700
C 	C 	0.98703 0.41600 0.68955 -0.01300
H 	H 	0.00980 0.39000 0.64810 0.04600
C 	C 	0.19640 0.32410 0.96840 0.01100
H 	H 	0.22050 0.38120 0.95050 0.03400
H 	H 	0.13420 0.31800 0.95180 0.01200
C 	C 	0.16130 0.26700 0.96890 -0.05500
H 	H 	0.14030 0.32580 0.95280 0.02100
C 	C 	0.19740 0.32540 0.04700 0.00900
H 	H 	0.22340 0.38250 0.06330 0.01100
H 	H 	0.13530 0.32180 0.06460 0.03300
C 	C 	0.26400 0.33870 0.04860 -0.05200
H 	H 	0.21560 0.37840 0.06490 0.02100
O 	O 	0.36691 0.18466 0.81601 -0.46000
O 	O 	0.37751 0.20994 0.70157 -0.46300
C 	C 	0.40273 0.17448 0.75739 0.38000
C 	C 	0.48104 0.11238 0.75395 -0.07900
C 	C 	0.51820 0.07770 0.81446 -0.01300
H 	H 	0.49850 0.09840 0.85860 0.04800
C 	C 	0.51297 0.08400 0.68955 -0.01400
H 	H 	0.49020 0.11000 0.64810 0.04700
C 	C 	0.30360 0.17590 0.96840 0.01100
H 	H 	0.27950 0.11880 0.95050 0.03400
H 	H 	0.36580 0.18200 0.95180 0.01200
C 	C 	0.33870 0.23300 0.96890 -0.05500
H 	H 	0.35970 0.17420 0.95280 0.02100
C 	C 	0.30260 0.17460 0.04700 0.00900
H 	H 	0.27660 0.11750 0.06330 0.01100
H 	H 	0.36470 0.17820 0.06460 0.03300
C 	C 	0.23600 0.16130 0.04860 -0.05200
H 	H 	0.28440 0.12160 0.06490 0.02100
O 	O 	0.31534 0.36691 0.81601 -0.46000
O 	O 	0.29006 0.37751 0.70157 -0.46300
C 	C 	0.32552 0.40273 0.75739 0.38000
C 	C 	0.38762 0.48104 0.75395 -0.07900
C 	C 	0.42230 0.51820 0.81446 -0.01300
H 	H 	0.40160 0.49850 0.85860 0.04800
C 	C 	0.41600 0.51297 0.68955 -0.01400
H 	H 	0.39000 0.49020 0.64810 0.04600
C 	C 	0.32410 0.30360 0.96840 0.01100
H 	H 	0.38120 0.27950 0.95050 0.03400
H 	H 	0.31800 0.36580 0.95180 0.01200
C 	C 	0.26700 0.33870 0.96890 -0.05500
H 	H 	0.32580 0.35970 0.95280 0.02100
C 	C 	0.32540 0.30260 0.04700 0.00900
H 	H 	0.38250 0.27660 0.06330 0.01100
H 	H 	0.32180 0.36470 0.06460 0.03300
C 	C 	0.33870 0.23600 0.04860 -0.05200
H 	H 	0.37840 0.28440 0.06490 0.02100
O 	O 	0.18466 0.13309 0.81601 -0.46000
O 	O 	0.20994 0.12249 0.70157 -0.46300
C 	C 	0.17448 0.09727 0.75739 0.38000
C 	C 	0.11238 0.01896 0.75395 -0.08000
C 	C 	0.07770 0.98180 0.81446 -0.01200
H 	H 	0.09840 0.00150 0.85860 0.04700
C 	C 	0.08400 0.98703 0.68955 -0.01300
H 	H 	0.11000 0.00980 0.64810 0.04600
C 	C 	0.17590 0.19640 0.96840 0.01100
H 	H 	0.11880 0.22050 0.95050 0.03400
H 	H 	0.18200 0.13420 0.95180 0.01200
C 	C 	0.23300 0.16130 0.96890 -0.05500
H 	H 	0.17420 0.14030 0.95280 0.02100
C 	C 	0.17460 0.19740 0.04700 0.00900
H 	H 	0.11750 0.22340 0.06330 0.01100
H 	H 	0.17820 0.13530 0.06460 0.03300
C 	C 	0.16130 0.26400 0.04860 -0.05200
H 	H 	0.12160 0.21560 0.06490 0.02100
Zn	Zn	0.25000 0.25000 0.33481 1.21300
Zn	Zn	0.25000 0.25000 0.18158 1.21200
N 	N 	0.25000 0.25000 0.44150 -0.19400
N 	N 	0.25000 0.25000 0.57520 -0.19500
Zn	Zn	0.75000 0.75000 0.16519 1.21300
Zn	Zn	0.75000 0.75000 0.31842 1.21200
N 	N 	0.75000 0.75000 0.05850 -0.19400
N 	N 	0.75000 0.75000 0.92480 -0.19500
Zn	Zn	0.75000 0.75000 0.66519 1.21300
Zn	Zn	0.75000 0.75000 0.81842 1.21200
N 	N 	0.75000 0.75000 0.55850 -0.19400
N 	N 	0.75000 0.75000 0.42480 -0.19500
Zn	Zn	0.25000 0.25000 0.83481 1.21300
Zn	Zn	0.25000 0.25000 0.68158 1.21200
N 	N 	0.25000 0.25000 0.94150 -0.19400
N 	N 	0.25000 0.25000 0.07520 -0.19500
