data_crystal

_cell_length_a 15.02940
_cell_length_b 15.02940
_cell_length_c 19.23620
_cell_angle_alpha 90.00000
_cell_angle_beta  90.00000
_cell_angle_gamma 90.00000

_symmetry_space_group_name_	'P 1'
_symmetry_space_group_name_H-M	'P 1'

loop_
_symmetry_equiv_pos_as_xyz
  x,y,z

loop_
_atom_site_label
_atom_site_type_symbol
_atom_site_fract_x
_atom_site_fract_y
_atom_site_fract_z
_atom_site_charge
O 	O 	0.94566 0.12168 0.05779 -0.48200
C 	C 	0.82953 0.26451 0.06218 -0.01000
H 	H 	0.85270 0.24360 0.10450 0.04600
C 	C 	0.95400 0.07790 0.21120 2.25600
H 	H 	0.90290 0.09400 0.18230 -0.25700
H 	H 	0.99440 0.12900 0.21410 -0.66400
C 	C 	0.91530 0.02500 0.20860 -2.02100
O 	O 	0.44566 0.62168 0.55779 -0.46900
C 	C 	0.32953 0.76451 0.56218 -0.01300
H 	H 	0.35270 0.74360 0.60450 0.04400
C 	C 	0.45400 0.57790 0.71120 -0.05500
H 	H 	0.40290 0.59400 0.68230 0.03700
H 	H 	0.49440 0.62900 0.71410 0.04700
C 	C 	0.41530 0.52500 0.70860 -0.00200
O 	O 	0.05434 0.87832 0.05779 -0.47900
C 	C 	0.17047 0.73549 0.06218 -0.00300
H 	H 	0.14730 0.75640 0.10450 0.04100
C 	C 	0.04600 0.92210 0.21120 -2.22500
H 	H 	0.09710 0.90600 0.18230 0.32900
H 	H 	0.00560 0.87100 0.21410 0.60700
C 	C 	0.08470 0.97500 0.20860 1.69900
O 	O 	0.55434 0.37832 0.55779 -0.46500
C 	C 	0.67047 0.23549 0.56218 -0.01800
H 	H 	0.64730 0.25640 0.60450 0.05300
C 	C 	0.54600 0.42210 0.71120 -0.02400
H 	H 	0.59710 0.40600 0.68230 0.03100
H 	H 	0.50560 0.37100 0.71410 0.04800
C 	C 	0.58470 0.47500 0.70860 -0.03300
O 	O 	0.87832 0.94566 0.05779 -0.54600
C 	C 	0.73549 0.82953 0.06218 -0.00400
H 	H 	0.75640 0.85270 0.10450 0.01600
C 	C 	0.92210 0.95400 0.21120 0.17000
H 	H 	0.90600 0.90290 0.18230 -0.25800
H 	H 	0.87100 0.99440 0.21410 0.73900
C 	C 	0.97500 0.91530 0.20860 0.45700
O 	O 	0.37832 0.44566 0.55779 -0.46200
C 	C 	0.23549 0.32953 0.56218 0.00200
H 	H 	0.25640 0.35270 0.60450 0.05700
C 	C 	0.42210 0.45400 0.71120 -0.04900
H 	H 	0.40600 0.40290 0.68230 0.04400
H 	H 	0.37100 0.49440 0.71410 0.04900
C 	C 	0.47500 0.41530 0.70860 -0.01800
O 	O 	0.12168 0.05434 0.05779 -0.43300
C 	C 	0.26451 0.17047 0.06218 -0.00600
H 	H 	0.24360 0.14730 0.10450 0.06500
C 	C 	0.07790 0.04600 0.21120 -0.61500
H 	H 	0.09400 0.09710 0.18230 0.36100
H 	H 	0.12900 0.00560 0.21410 -0.41900
C 	C 	0.02500 0.08470 0.20860 -0.22500
O 	O 	0.62168 0.55434 0.55779 -0.47100
C 	C 	0.76451 0.67047 0.56218 -0.03800
H 	H 	0.74360 0.64730 0.60450 0.04100
C 	C 	0.57790 0.54600 0.71120 -0.03000
H 	H 	0.59400 0.59710 0.68230 0.02300
H 	H 	0.62900 0.50560 0.71410 0.04600
C 	C 	0.52500 0.58470 0.70860 -0.01700
O 	O 	0.05434 0.12168 0.44221 -0.43900
C 	C 	0.17047 0.26451 0.43782 -0.00900
H 	H 	0.14730 0.24360 0.39550 0.06800
C 	C 	0.04600 0.07790 0.28880 -0.61100
H 	H 	0.09710 0.09400 0.31770 0.36200
H 	H 	0.00560 0.12900 0.28590 -0.42000
C 	C 	0.08470 0.02500 0.29140 -0.23100
O 	O 	0.55434 0.62168 0.94221 -0.42200
C 	C 	0.67047 0.76451 0.93782 0.01400
H 	H 	0.64730 0.74360 0.89550 0.03100
C 	C 	0.54600 0.57790 0.78880 -0.03000
H 	H 	0.59710 0.59400 0.81770 0.02400
H 	H 	0.50560 0.62900 0.78590 0.04700
C 	C 	0.58470 0.52500 0.79140 -0.01800
O 	O 	0.94566 0.87832 0.44221 -0.55300
C 	C 	0.82953 0.73549 0.43782 -0.00700
H 	H 	0.85270 0.75640 0.39550 0.01800
C 	C 	0.95400 0.92210 0.28880 0.16600
H 	H 	0.90290 0.90600 0.31770 -0.25700
H 	H 	0.99440 0.87100 0.28590 0.74200
C 	C 	0.91530 0.97500 0.29140 0.46000
O 	O 	0.44566 0.37832 0.94221 -0.41300
C 	C 	0.32953 0.23549 0.93782 0.05400
H 	H 	0.35270 0.25640 0.89550 0.04600
C 	C 	0.45400 0.42210 0.78880 -0.04900
H 	H 	0.40290 0.40600 0.81770 0.04600
H 	H 	0.49440 0.37100 0.78590 0.05000
C 	C 	0.41530 0.47500 0.79140 -0.01900
O 	O 	0.12168 0.94566 0.44221 -0.48700
C 	C 	0.26451 0.82953 0.43782 -0.01300
H 	H 	0.24360 0.85270 0.39550 0.04800
C 	C 	0.07790 0.95400 0.28880 2.26000
H 	H 	0.09400 0.90290 0.31770 -0.25600
H 	H 	0.12900 0.99440 0.28590 -0.66300
C 	C 	0.02500 0.91530 0.29140 -2.02400
O 	O 	0.62168 0.44566 0.94221 -0.42000
C 	C 	0.76451 0.32953 0.93782 0.03900
H 	H 	0.74360 0.35270 0.89550 0.03400
C 	C 	0.57790 0.45400 0.78880 -0.05400
H 	H 	0.59400 0.40290 0.81770 0.03800
H 	H 	0.62900 0.49440 0.78590 0.04800
C 	C 	0.52500 0.41530 0.79140 -0.00300
O 	O 	0.87832 0.05434 0.44221 -0.48500
C 	C 	0.73549 0.17047 0.43782 -0.00700
H 	H 	0.75640 0.14730 0.39550 0.04300
C 	C 	0.92210 0.04600 0.28880 -2.22800
H 	H 	0.90600 0.09710 0.31770 0.33100
H 	H 	0.87100 0.00560 0.28590 0.60700
C 	C 	0.97500 0.08470 0.29140 1.70000
O 	O 	0.37832 0.55434 0.94221 -0.41600
C 	C 	0.23549 0.67047 0.93782 0.03400
H 	H 	0.25640 0.64730 0.89550 0.04300
C 	C 	0.42210 0.54600 0.78880 -0.02400
H 	H 	0.40600 0.59710 0.81770 0.03200
H 	H 	0.37100 0.50560 0.78590 0.04900
C 	C 	0.47500 0.58470 0.79140 -0.03500
O 	O 	0.05434 0.87832 0.94221 -0.43700
C 	C 	0.17047 0.73549 0.93782 0.04500
H 	H 	0.14730 0.75640 0.89550 0.03400
C 	C 	0.04600 0.92210 0.78880 -2.22600
H 	H 	0.09710 0.90600 0.81770 0.33200
H 	H 	0.00560 0.87100 0.78590 0.61000
C 	C 	0.08470 0.97500 0.79140 1.69900
O 	O 	0.55434 0.37832 0.44221 -0.46500
C 	C 	0.67047 0.23549 0.43782 -0.01800
H 	H 	0.64730 0.25640 0.39550 0.05200
C 	C 	0.54600 0.42210 0.28880 -0.02300
H 	H 	0.59710 0.40600 0.31770 0.03000
H 	H 	0.50560 0.37100 0.28590 0.04700
C 	C 	0.58470 0.47500 0.29140 -0.03400
O 	O 	0.94566 0.12168 0.94221 -0.43900
C 	C 	0.82953 0.26451 0.93782 0.03800
H 	H 	0.85270 0.24360 0.89550 0.03900
C 	C 	0.95400 0.07790 0.78880 2.25700
H 	H 	0.90290 0.09400 0.81770 -0.25400
H 	H 	0.99440 0.12900 0.78590 -0.66200
C 	C 	0.91530 0.02500 0.79140 -2.02400
O 	O 	0.44566 0.62168 0.44221 -0.46900
C 	C 	0.32953 0.76451 0.43782 -0.01400
H 	H 	0.35270 0.74360 0.39550 0.04300
C 	C 	0.45400 0.57790 0.28880 -0.05400
H 	H 	0.40290 0.59400 0.31770 0.03600
H 	H 	0.49440 0.62900 0.28590 0.04600
C 	C 	0.41530 0.52500 0.29140 -0.00300
O 	O 	0.12168 0.05434 0.94221 -0.39100
C 	C 	0.26451 0.17047 0.93782 0.04300
H 	H 	0.24360 0.14730 0.89550 0.05900
C 	C 	0.07790 0.04600 0.78880 -0.61600
H 	H 	0.09400 0.09710 0.81770 0.36400
H 	H 	0.12900 0.00560 0.78590 -0.41700
C 	C 	0.02500 0.08470 0.79140 -0.22700
O 	O 	0.62168 0.55434 0.44221 -0.47200
C 	C 	0.76451 0.67047 0.43782 -0.03900
H 	H 	0.74360 0.64730 0.39550 0.04000
C 	C 	0.57790 0.54600 0.28880 -0.02900
H 	H 	0.59400 0.59710 0.31770 0.02200
H 	H 	0.62900 0.50560 0.28590 0.04500
C 	C 	0.52500 0.58470 0.29140 -0.01800
O 	O 	0.87832 0.94566 0.94221 -0.50400
C 	C 	0.73549 0.82953 0.93782 0.04400
H 	H 	0.75640 0.85270 0.89550 0.00900
C 	C 	0.92210 0.95400 0.78880 0.17000
H 	H 	0.90600 0.90290 0.81770 -0.25500
H 	H 	0.87100 0.99440 0.78590 0.74200
C 	C 	0.97500 0.91530 0.79140 0.45500
O 	O 	0.37832 0.44566 0.44221 -0.46300
C 	C 	0.23549 0.32953 0.43782 0.00200
H 	H 	0.25640 0.35270 0.39550 0.05600
C 	C 	0.42210 0.45400 0.28880 -0.04800
H 	H 	0.40600 0.40290 0.31770 0.04300
H 	H 	0.37100 0.49440 0.28590 0.04800
C 	C 	0.47500 0.41530 0.29140 -0.01900
O 	O 	0.94566 0.87832 0.55779 -0.55300
C 	C 	0.82953 0.73549 0.56218 -0.00700
H 	H 	0.85270 0.75640 0.60450 0.01900
C 	C 	0.95400 0.92210 0.71120 0.16500
H 	H 	0.90290 0.90600 0.68230 -0.25600
H 	H 	0.99440 0.87100 0.71410 0.74300
C 	C 	0.91530 0.97500 0.70860 0.46100
O 	O 	0.44566 0.37832 0.05779 -0.45600
C 	C 	0.32953 0.23549 0.06218 0.00500
H 	H 	0.35270 0.25640 0.10450 0.05300
C 	C 	0.45400 0.42210 0.21120 -0.04900
H 	H 	0.40290 0.40600 0.18230 0.04200
H 	H 	0.49440 0.37100 0.21410 0.04700
C 	C 	0.41530 0.47500 0.20860 -0.01800
O 	O 	0.05434 0.12168 0.55779 -0.43900
C 	C 	0.17047 0.26451 0.56218 -0.00900
H 	H 	0.14730 0.24360 0.60450 0.06900
C 	C 	0.04600 0.07790 0.71120 -0.61200
H 	H 	0.09710 0.09400 0.68230 0.36300
H 	H 	0.00560 0.12900 0.71410 -0.42000
C 	C 	0.08470 0.02500 0.70860 -0.23000
O 	O 	0.55434 0.62168 0.05779 -0.46600
C 	C 	0.67047 0.76451 0.06218 -0.03500
H 	H 	0.64730 0.74360 0.10450 0.03800
C 	C 	0.54600 0.57790 0.21120 -0.03000
H 	H 	0.59710 0.59400 0.18230 0.02100
H 	H 	0.50560 0.62900 0.21410 0.04400
C 	C 	0.58470 0.52500 0.20860 -0.01700
O 	O 	0.87832 0.05434 0.55779 -0.48500
C 	C 	0.73549 0.17047 0.56218 -0.00600
H 	H 	0.75640 0.14730 0.60450 0.04400
C 	C 	0.92210 0.04600 0.71120 -2.23000
H 	H 	0.90600 0.09710 0.68230 0.33200
H 	H 	0.87100 0.00560 0.71410 0.60800
C 	C 	0.97500 0.08470 0.70860 1.70200
O 	O 	0.37832 0.55434 0.05779 -0.45900
C 	C 	0.23549 0.67047 0.06218 -0.01500
H 	H 	0.25640 0.64730 0.10450 0.05000
C 	C 	0.42210 0.54600 0.21120 -0.02400
H 	H 	0.40600 0.59710 0.18230 0.02900
H 	H 	0.37100 0.50560 0.21410 0.04600
C 	C 	0.47500 0.58470 0.20860 -0.03300
O 	O 	0.12168 0.94566 0.55779 -0.48700
C 	C 	0.26451 0.82953 0.56218 -0.01300
H 	H 	0.24360 0.85270 0.60450 0.04900
C 	C 	0.07790 0.95400 0.71120 2.26000
H 	H 	0.09400 0.90290 0.68230 -0.25600
H 	H 	0.12900 0.99440 0.71410 -0.66200
C 	C 	0.02500 0.91530 0.70860 -2.02400
O 	O 	0.62168 0.44566 0.05779 -0.46300
C 	C 	0.76451 0.32953 0.06218 -0.01000
H 	H 	0.74360 0.35270 0.10450 0.04100
C 	C 	0.57790 0.45400 0.21120 -0.05500
H 	H 	0.59400 0.40290 0.18230 0.03500
H 	H 	0.62900 0.49440 0.21410 0.04500
C 	C 	0.52500 0.41530 0.20860 -0.00200
Zn	Zn	-0.00000 0.00000 0.07664 1.27800
N 	N 	0.00000 0.00000 0.18296 -0.01900
Zn	Zn	0.50000 0.50000 0.57664 1.21400
N 	N 	0.50000 0.50000 0.68296 -0.18800
Zn	Zn	-0.00000 -0.00000 0.42336 1.28400
N 	N 	-0.00000 -0.00000 0.31704 -0.01700
Zn	Zn	0.50000 0.50000 0.92336 1.21600
N 	N 	0.50000 0.50000 0.81704 -0.18900
Zn	Zn	0.00000 0.00000 0.92336 1.28500
N 	N 	-0.00000 -0.00000 0.81704 -0.01800
Zn	Zn	0.50000 0.50000 0.42336 1.21400
N 	N 	0.50000 0.50000 0.31704 -0.18800
Zn	Zn	-0.00000 -0.00000 0.57664 1.28400
N 	N 	0.00000 0.00000 0.68296 -0.01700
Zn	Zn	0.50000 0.50000 0.07664 1.20900
N 	N 	0.50000 0.50000 0.18296 -0.18900
C 	C 	0.92270 0.15180 -0.00000 0.35000
C 	C 	0.86070 0.23000 -0.00000 -0.13000
C 	C 	0.42270 0.65180 0.50000 0.39100
C 	C 	0.36070 0.73000 0.50000 -0.08600
C 	C 	0.07730 0.84820 -0.00000 0.34800
C 	C 	0.13930 0.77000 -0.00000 -0.13700
C 	C 	0.57730 0.34820 0.50000 0.39000
C 	C 	0.63930 0.27000 0.50000 -0.07600
C 	C 	0.84820 0.92270 -0.00000 0.34500
C 	C 	0.77000 0.86070 -0.00000 -0.16600
C 	C 	0.34820 0.42270 0.50000 0.39700
C 	C 	0.27000 0.36070 0.50000 -0.07800
C 	C 	0.15180 0.07730 -0.00000 0.35600
C 	C 	0.23000 0.13930 -0.00000 -0.11000
C 	C 	0.65180 0.57730 0.50000 0.38300
C 	C 	0.73000 0.63930 0.50000 -0.08100
C 	C 	0.07730 0.15180 0.50000 0.41000
C 	C 	0.13930 0.23000 0.50000 -0.06300
C 	C 	0.57730 0.65180 -0.00000 0.32900
C 	C 	0.63930 0.73000 -0.00000 -0.12800
C 	C 	0.92270 0.84820 0.50000 0.39700
C 	C 	0.86070 0.77000 0.50000 -0.12100
C 	C 	0.42270 0.34820 -0.00000 0.34200
C 	C 	0.36070 0.27000 -0.00000 -0.12500
C 	C 	0.15180 0.92270 0.50000 0.40300
C 	C 	0.23000 0.86070 0.50000 -0.08400
C 	C 	0.65180 0.42270 -0.00000 0.33700
C 	C 	0.73000 0.36070 -0.00000 -0.13300
C 	C 	0.84820 0.07730 0.50000 0.40200
C 	C 	0.77000 0.13930 0.50000 -0.09100
C 	C 	0.34820 0.57730 -0.00000 0.33500
C 	C 	0.27000 0.63930 -0.00000 -0.12300
