data_crystal

_cell_length_a 11.92450
_cell_length_b 11.92450
_cell_length_c 16.30200
_cell_angle_alpha 90.00000
_cell_angle_beta  90.00000
_cell_angle_gamma 120.00000

_symmetry_space_group_name_	'P 1'
_symmetry_space_group_name_H-M	'P 1'

loop_
_symmetry_equiv_pos_as_xyz
  x,y,z

loop_
_atom_site_label
_atom_site_type_symbol
_atom_site_fract_x
_atom_site_fract_y
_atom_site_fract_z
_atom_site_charge
Ni	Ni	0.45662 0.50488 0.85893 1.00700
Ni	Ni	0.04826 0.54338 0.52560 0.98300
Ni	Ni	0.49512 0.95174 0.19226 1.01700
Ni	Ni	0.95174 0.49512 0.14107 1.01600
Ni	Ni	0.50488 0.45662 0.47440 1.00100
Ni	Ni	0.54338 0.04826 0.80774 0.98900
Ni	Ni	0.37325 0.00000 -0.00000 1.06200
Ni	Ni	0.62675 0.62675 0.66667 1.10400
Ni	Ni	-0.00000 0.37325 0.33333 1.08100
C 	C 	0.48610 0.28640 0.82500 -0.01100
C 	C 	0.39350 0.23230 0.93900 0.07600
C 	C 	0.53840 0.36490 0.74810 0.28700
C 	C 	0.31990 0.21070 0.01720 0.20300
C 	C 	0.80030 0.51390 0.49167 -0.00400
C 	C 	0.83880 0.60650 0.60567 0.02200
C 	C 	0.82650 0.46160 0.41477 0.28400
C 	C 	0.89080 0.68010 0.68387 0.32400
C 	C 	0.71360 0.19970 0.15833 -0.01900
C 	C 	0.76770 0.16120 0.27233 0.03800
C 	C 	0.63510 0.17350 0.08143 0.28900
C 	C 	0.78930 0.10920 0.35053 0.19900
C 	C 	0.19970 0.71360 0.17500 -0.01800
C 	C 	0.16120 0.76770 0.06100 -0.01600
C 	C 	0.17350 0.63510 0.25190 0.28600
C 	C 	0.10920 0.78930 0.98280 0.24500
C 	C 	0.28640 0.48610 0.50833 -0.01500
C 	C 	0.23230 0.39350 0.39433 0.01900
C 	C 	0.36490 0.53840 0.58523 0.28500
C 	C 	0.21070 0.31990 0.31613 0.25800
C 	C 	0.51390 0.80030 0.84167 0.00300
C 	C 	0.60650 0.83880 0.72767 0.02400
C 	C 	0.46160 0.82650 0.91857 0.28200
C 	C 	0.68010 0.89080 0.64947 0.31600
N 	N 	0.42550 0.14500 0.92014 -0.20200
N 	N 	0.42770 0.32290 0.88170 -0.23900
N 	N 	0.48730 0.17820 0.84630 -0.20800
N 	N 	0.71950 0.57450 0.58681 -0.19800
N 	N 	0.89520 0.57230 0.54837 -0.21900
N 	N 	0.69090 0.51270 0.51297 -0.20700
N 	N 	0.85500 0.28050 0.25347 -0.19200
N 	N 	0.67710 0.10480 0.21503 -0.25000
N 	N 	0.82180 0.30910 0.17963 -0.20200
N 	N 	0.28050 0.85500 0.07986 -0.19400
N 	N 	0.10480 0.67710 0.11830 -0.24900
N 	N 	0.30910 0.82180 0.15370 -0.20400
N 	N 	0.14500 0.42550 0.41319 -0.20900
N 	N 	0.32290 0.42770 0.45163 -0.23700
N 	N 	0.17820 0.48730 0.48703 -0.21200
N 	N 	0.57450 0.71950 0.74653 -0.19800
N 	N 	0.57230 0.89520 0.78497 -0.22000
N 	N 	0.51270 0.69090 0.82037 -0.20400
O 	O 	0.54320 0.47510 0.75137 -0.52100
O 	O 	0.30160 0.11100 0.05657 -0.37500
O 	O 	0.56970 0.32290 0.68900 -0.33100
O 	O 	0.28080 0.28530 0.03880 -0.28600
O 	O 	0.93190 0.45680 0.41804 -0.49300
O 	O 	0.80940 0.69840 0.72324 -0.35300
O 	O 	0.75320 0.43030 0.35567 -0.32300
O 	O 	0.00450 0.71920 0.70547 -0.31600
O 	O 	0.52490 0.06810 0.08470 -0.55300
O 	O 	0.88900 0.19060 0.38990 -0.32600
O 	O 	0.67710 0.24680 0.02233 -0.35000
O 	O 	0.71470 0.99550 0.37213 -0.21000
O 	O 	0.06810 0.52490 0.24863 -0.54600
O 	O 	0.19060 0.88900 0.94343 -0.31900
O 	O 	0.24680 0.67710 0.31100 -0.32800
O 	O 	0.99550 0.71470 0.96120 -0.19300
O 	O 	0.47510 0.54320 0.58196 -0.52300
O 	O 	0.11100 0.30160 0.27676 -0.37900
O 	O 	0.32290 0.56970 0.64433 -0.33200
O 	O 	0.28530 0.28080 0.29453 -0.28200
O 	O 	0.45680 0.93190 0.91530 -0.47600
O 	O 	0.69840 0.80940 0.61010 -0.35500
O 	O 	0.43030 0.75320 0.97767 -0.29400
O 	O 	0.71920 0.00450 0.62787 -0.30900
