data_crystal

_cell_length_a 7.42960
_cell_length_b 11.62700
_cell_length_c 14.07610
_cell_angle_alpha 114.39400
_cell_angle_beta  98.77230
_cell_angle_gamma 90.00000

_symmetry_space_group_name_	'P 1'
_symmetry_space_group_name_H-M	'P 1'

loop_
_symmetry_equiv_pos_as_xyz
  x,y,z

loop_
_atom_site_label
_atom_site_type_symbol
_atom_site_fract_x
_atom_site_fract_y
_atom_site_fract_z
_atom_site_charge
Sr	Sr	0.43847 0.15841 0.88946 1.48700
Sr	Sr	0.06153 0.26895 0.11054 1.51000
Sr	Sr	0.56153 0.84159 0.11054 1.51200
Sr	Sr	0.93847 0.73105 0.88946 1.48900
H 	H 	0.70400 0.11010 0.04020 0.32300
H 	H 	0.92430 0.28990 0.63040 -0.04000
H 	H 	0.95530 0.21920 0.45480 0.13400
H 	H 	0.31700 0.10970 0.60960 0.12200
H 	H 	0.65100 0.96320 0.56580 -0.02000
H 	H 	0.10310 0.85020 0.72300 0.08300
H 	H 	0.93670 0.91430 0.68700 0.10500
H 	H 	0.79600 0.06990 0.95980 0.20600
H 	H 	0.57570 0.65950 0.36960 -0.03400
H 	H 	0.54470 0.76440 0.54520 0.13200
H 	H 	0.18300 0.50010 0.39040 0.11500
H 	H 	0.84900 0.39740 0.43420 -0.02500
H 	H 	0.39690 0.12720 0.27700 0.08900
H 	H 	0.56330 0.22730 0.31300 0.10600
H 	H 	0.29600 0.88990 0.95980 0.22800
H 	H 	0.07570 0.71010 0.36960 -0.04400
H 	H 	0.04470 0.78080 0.54520 0.14100
H 	H 	0.68300 0.89030 0.39040 0.11100
H 	H 	0.34900 0.03680 0.43420 -0.04100
H 	H 	0.89690 0.14980 0.27700 0.08600
H 	H 	0.06330 0.08570 0.31300 0.09500
H 	H 	0.20400 0.93010 0.04020 0.32900
H 	H 	0.42430 0.34050 0.63040 -0.04400
H 	H 	0.45530 0.23560 0.45480 0.13500
H 	H 	0.81700 0.49990 0.60960 0.10900
H 	H 	0.15100 0.60260 0.56580 -0.03000
H 	H 	0.60310 0.87280 0.72300 0.09400
H 	H 	0.43670 0.77270 0.68700 0.11200
C 	C 	0.76050 0.18235 0.73070 0.40100
C 	C 	0.78190 0.13479 0.61658 -0.22500
C 	C 	0.87410 0.21003 0.58206 0.17300
C 	C 	0.89260 0.16804 0.47688 -0.28800
C 	C 	0.18290 0.95098 0.59536 0.30600
C 	C 	0.27050 0.02867 0.56174 -0.32400
C 	C 	0.71160 0.01518 0.54356 0.15900
C 	C 	0.05460 0.93091 0.73242 -0.20800
C 	C 	0.03040 0.00226 0.84592 0.40200
C 	C 	0.73950 0.45165 0.26930 0.39300
C 	C 	0.71810 0.51821 0.38342 -0.22100
C 	C 	0.62590 0.62797 0.41794 0.17000
C 	C 	0.60740 0.69116 0.52312 -0.28700
C 	C 	0.31710 0.35562 0.40464 0.27900
C 	C 	0.22950 0.46693 0.43826 -0.29000
C 	C 	0.78840 0.47162 0.45644 0.16900
C 	C 	0.44540 0.19849 0.26758 -0.22300
C 	C 	0.46960 0.15634 0.15408 0.41100
C 	C 	0.23950 0.81765 0.26930 0.40200
C 	C 	0.21810 0.86521 0.38342 -0.24500
C 	C 	0.12590 0.78997 0.41794 0.19300
C 	C 	0.10740 0.83196 0.52312 -0.31400
C 	C 	0.81710 0.04902 0.40464 0.27300
C 	C 	0.72950 0.97133 0.43826 -0.27300
C 	C 	0.28840 0.98482 0.45644 0.20600
C 	C 	0.94540 0.06909 0.26758 -0.20400
C 	C 	0.96960 0.99774 0.15408 0.41200
C 	C 	0.26050 0.54835 0.73070 0.40400
C 	C 	0.28190 0.48179 0.61658 -0.23500
C 	C 	0.37410 0.37203 0.58206 0.17900
C 	C 	0.39260 0.30884 0.47688 -0.29700
C 	C 	0.68290 0.64438 0.59536 0.27300
C 	C 	0.77050 0.53307 0.56174 -0.28000
C 	C 	0.21160 0.52838 0.54356 0.17800
C 	C 	0.55460 0.80151 0.73242 -0.24000
C 	C 	0.53040 0.84366 0.84592 0.43000
O 	O 	0.65240 0.12309 0.75682 -0.48500
O 	O 	0.85930 0.28173 0.79354 -0.40000
O 	O 	0.17490 0.00003 0.70198 -0.31300
O 	O 	0.10710 0.10990 0.90282 -0.59700
O 	O 	0.92460 0.94220 0.87452 -0.49400
O 	O 	0.84760 0.36627 0.24318 -0.45700
O 	O 	0.64070 0.48819 0.20646 -0.35500
O 	O 	0.32510 0.29805 0.29802 -0.29100
O 	O 	0.39290 0.20708 0.09718 -0.51600
O 	O 	0.57540 0.06768 0.12548 -0.45600
O 	O 	0.34760 0.87691 0.24318 -0.46200
O 	O 	0.14070 0.71827 0.20646 -0.36100
O 	O 	0.82510 0.99997 0.29802 -0.29200
O 	O 	0.89290 0.89010 0.09718 -0.51300
O 	O 	0.07540 0.05780 0.12548 -0.46400
O 	O 	0.15240 0.63373 0.75682 -0.48400
O 	O 	0.35930 0.51181 0.79354 -0.40200
O 	O 	0.67490 0.70195 0.70198 -0.29100
O 	O 	0.60710 0.79292 0.90282 -0.60000
O 	O 	0.42460 0.93232 0.87452 -0.50700
O 	O 	0.75000 0.13460 -0.00000 -0.73200
O 	O 	0.25000 0.86540 -0.00000 -0.76200
