data_crystal

_cell_length_a 24.74200
_cell_length_b 33.47500
_cell_length_c 18.46210
_cell_angle_alpha 90.00000
_cell_angle_beta  90.00000
_cell_angle_gamma 90.00000

_symmetry_space_group_name_	'P 1'
_symmetry_space_group_name_H-M	'P 1'

loop_
_symmetry_equiv_pos_as_xyz
  x,y,z

loop_
_atom_site_label
_atom_site_type_symbol
_atom_site_fract_x
_atom_site_fract_y
_atom_site_fract_z
_atom_site_charge
Cu	Cu	0.21502 0.27176 0.43366 0.91100
Cu	Cu	0.29441 0.23715 0.50733 0.90700
O 	O 	0.32214 0.29120 0.51600 -0.40800
O 	O 	0.44354 0.57006 0.30660 -0.40600
O 	O 	0.44367 0.43534 0.65740 -0.39600
O 	O 	0.23830 0.23934 0.85170 -0.41500
O 	O 	0.25473 0.31989 0.45300 -0.40200
O 	O 	0.18083 0.27672 0.52720 -0.39700
O 	O 	0.17141 0.26955 0.91082 -0.42000
O 	O 	0.24810 0.24747 0.58990 -0.41900
O 	O 	0.24784 0.68815 0.48550 -0.43000
O 	O 	0.31342 0.71760 0.42470 -0.44500
O 	O 	0.44400 0.63660 0.29770 -0.41400
C 	C 	0.31210 0.64734 0.43520 -0.08500
C 	C 	0.35910 0.64367 0.39020 0.03300
H 	H 	0.37600 0.66650 0.37270 0.05300
O 	O 	0.44620 0.36903 0.64920 -0.40900
C 	C 	0.29150 0.39618 0.49470 0.03400
H 	H 	0.26120 0.39410 0.46520 0.03300
C 	C 	0.37900 0.60696 0.37290 -0.09700
C 	C 	0.30660 0.57511 0.43790 -0.05800
C 	C 	0.30730 0.43346 0.51870 -0.09300
C 	C 	0.38100 0.40116 0.58430 -0.12300
C 	C 	0.29700 0.32098 0.49460 0.35200
C 	C 	0.31900 0.36215 0.51320 -0.10200
C 	C 	0.17380 0.27492 0.65350 -0.10700
C 	C 	0.04770 0.32846 0.71060 0.19700
C 	C 	0.28840 0.69058 0.44790 0.42000
C 	C 	0.10110 0.30688 0.71650 -0.08600
C 	C 	0.28530 0.61356 0.45890 0.00900
H 	H 	0.25460 0.61550 0.48760 0.04600
C 	C 	0.42570 0.40135 0.63410 0.37600
C 	C 	0.19470 0.25859 0.85580 0.38000
C 	C 	0.21740 0.53948 0.46450 -0.24000
H 	H 	0.19700 0.56190 0.45280 0.13100
C 	C 	0.20530 0.26538 0.58730 0.35900
C 	C 	0.12670 0.29643 0.65310 0.03200
H 	H 	0.11170 0.30410 0.60900 0.03500
C 	C 	0.19600 0.26095 0.71960 0.04000
H 	H 	0.22780 0.24610 0.72010 0.04800
C 	C 	0.42560 0.60391 0.32200 0.36400
C 	C 	0.27730 0.46896 0.49930 0.19100
C 	C 	0.35360 0.43540 0.56460 0.04100
H 	H 	0.36550 0.46010 0.58150 0.03200
C 	C 	0.16860 0.27011 0.78440 -0.10500
C 	C 	0.36390 0.36371 0.55850 0.05100
H 	H 	0.38220 0.34050 0.57140 0.04700
C 	C 	0.04590 0.36890 0.67610 -0.32900
H 	H 	0.07860 0.38090 0.66420 0.15600
C 	C 	0.12260 0.29239 0.78360 0.02800
H 	H 	0.10500 0.29820 0.82680 0.03500
C 	C 	0.30340 0.50435 0.48330 -0.22200
H 	H 	0.34090 0.50490 0.48790 0.11300
C 	C 	0.27770 0.53938 0.46070 0.14200
C 	C 	0.22280 0.47020 0.50060 -0.29100
H 	H 	0.20400 0.44700 0.51180 0.13400
C 	C 	0.35180 0.57237 0.39700 0.01400
H 	H 	0.36520 0.54730 0.38460 0.04300
C 	C 	0.19410 0.50430 0.48620 0.26300
O 	O 	0.13700 0.50620 0.47800 -0.21800
C 	C 	0.10230 0.46980 0.47280 -0.12600
H 	H 	0.11280 0.45110 0.50950 -0.00200
H 	H 	0.10670 0.45790 0.42590 0.07400
H 	H 	0.06520 0.47720 0.47960 0.06100
C 	C 	0.11060 0.47440 0.52500 0.00800
H 	H 	0.07210 0.47600 0.52010 0.02400
H 	H 	0.12040 0.47860 0.57470 0.03100
H 	H 	0.12270 0.44840 0.50990 0.05000
Cu	Cu	0.71502 0.77176 0.43366 0.91100
Cu	Cu	0.79441 0.73715 0.50733 0.90800
O 	O 	0.82214 0.79120 0.51600 -0.40500
O 	O 	0.94354 0.07006 0.30660 -0.38900
O 	O 	0.94367 0.93534 0.65740 -0.37800
O 	O 	0.73830 0.73934 0.85170 -0.41300
O 	O 	0.75473 0.81989 0.45300 -0.40000
O 	O 	0.68083 0.77672 0.52720 -0.39500
O 	O 	0.67141 0.76955 0.91082 -0.41600
O 	O 	0.74810 0.74747 0.58990 -0.41600
O 	O 	0.74784 0.18815 0.48550 -0.42800
O 	O 	0.81342 0.21760 0.42470 -0.44200
O 	O 	0.94400 0.13660 0.29770 -0.39500
C 	C 	0.81210 0.14734 0.43520 -0.08000
C 	C 	0.85910 0.14367 0.39020 0.02900
H 	H 	0.87600 0.16650 0.37270 0.05800
O 	O 	0.94620 0.86903 0.64920 -0.39000
C 	C 	0.79150 0.89618 0.49470 0.03100
H 	H 	0.76120 0.89410 0.46520 0.03600
C 	C 	0.87900 0.10696 0.37290 -0.08900
C 	C 	0.80660 0.07511 0.43790 -0.05300
C 	C 	0.80730 0.93346 0.51870 -0.08800
C 	C 	0.88100 0.90116 0.58430 -0.11400
C 	C 	0.79700 0.82098 0.49460 0.35000
C 	C 	0.81900 0.86215 0.51320 -0.09600
C 	C 	0.67380 0.77492 0.65350 -0.10000
C 	C 	0.54770 0.82846 0.71060 0.18800
C 	C 	0.78840 0.19058 0.44790 0.41900
C 	C 	0.60110 0.80688 0.71650 -0.07600
C 	C 	0.78530 0.11356 0.45890 0.00600
H 	H 	0.75460 0.11550 0.48760 0.04800
C 	C 	0.92570 0.90135 0.63410 0.37100
C 	C 	0.69470 0.75859 0.85580 0.37900
C 	C 	0.71740 0.03948 0.46450 -0.23800
H 	H 	0.69700 0.06190 0.45280 0.13200
C 	C 	0.70530 0.76538 0.58730 0.35700
C 	C 	0.62670 0.79643 0.65310 0.02600
H 	H 	0.61170 0.80410 0.60900 0.04100
C 	C 	0.69600 0.76095 0.71960 0.03600
H 	H 	0.72780 0.74610 0.72010 0.05100
C 	C 	0.92560 0.10391 0.32200 0.36000
C 	C 	0.77730 0.96896 0.49930 0.19000
C 	C 	0.85360 0.93540 0.56460 0.03700
H 	H 	0.86550 0.96010 0.58150 0.03700
C 	C 	0.66860 0.77011 0.78440 -0.09800
C 	C 	0.86390 0.86371 0.55850 0.04700
H 	H 	0.88220 0.84050 0.57140 0.05300
C 	C 	0.54590 0.86890 0.67610 -0.33600
H 	H 	0.57860 0.88090 0.66420 0.16100
C 	C 	0.62260 0.79239 0.78360 0.02200
H 	H 	0.60500 0.79820 0.82680 0.04100
C 	C 	0.80340 0.00435 0.48330 -0.22000
H 	H 	0.84090 0.00490 0.48790 0.11600
C 	C 	0.77770 0.03938 0.46070 0.14200
C 	C 	0.72280 0.97020 0.50060 -0.28900
H 	H 	0.70400 0.94700 0.51180 0.13400
C 	C 	0.85180 0.07237 0.39700 0.01100
H 	H 	0.86520 0.04730 0.38460 0.04700
C 	C 	0.69410 0.00430 0.48620 0.26300
O 	O 	0.63700 0.00620 0.47800 -0.21300
C 	C 	0.60230 0.96980 0.47280 -0.12800
H 	H 	0.61280 0.95110 0.50950 -0.00100
H 	H 	0.60670 0.95790 0.42590 0.07900
H 	H 	0.56520 0.97720 0.47960 0.06700
C 	C 	0.61060 0.97440 0.52500 -0.00000
H 	H 	0.57210 0.97600 0.52010 0.03000
H 	H 	0.62040 0.97860 0.57470 0.03700
H 	H 	0.62270 0.94840 0.50990 0.05300
Cu	Cu	0.78498 0.72824 0.93366 0.91000
Cu	Cu	0.70559 0.76285 0.00733 0.90900
O 	O 	0.67786 0.70880 0.01600 -0.39800
O 	O 	0.55646 0.42994 0.80660 -0.40800
O 	O 	0.55633 0.56466 0.15740 -0.39400
O 	O 	0.76170 0.76066 0.35170 -0.41300
O 	O 	0.74527 0.68011 0.95300 -0.39700
O 	O 	0.81917 0.72328 0.02720 -0.38900
O 	O 	0.82859 0.73045 0.41082 -0.41000
O 	O 	0.75190 0.75253 0.08990 -0.41600
O 	O 	0.75216 0.31185 0.98550 -0.43000
O 	O 	0.68658 0.28240 0.92470 -0.44700
O 	O 	0.55600 0.36340 0.79770 -0.41400
C 	C 	0.68790 0.35266 0.93520 -0.08200
C 	C 	0.64090 0.35633 0.89020 0.03000
H 	H 	0.62400 0.33350 0.87270 0.05300
O 	O 	0.55380 0.63097 0.14920 -0.40600
C 	C 	0.70850 0.60382 0.99470 -0.02000
H 	H 	0.73880 0.60590 0.96520 0.05200
C 	C 	0.62100 0.39304 0.87290 -0.09500
C 	C 	0.69340 0.42489 0.93790 -0.04800
C 	C 	0.69270 0.56654 0.01870 -0.04200
C 	C 	0.61900 0.59884 0.08430 -0.10000
C 	C 	0.70300 0.67902 0.99460 0.32600
C 	C 	0.68100 0.63785 0.01320 -0.06100
C 	C 	0.82620 0.72508 0.15350 -0.10000
C 	C 	0.95230 0.67154 0.21060 0.22800
C 	C 	0.71160 0.30942 0.94790 0.41900
C 	C 	0.89890 0.69312 0.21650 -0.08200
C 	C 	0.71470 0.38644 0.95890 0.00300
H 	H 	0.74540 0.38450 0.98760 0.04900
C 	C 	0.57430 0.59865 0.13410 0.36700
C 	C 	0.80530 0.74141 0.35580 0.37900
C 	C 	0.78260 0.46052 0.96450 -0.21800
H 	H 	0.80300 0.43810 0.95280 0.12700
C 	C 	0.79470 0.73462 0.08730 0.35800
C 	C 	0.87330 0.70357 0.15310 0.03300
H 	H 	0.88830 0.69590 0.10900 0.04400
C 	C 	0.80400 0.73905 0.21960 0.03900
H 	H 	0.77220 0.75390 0.22010 0.05000
C 	C 	0.57440 0.39609 0.82200 0.36300
C 	C 	0.72270 0.53104 0.99930 0.14000
C 	C 	0.64640 0.56460 0.06460 0.01000
H 	H 	0.63450 0.53990 0.08150 0.04500
C 	C 	0.83140 0.72989 0.28440 -0.09800
C 	C 	0.63610 0.63629 0.05850 0.02300
H 	H 	0.61780 0.65950 0.07140 0.05800
C 	C 	0.95410 0.63110 0.17610 -0.28300
H 	H 	0.92140 0.61910 0.16420 0.15000
C 	C 	0.87740 0.70761 0.28360 0.03000
H 	H 	0.89500 0.70180 0.32680 0.04600
C 	C 	0.69660 0.49565 0.98330 -0.19100
H 	H 	0.65910 0.49510 0.98790 0.10100
C 	C 	0.72230 0.46062 0.96070 0.12300
C 	C 	0.77720 0.52980 0.00060 -0.23900
H 	H 	0.79600 0.55300 0.01180 0.12000
C 	C 	0.64820 0.42763 0.89700 0.00800
H 	H 	0.63480 0.45270 0.88460 0.04500
C 	C 	0.80590 0.49570 0.98620 0.23300
O 	O 	0.86300 0.49380 0.97800 -0.20100
C 	C 	0.89770 0.53020 0.97280 -0.12100
H 	H 	0.88720 0.54890 0.00950 0.00200
H 	H 	0.89330 0.54210 0.92590 0.08000
H 	H 	0.93480 0.52280 0.97960 0.06100
C 	C 	0.88940 0.52560 0.02500 -0.03400
H 	H 	0.92790 0.52400 0.02010 0.05400
H 	H 	0.87960 0.52140 0.07470 0.05400
H 	H 	0.87730 0.55160 0.00990 0.06500
Cu	Cu	0.28498 0.22824 0.93366 0.90900
Cu	Cu	0.20559 0.26285 0.00733 0.90800
O 	O 	0.17786 0.20880 0.01600 -0.40100
O 	O 	0.05646 0.92994 0.80660 -0.41700
O 	O 	0.05633 0.06466 0.15740 -0.40400
O 	O 	0.26170 0.26066 0.35170 -0.41500
O 	O 	0.24527 0.18011 0.95300 -0.39900
O 	O 	0.31917 0.22328 0.02720 -0.39200
O 	O 	0.32859 0.23045 0.41082 -0.41400
O 	O 	0.25190 0.25253 0.08990 -0.41800
O 	O 	0.25216 0.81185 0.98550 -0.43200
O 	O 	0.18658 0.78240 0.92470 -0.45000
O 	O 	0.05600 0.86340 0.79770 -0.42300
C 	C 	0.18790 0.85266 0.93520 -0.08700
C 	C 	0.14090 0.85633 0.89020 0.03200
H 	H 	0.12400 0.83350 0.87270 0.04900
O 	O 	0.05380 0.13097 0.14920 -0.41700
C 	C 	0.20850 0.10382 0.99470 -0.01900
H 	H 	0.23880 0.10590 0.96520 0.05000
C 	C 	0.12100 0.89304 0.87290 -0.10100
C 	C 	0.19340 0.92489 0.93790 -0.05100
C 	C 	0.19270 0.06654 0.01870 -0.04400
C 	C 	0.11900 0.09884 0.08430 -0.10700
C 	C 	0.20300 0.17902 0.99460 0.32700
C 	C 	0.18100 0.13785 0.01320 -0.06500
C 	C 	0.32620 0.22508 0.15350 -0.10100
C 	C 	0.45230 0.17154 0.21060 0.18800
C 	C 	0.21160 0.80942 0.94790 0.42000
C 	C 	0.39890 0.19312 0.21650 -0.07600
C 	C 	0.21470 0.88644 0.95890 0.00500
H 	H 	0.24540 0.88450 0.98760 0.04700
C 	C 	0.07430 0.09865 0.13410 0.36900
C 	C 	0.30530 0.24141 0.35580 0.37900
C 	C 	0.28260 0.96052 0.96450 -0.21900
H 	H 	0.30300 0.93810 0.95280 0.12500
C 	C 	0.29470 0.23462 0.08730 0.35800
C 	C 	0.37330 0.20357 0.15310 0.02700
H 	H 	0.38830 0.19590 0.10900 0.04200
C 	C 	0.30400 0.23905 0.21960 0.03700
H 	H 	0.27220 0.25390 0.22010 0.04900
C 	C 	0.07440 0.89609 0.82200 0.36400
C 	C 	0.22270 0.03104 0.99930 0.13900
C 	C 	0.14640 0.06460 0.06460 0.01200
H 	H 	0.13450 0.03990 0.08150 0.04100
C 	C 	0.33140 0.22989 0.28440 -0.09900
C 	C 	0.13610 0.13629 0.05850 0.02600
H 	H 	0.11780 0.15950 0.07140 0.05300
C 	C 	0.45410 0.13110 0.17610 -0.33600
H 	H 	0.42140 0.11910 0.16420 0.16100
C 	C 	0.37740 0.20761 0.28360 0.02300
H 	H 	0.39500 0.20180 0.32680 0.04100
C 	C 	0.19660 0.99565 0.98330 -0.19100
H 	H 	0.15910 0.99510 0.98790 0.09800
C 	C 	0.22230 0.96062 0.96070 0.12300
C 	C 	0.27720 0.02980 0.00060 -0.24000
H 	H 	0.29600 0.05300 0.01180 0.11900
C 	C 	0.14820 0.92763 0.89700 0.01100
H 	H 	0.13480 0.95270 0.88460 0.04100
C 	C 	0.30590 0.99570 0.98620 0.23300
O 	O 	0.36300 0.99380 0.97800 -0.20700
C 	C 	0.39770 0.03020 0.97280 -0.11500
H 	H 	0.38720 0.04890 0.00950 0.00100
H 	H 	0.39330 0.04210 0.92590 0.07300
H 	H 	0.43480 0.02280 0.97960 0.05300
C 	C 	0.38940 0.02560 0.02500 -0.02800
H 	H 	0.42790 0.02400 0.02010 0.04700
H 	H 	0.37960 0.02140 0.07470 0.04700
H 	H 	0.37730 0.05160 0.00990 0.05900
Cu	Cu	0.21502 0.72824 0.93366 0.90800
Cu	Cu	0.29441 0.76285 0.00733 0.90900
O 	O 	0.32214 0.70880 0.01600 -0.39900
O 	O 	0.44354 0.42994 0.80660 -0.40800
O 	O 	0.44367 0.56466 0.15740 -0.39400
O 	O 	0.23830 0.76066 0.35170 -0.41500
O 	O 	0.25473 0.68011 0.95300 -0.40000
O 	O 	0.18083 0.72328 0.02720 -0.39500
O 	O 	0.17141 0.73045 0.41082 -0.41700
O 	O 	0.24810 0.75253 0.08990 -0.41700
O 	O 	0.24784 0.31185 0.98550 -0.43300
O 	O 	0.31342 0.28240 0.92470 -0.44700
O 	O 	0.44400 0.36340 0.79770 -0.41400
C 	C 	0.31210 0.35266 0.93520 -0.08400
C 	C 	0.35910 0.35633 0.89020 0.03100
H 	H 	0.37600 0.33350 0.87270 0.05300
O 	O 	0.44620 0.63097 0.14920 -0.40600
C 	C 	0.29150 0.60382 0.99470 -0.01800
H 	H 	0.26120 0.60590 0.96520 0.04900
C 	C 	0.37900 0.39304 0.87290 -0.09600
C 	C 	0.30660 0.42489 0.93790 -0.04900
C 	C 	0.30730 0.56654 0.01870 -0.04400
C 	C 	0.38100 0.59884 0.08430 -0.10100
C 	C 	0.29700 0.67902 0.99460 0.32700
C 	C 	0.31900 0.63785 0.01320 -0.06300
C 	C 	0.17380 0.72508 0.15350 -0.10500
C 	C 	0.04770 0.67154 0.21060 0.19700
C 	C 	0.28840 0.30942 0.94790 0.42000
C 	C 	0.10110 0.69312 0.21650 -0.08500
C 	C 	0.28530 0.38644 0.95890 0.00400
H 	H 	0.25460 0.38450 0.98760 0.04700
C 	C 	0.42570 0.59865 0.13410 0.36800
C 	C 	0.19470 0.74141 0.35580 0.38000
C 	C 	0.21740 0.46052 0.96450 -0.22000
H 	H 	0.19700 0.43810 0.95280 0.12300
C 	C 	0.20530 0.73462 0.08730 0.35900
C 	C 	0.12670 0.70357 0.15310 0.03100
H 	H 	0.11170 0.69590 0.10900 0.03600
C 	C 	0.19600 0.73905 0.21960 0.03900
H 	H 	0.22780 0.75390 0.22010 0.04900
C 	C 	0.42560 0.39609 0.82200 0.36400
C 	C 	0.27730 0.53104 0.99930 0.14100
C 	C 	0.35360 0.56460 0.06460 0.01100
H 	H 	0.36550 0.53990 0.08150 0.04400
C 	C 	0.16860 0.72989 0.28440 -0.10300
C 	C 	0.36390 0.63629 0.05850 0.02400
H 	H 	0.38220 0.65950 0.07140 0.05700
C 	C 	0.04590 0.63110 0.17610 -0.32900
H 	H 	0.07860 0.61910 0.16420 0.15600
C 	C 	0.12260 0.70761 0.28360 0.02700
H 	H 	0.10500 0.70180 0.32680 0.03600
C 	C 	0.30340 0.49565 0.98330 -0.19200
H 	H 	0.34090 0.49510 0.98790 0.10100
C 	C 	0.27770 0.46062 0.96070 0.12300
C 	C 	0.22280 0.52980 0.00060 -0.24100
H 	H 	0.20400 0.55300 0.01180 0.11900
C 	C 	0.35180 0.42763 0.89700 0.00900
H 	H 	0.36520 0.45270 0.88460 0.04400
C 	C 	0.19410 0.49570 0.98620 0.23400
O 	O 	0.13700 0.49380 0.97800 -0.21200
C 	C 	0.10230 0.53020 0.97280 -0.11400
H 	H 	0.11280 0.54890 0.00950 0.00100
H 	H 	0.10670 0.54210 0.92590 0.06800
H 	H 	0.06520 0.52280 0.97960 0.04700
C 	C 	0.11060 0.52560 0.02500 -0.01900
H 	H 	0.07210 0.52400 0.02010 0.04000
H 	H 	0.12040 0.52140 0.07470 0.04200
H 	H 	0.12270 0.55160 0.00990 0.05500
Cu	Cu	0.71502 0.22824 0.93366 0.90900
Cu	Cu	0.79441 0.26285 0.00733 0.91000
O 	O 	0.82214 0.20880 0.01600 -0.39400
O 	O 	0.94354 0.92994 0.80660 -0.39000
O 	O 	0.94367 0.06466 0.15740 -0.37500
O 	O 	0.73830 0.26066 0.35170 -0.41200
O 	O 	0.75473 0.18011 0.95300 -0.39700
O 	O 	0.68083 0.22328 0.02720 -0.39200
O 	O 	0.67141 0.23045 0.41082 -0.41300
O 	O 	0.74810 0.25253 0.08990 -0.41500
O 	O 	0.74784 0.81185 0.98550 -0.43100
O 	O 	0.81342 0.78240 0.92470 -0.44300
O 	O 	0.94400 0.86340 0.79770 -0.39500
C 	C 	0.81210 0.85266 0.93520 -0.07900
C 	C 	0.85910 0.85633 0.89020 0.02700
H 	H 	0.87600 0.83350 0.87270 0.05800
O 	O 	0.94620 0.13097 0.14920 -0.38700
C 	C 	0.79150 0.10382 0.99470 -0.02400
H 	H 	0.76120 0.10590 0.96520 0.05300
C 	C 	0.87900 0.89304 0.87290 -0.08700
C 	C 	0.80660 0.92489 0.93790 -0.04400
C 	C 	0.80730 0.06654 0.01870 -0.03700
C 	C 	0.88100 0.09884 0.08430 -0.09200
C 	C 	0.79700 0.17902 0.99460 0.32500
C 	C 	0.81900 0.13785 0.01320 -0.05600
C 	C 	0.67380 0.22508 0.15350 -0.09900
C 	C 	0.54770 0.17154 0.21060 0.18800
C 	C 	0.78840 0.80942 0.94790 0.41800
C 	C 	0.60110 0.19312 0.21650 -0.07500
C 	C 	0.78530 0.88644 0.95890 0.00100
H 	H 	0.75460 0.88450 0.98760 0.04900
C 	C 	0.92570 0.09865 0.13410 0.36200
C 	C 	0.69470 0.24141 0.35580 0.37800
C 	C 	0.71740 0.96052 0.96450 -0.21800
H 	H 	0.69700 0.93810 0.95280 0.12400
C 	C 	0.70530 0.23462 0.08730 0.35700
C 	C 	0.62670 0.20357 0.15310 0.02600
H 	H 	0.61170 0.19590 0.10900 0.04200
C 	C 	0.69600 0.23905 0.21960 0.03500
H 	H 	0.72780 0.25390 0.22010 0.05200
C 	C 	0.92560 0.89609 0.82200 0.35900
C 	C 	0.77730 0.03104 0.99930 0.13800
C 	C 	0.85360 0.06460 0.06460 0.00600
H 	H 	0.86550 0.03990 0.08150 0.04900
C 	C 	0.66860 0.22989 0.28440 -0.09700
C 	C 	0.86390 0.13629 0.05850 0.01900
H 	H 	0.88220 0.15950 0.07140 0.06300
C 	C 	0.54590 0.13110 0.17610 -0.33600
H 	H 	0.57860 0.11910 0.16420 0.16100
C 	C 	0.62260 0.20761 0.28360 0.02200
H 	H 	0.60500 0.20180 0.32680 0.04200
C 	C 	0.80340 0.99565 0.98330 -0.18900
H 	H 	0.84090 0.99510 0.98790 0.10300
C 	C 	0.77770 0.96062 0.96070 0.12200
C 	C 	0.72280 0.02980 0.00060 -0.23800
H 	H 	0.70400 0.05300 0.01180 0.11900
C 	C 	0.85180 0.92763 0.89700 0.00500
H 	H 	0.86520 0.95270 0.88460 0.04900
C 	C 	0.69410 0.99570 0.98620 0.23200
O 	O 	0.63700 0.99380 0.97800 -0.20700
C 	C 	0.60230 0.03020 0.97280 -0.11500
H 	H 	0.61280 0.04890 0.00950 0.00100
H 	H 	0.60670 0.04210 0.92590 0.07300
H 	H 	0.56520 0.02280 0.97960 0.05300
C 	C 	0.61060 0.02560 0.02500 -0.02800
H 	H 	0.57210 0.02400 0.02010 0.04700
H 	H 	0.62040 0.02140 0.07470 0.04700
H 	H 	0.62270 0.05160 0.00990 0.05900
Cu	Cu	0.78498 0.27176 0.43366 0.91200
Cu	Cu	0.70559 0.23715 0.50733 0.90600
O 	O 	0.67786 0.29120 0.51600 -0.40900
O 	O 	0.55646 0.57006 0.30660 -0.40700
O 	O 	0.55633 0.43534 0.65740 -0.39600
O 	O 	0.76170 0.23934 0.85170 -0.41400
O 	O 	0.74527 0.31989 0.45300 -0.40000
O 	O 	0.81917 0.27672 0.52720 -0.39200
O 	O 	0.82859 0.26955 0.91082 -0.41300
O 	O 	0.75190 0.24747 0.58990 -0.41800
O 	O 	0.75216 0.68815 0.48550 -0.42700
O 	O 	0.68658 0.71760 0.42470 -0.44500
O 	O 	0.55600 0.63660 0.29770 -0.41400
C 	C 	0.68790 0.64734 0.43520 -0.08400
C 	C 	0.64090 0.64367 0.39020 0.03200
H 	H 	0.62400 0.66650 0.37270 0.05300
O 	O 	0.55380 0.36903 0.64920 -0.40900
C 	C 	0.70850 0.39618 0.49470 0.03300
H 	H 	0.73880 0.39410 0.46520 0.03600
C 	C 	0.62100 0.60696 0.37290 -0.09700
C 	C 	0.69340 0.57511 0.43790 -0.05600
C 	C 	0.69270 0.43346 0.51870 -0.09100
C 	C 	0.61900 0.40116 0.58430 -0.12300
C 	C 	0.70300 0.32098 0.49460 0.35100
C 	C 	0.68100 0.36215 0.51320 -0.10000
C 	C 	0.82620 0.27492 0.65350 -0.10200
C 	C 	0.95230 0.32846 0.71060 0.22800
C 	C 	0.71160 0.69058 0.44790 0.41900
C 	C 	0.89890 0.30688 0.71650 -0.08300
C 	C 	0.71470 0.61356 0.45890 0.00800
H 	H 	0.74540 0.61550 0.48760 0.04900
C 	C 	0.57430 0.40135 0.63410 0.37600
C 	C 	0.80530 0.25859 0.85580 0.38000
C 	C 	0.78260 0.53948 0.46450 -0.23800
H 	H 	0.80300 0.56190 0.45280 0.13400
C 	C 	0.79470 0.26538 0.58730 0.35800
C 	C 	0.87330 0.29643 0.65310 0.03300
H 	H 	0.88830 0.30410 0.60900 0.04300
C 	C 	0.80400 0.26095 0.71960 0.04000
H 	H 	0.77220 0.24610 0.72010 0.05000
C 	C 	0.57440 0.60391 0.32200 0.36400
C 	C 	0.72270 0.46896 0.49930 0.19100
C 	C 	0.64640 0.43540 0.56460 0.04000
H 	H 	0.63450 0.46010 0.58150 0.03300
C 	C 	0.83140 0.27011 0.78440 -0.09900
C 	C 	0.63610 0.36371 0.55850 0.05000
H 	H 	0.61780 0.34050 0.57140 0.04800
C 	C 	0.95410 0.36890 0.67610 -0.28300
H 	H 	0.92140 0.38090 0.66420 0.15000
C 	C 	0.87740 0.29239 0.78360 0.03000
H 	H 	0.89500 0.29820 0.82680 0.04500
C 	C 	0.69660 0.50435 0.48330 -0.22000
H 	H 	0.65910 0.50490 0.48790 0.11300
C 	C 	0.72230 0.53938 0.46070 0.14200
C 	C 	0.77720 0.47020 0.50060 -0.28900
H 	H 	0.79600 0.44700 0.51180 0.13500
C 	C 	0.64820 0.57237 0.39700 0.01400
H 	H 	0.63480 0.54730 0.38460 0.04300
C 	C 	0.80590 0.50430 0.48620 0.26300
O 	O 	0.86300 0.50620 0.47800 -0.20600
C 	C 	0.89770 0.46980 0.47280 -0.13300
H 	H 	0.88720 0.45110 0.50950 -0.00100
H 	H 	0.89330 0.45790 0.42590 0.08600
H 	H 	0.93480 0.47720 0.47960 0.07500
C 	C 	0.88940 0.47440 0.52500 -0.00800
H 	H 	0.92790 0.47600 0.52010 0.03800
H 	H 	0.87960 0.47860 0.57470 0.04400
H 	H 	0.87730 0.44840 0.50990 0.05900
Cu	Cu	0.28498 0.77176 0.43366 0.91100
Cu	Cu	0.20559 0.73715 0.50733 0.90500
O 	O 	0.17786 0.79120 0.51600 -0.41300
O 	O 	0.05646 0.07006 0.30660 -0.41700
O 	O 	0.05633 0.93534 0.65740 -0.40600
O 	O 	0.26170 0.73934 0.85170 -0.41600
O 	O 	0.24527 0.81989 0.45300 -0.40300
O 	O 	0.31917 0.77672 0.52720 -0.39600
O 	O 	0.32859 0.76955 0.91082 -0.41600
O 	O 	0.25190 0.74747 0.58990 -0.41900
O 	O 	0.25216 0.18815 0.48550 -0.43000
O 	O 	0.18658 0.21760 0.42470 -0.44800
O 	O 	0.05600 0.13660 0.29770 -0.42300
C 	C 	0.18790 0.14734 0.43520 -0.08800
C 	C 	0.14090 0.14367 0.39020 0.03500
H 	H 	0.12400 0.16650 0.37270 0.04900
O 	O 	0.05380 0.86903 0.64920 -0.41900
C 	C 	0.20850 0.89618 0.49470 0.03500
H 	H 	0.23880 0.89410 0.46520 0.03300
C 	C 	0.12100 0.10696 0.37290 -0.10300
C 	C 	0.19340 0.07511 0.43790 -0.06000
C 	C 	0.19270 0.93346 0.51870 -0.09500
C 	C 	0.11900 0.90116 0.58430 -0.12900
C 	C 	0.20300 0.82098 0.49460 0.35200
C 	C 	0.18100 0.86215 0.51320 -0.10500
C 	C 	0.32620 0.77492 0.65350 -0.10200
C 	C 	0.45230 0.82846 0.71060 0.18800
C 	C 	0.21160 0.19058 0.44790 0.42100
C 	C 	0.39890 0.80688 0.71650 -0.07700
C 	C 	0.21470 0.11356 0.45890 0.01000
H 	H 	0.24540 0.11550 0.48760 0.04600
C 	C 	0.07430 0.90135 0.63410 0.37800
C 	C 	0.30530 0.75859 0.85580 0.38000
C 	C 	0.28260 0.03948 0.46450 -0.24000
H 	H 	0.30300 0.06190 0.45280 0.13200
C 	C 	0.29470 0.76538 0.58730 0.35800
C 	C 	0.37330 0.79643 0.65310 0.02700
H 	H 	0.38830 0.80410 0.60900 0.04100
C 	C 	0.30400 0.76095 0.71960 0.03800
H 	H 	0.27220 0.74610 0.72010 0.04900
C 	C 	0.07440 0.10391 0.32200 0.36500
C 	C 	0.22270 0.96896 0.49930 0.19100
C 	C 	0.14640 0.93540 0.56460 0.04300
H 	H 	0.13450 0.96010 0.58150 0.02900
C 	C 	0.33140 0.77011 0.78440 -0.10000
C 	C 	0.13610 0.86371 0.55850 0.05300
H 	H 	0.11780 0.84050 0.57140 0.04300
C 	C 	0.45410 0.86890 0.67610 -0.33700
H 	H 	0.42140 0.88090 0.66420 0.16100
C 	C 	0.37740 0.79239 0.78360 0.02300
H 	H 	0.39500 0.79820 0.82680 0.04100
C 	C 	0.19660 0.00435 0.48330 -0.22200
H 	H 	0.15910 0.00490 0.48790 0.11100
C 	C 	0.22230 0.03938 0.46070 0.14200
C 	C 	0.27720 0.97020 0.50060 -0.29100
H 	H 	0.29600 0.94700 0.51180 0.13500
C 	C 	0.14820 0.07237 0.39700 0.01600
H 	H 	0.13480 0.04730 0.38460 0.03900
C 	C 	0.30590 0.00430 0.48620 0.26300
O 	O 	0.36300 0.00620 0.47800 -0.21300
C 	C 	0.39770 0.96980 0.47280 -0.12800
H 	H 	0.38720 0.95110 0.50950 -0.00100
H 	H 	0.39330 0.95790 0.42590 0.07900
H 	H 	0.43480 0.97720 0.47960 0.06600
C 	C 	0.38940 0.97440 0.52500 -0.00000
H 	H 	0.42790 0.97600 0.52010 0.03000
H 	H 	0.37960 0.97860 0.57470 0.03700
H 	H 	0.37730 0.94840 0.50990 0.05300
C 	C 	0.00000 0.31100 0.72870 -0.31600
H 	H 	0.00000 0.28690 0.75380 0.13500
C 	C 	-0.00000 0.38900 0.66130 0.36800
O 	O 	-0.00000 0.42160 0.63440 -0.30500
C 	C 	0.50000 0.81100 0.72870 -0.25500
H 	H 	0.50000 0.78690 0.75380 0.12700
C 	C 	0.50000 0.88900 0.66130 0.42200
O 	O 	0.50000 0.92160 0.63440 -0.30400
C 	C 	-0.00000 0.68900 0.22870 -0.31500
H 	H 	-0.00000 0.71310 0.25380 0.13600
C 	C 	-0.00000 0.61100 0.16130 0.36800
O 	O 	0.00000 0.57840 0.13440 -0.30500
C 	C 	0.50000 0.18900 0.22870 -0.25500
H 	H 	0.50000 0.21310 0.25380 0.12800
C 	C 	0.50000 0.11100 0.16130 0.42200
O 	O 	0.50000 0.07840 0.13440 -0.30300
Cu	Cu	0.50000 0.56063 0.23288 0.90200
Cu	Cu	0.50000 0.63972 0.22686 0.91100
Cu	Cu	0.00000 0.06063 0.23288 0.88500
Cu	Cu	-0.00000 0.13972 0.22686 0.89400
Cu	Cu	0.50000 0.43937 0.73288 0.90200
Cu	Cu	0.50000 0.36028 0.72686 0.91100
Cu	Cu	0.00000 0.93937 0.73288 0.88500
Cu	Cu	0.00000 0.86028 0.72686 0.89400
