data_crystal

_cell_length_a 15.34800
_cell_length_b 30.69300
_cell_length_c 9.82270
_cell_angle_alpha 90.00000
_cell_angle_beta  90.00000
_cell_angle_gamma 90.00000

_symmetry_space_group_name_	'P 1'
_symmetry_space_group_name_H-M	'P 1'

loop_
_symmetry_equiv_pos_as_xyz
  x,y,z

loop_
_atom_site_label
_atom_site_type_symbol
_atom_site_fract_x
_atom_site_fract_y
_atom_site_fract_z
_atom_site_charge
N 	N 	0.77430 0.66940 0.65590 -0.23700
N 	N 	0.71110 0.76550 0.65330 -0.10400
C 	C 	0.86680 0.65080 0.65000 0.04000
C 	C 	0.73230 0.66110 0.76700 0.11300
C 	C 	0.88040 0.61950 0.72920 -0.11400
H 	H 	0.90950 0.66190 0.59220 0.00000
H 	H 	0.69170 0.68180 0.79410 -0.02700
C 	C 	0.74040 0.62680 0.84700 -0.14300
C 	C 	0.83000 0.60460 0.84020 0.10800
H 	H 	0.93110 0.60390 0.71260 0.06900
H 	H 	0.69560 0.61690 0.90270 0.07500
C 	C 	0.84990 0.56920 0.92510 -0.04300
S 	S 	0.88860 0.52138 0.84900 -0.00600
S 	S 	0.90320 0.41596 0.14790 -0.01500
C 	C 	0.87210 0.36730 0.06430 -0.03800
C 	C 	0.84450 0.33160 0.16150 0.12100
C 	C 	0.79240 0.34100 0.27300 -0.11300
C 	C 	0.87060 0.28970 0.14640 -0.13200
C 	C 	0.76560 0.30840 0.36300 0.02200
H 	H 	0.77490 0.36960 0.28810 0.07100
H 	H 	0.90300 0.28180 0.07030 0.06600
C 	C 	0.84900 0.25770 0.24540 0.10000
H 	H 	0.73090 0.31600 0.43710 0.00800
H 	H 	0.87620 0.23070 0.24170 -0.02300
C 	C 	0.88270 0.28680 0.36000 -0.01800
H 	H 	0.91560 0.28150 0.43800 0.01600
C 	C 	0.91120 0.31980 0.26760 -0.07000
H 	H 	0.96580 0.33280 0.27250 0.05300
C 	C 	0.77260 0.30760 0.13700 -0.08500
H 	H 	0.73880 0.31170 0.05960 0.05000
C 	C 	0.75150 0.27540 0.23800 0.02600
H 	H 	0.69680 0.26230 0.23490 0.00200
C 	C 	0.85580 0.64600 0.85400 -0.07600
H 	H 	0.89410 0.65330 0.92350 0.05100
C 	C 	0.82660 0.67850 0.76630 -0.00000
H 	H 	0.84280 0.70720 0.78280 0.01300
C 	C 	0.73560 0.62900 0.63800 -0.00500
H 	H 	0.69370 0.62460 0.57120 0.01600
C 	C 	0.76310 0.59320 0.72800 -0.05900
H 	H 	0.74130 0.56510 0.71850 0.05100
N 	N 	0.80880 0.26290 0.33900 -0.12300
N 	N 	0.22570 0.33060 0.65590 -0.23600
N 	N 	0.28890 0.23450 0.65330 -0.10300
C 	C 	0.13320 0.34920 0.65000 0.04100
C 	C 	0.26770 0.33890 0.76700 0.11400
C 	C 	0.11960 0.38050 0.72920 -0.11300
H 	H 	0.09050 0.33810 0.59220 0.00100
H 	H 	0.30830 0.31820 0.79410 -0.02600
C 	C 	0.25960 0.37320 0.84700 -0.14200
C 	C 	0.17000 0.39540 0.84020 0.10900
H 	H 	0.06890 0.39610 0.71260 0.07000
H 	H 	0.30440 0.38310 0.90270 0.07600
C 	C 	0.15010 0.43080 0.92510 -0.04200
S 	S 	0.11140 0.47862 0.84900 -0.00500
S 	S 	0.09680 0.58404 0.14790 -0.01400
C 	C 	0.12790 0.63270 0.06430 -0.03700
C 	C 	0.15550 0.66840 0.16150 0.12200
C 	C 	0.20760 0.65900 0.27300 -0.11200
C 	C 	0.12940 0.71030 0.14640 -0.13100
C 	C 	0.23440 0.69160 0.36300 0.02200
H 	H 	0.22510 0.63040 0.28810 0.07100
H 	H 	0.09700 0.71820 0.07030 0.06600
C 	C 	0.15100 0.74230 0.24540 0.10000
H 	H 	0.26910 0.68400 0.43710 0.00800
H 	H 	0.12380 0.76930 0.24170 -0.02300
C 	C 	0.11730 0.71320 0.36000 -0.01800
H 	H 	0.08440 0.71850 0.43800 0.01600
C 	C 	0.08880 0.68020 0.26760 -0.07000
H 	H 	0.03420 0.66720 0.27250 0.05300
C 	C 	0.22740 0.69240 0.13700 -0.08500
H 	H 	0.26120 0.68830 0.05960 0.05000
C 	C 	0.24850 0.72460 0.23800 0.02600
H 	H 	0.30320 0.73770 0.23490 0.00200
C 	C 	0.14420 0.35400 0.85400 -0.07600
H 	H 	0.10590 0.34670 0.92350 0.05100
C 	C 	0.17340 0.32150 0.76630 -0.00000
H 	H 	0.15720 0.29280 0.78280 0.01300
C 	C 	0.26440 0.37100 0.63800 -0.00500
H 	H 	0.30630 0.37540 0.57120 0.01600
C 	C 	0.23690 0.40680 0.72800 -0.05900
H 	H 	0.25870 0.43490 0.71850 0.05100
N 	N 	0.19120 0.73710 0.33900 -0.12300
N 	N 	0.72570 0.16940 0.34410 -0.23600
N 	N 	0.78890 0.26550 0.34670 -0.10300
C 	C 	0.63320 0.15080 0.35000 0.04000
C 	C 	0.76770 0.16110 0.23300 0.11400
C 	C 	0.61960 0.11950 0.27080 -0.11200
H 	H 	0.59050 0.16190 0.40780 0.00100
H 	H 	0.80830 0.18180 0.20590 -0.02600
C 	C 	0.75960 0.12680 0.15300 -0.14100
C 	C 	0.67000 0.10460 0.15980 0.10900
H 	H 	0.56890 0.10390 0.28740 0.07000
H 	H 	0.80440 0.11690 0.09730 0.07600
C 	C 	0.65010 0.06920 0.07490 -0.04000
S 	S 	0.61140 0.02138 0.15100 -0.00500
S 	S 	0.59680 0.91596 0.85210 -0.01400
C 	C 	0.62790 0.86730 0.93570 -0.03900
C 	C 	0.65550 0.83160 0.83850 0.12300
C 	C 	0.70760 0.84100 0.72700 -0.11200
C 	C 	0.62940 0.78970 0.85360 -0.13100
C 	C 	0.73440 0.80840 0.63700 0.02200
H 	H 	0.72510 0.86960 0.71190 0.07100
H 	H 	0.59700 0.78180 0.92970 0.06600
C 	C 	0.65100 0.75770 0.75460 0.10000
H 	H 	0.76910 0.81600 0.56290 0.00800
H 	H 	0.62380 0.73070 0.75830 -0.02300
C 	C 	0.61730 0.78680 0.64000 -0.01800
H 	H 	0.58440 0.78150 0.56200 0.01600
C 	C 	0.58880 0.81980 0.73240 -0.07000
H 	H 	0.53420 0.83280 0.72750 0.05300
C 	C 	0.72740 0.80760 0.86300 -0.08500
H 	H 	0.76120 0.81170 0.94040 0.04900
C 	C 	0.74850 0.77540 0.76200 0.02600
H 	H 	0.80320 0.76230 0.76510 0.00200
C 	C 	0.64420 0.14600 0.14600 -0.07600
H 	H 	0.60590 0.15330 0.07650 0.05100
C 	C 	0.67340 0.17850 0.23370 -0.00000
H 	H 	0.65720 0.20720 0.21720 0.01300
C 	C 	0.76440 0.12900 0.36200 -0.00500
H 	H 	0.80630 0.12460 0.42880 0.01600
C 	C 	0.73690 0.09320 0.27200 -0.05900
H 	H 	0.75870 0.06510 0.28150 0.05100
N 	N 	0.69120 0.76290 0.66100 -0.12300
N 	N 	0.27430 0.83060 0.34410 -0.23600
N 	N 	0.21110 0.73450 0.34670 -0.10300
C 	C 	0.36680 0.84920 0.35000 0.04000
C 	C 	0.23230 0.83890 0.23300 0.11400
C 	C 	0.38040 0.88050 0.27080 -0.11200
H 	H 	0.40950 0.83810 0.40780 0.00100
H 	H 	0.19170 0.81820 0.20590 -0.02600
C 	C 	0.24040 0.87320 0.15300 -0.14100
C 	C 	0.33000 0.89540 0.15980 0.10900
H 	H 	0.43110 0.89610 0.28740 0.07000
H 	H 	0.19560 0.88310 0.09730 0.07600
C 	C 	0.34990 0.93080 0.07490 -0.04000
S 	S 	0.38860 0.97862 0.15100 -0.00500
S 	S 	0.40320 0.08404 0.85210 -0.01400
C 	C 	0.37210 0.13270 0.93570 -0.03900
C 	C 	0.34450 0.16840 0.83850 0.12300
C 	C 	0.29240 0.15900 0.72700 -0.11200
C 	C 	0.37060 0.21030 0.85360 -0.13100
C 	C 	0.26560 0.19160 0.63700 0.02200
H 	H 	0.27490 0.13040 0.71190 0.07100
H 	H 	0.40300 0.21820 0.92970 0.06600
C 	C 	0.34900 0.24230 0.75460 0.10000
H 	H 	0.23090 0.18400 0.56290 0.00800
H 	H 	0.37620 0.26930 0.75830 -0.02300
C 	C 	0.38270 0.21320 0.64000 -0.01800
H 	H 	0.41560 0.21850 0.56200 0.01600
C 	C 	0.41120 0.18020 0.73240 -0.07000
H 	H 	0.46580 0.16720 0.72750 0.05300
C 	C 	0.27260 0.19240 0.86300 -0.08500
H 	H 	0.23880 0.18830 0.94040 0.04900
C 	C 	0.25150 0.22460 0.76200 0.02600
H 	H 	0.19680 0.23770 0.76510 0.00200
C 	C 	0.35580 0.85400 0.14600 -0.07600
H 	H 	0.39410 0.84670 0.07650 0.05100
C 	C 	0.32660 0.82150 0.23370 -0.00000
H 	H 	0.34280 0.79280 0.21720 0.01300
C 	C 	0.23560 0.87100 0.36200 -0.00500
H 	H 	0.19370 0.87540 0.42880 0.01600
C 	C 	0.26310 0.90680 0.27200 -0.05900
H 	H 	0.24130 0.93490 0.28150 0.05100
N 	N 	0.30880 0.23710 0.66100 -0.12300
N 	N 	0.22570 0.33060 0.34410 -0.23600
N 	N 	0.28890 0.23450 0.34670 -0.10300
C 	C 	0.13320 0.34920 0.35000 0.04000
C 	C 	0.26770 0.33890 0.23300 0.11400
C 	C 	0.11960 0.38050 0.27080 -0.11200
H 	H 	0.09050 0.33810 0.40780 0.00100
H 	H 	0.30830 0.31820 0.20590 -0.02600
C 	C 	0.25960 0.37320 0.15300 -0.14100
C 	C 	0.17000 0.39540 0.15980 0.10900
H 	H 	0.06890 0.39610 0.28740 0.07000
H 	H 	0.30440 0.38310 0.09730 0.07600
C 	C 	0.15010 0.43080 0.07490 -0.04000
S 	S 	0.11140 0.47862 0.15100 -0.00500
S 	S 	0.09680 0.58404 0.85210 -0.01400
C 	C 	0.12790 0.63270 0.93570 -0.03900
C 	C 	0.15550 0.66840 0.83850 0.12300
C 	C 	0.20760 0.65900 0.72700 -0.11200
C 	C 	0.12940 0.71030 0.85360 -0.13100
C 	C 	0.23440 0.69160 0.63700 0.02200
H 	H 	0.22510 0.63040 0.71190 0.07100
H 	H 	0.09700 0.71820 0.92970 0.06600
C 	C 	0.15100 0.74230 0.75460 0.10000
H 	H 	0.26910 0.68400 0.56290 0.00800
H 	H 	0.12380 0.76930 0.75830 -0.02300
C 	C 	0.11730 0.71320 0.64000 -0.01800
H 	H 	0.08440 0.71850 0.56200 0.01600
C 	C 	0.08880 0.68020 0.73240 -0.07000
H 	H 	0.03420 0.66720 0.72750 0.05300
C 	C 	0.22740 0.69240 0.86300 -0.08500
H 	H 	0.26120 0.68830 0.94040 0.04900
C 	C 	0.24850 0.72460 0.76200 0.02600
H 	H 	0.30320 0.73770 0.76510 0.00200
C 	C 	0.14420 0.35400 0.14600 -0.07600
H 	H 	0.10590 0.34670 0.07650 0.05100
C 	C 	0.17340 0.32150 0.23370 -0.00000
H 	H 	0.15720 0.29280 0.21720 0.01300
C 	C 	0.26440 0.37100 0.36200 -0.00500
H 	H 	0.30630 0.37540 0.42880 0.01600
C 	C 	0.23690 0.40680 0.27200 -0.05900
H 	H 	0.25870 0.43490 0.28150 0.05100
N 	N 	0.19120 0.73710 0.66100 -0.12300
N 	N 	0.77430 0.66940 0.34410 -0.23600
N 	N 	0.71110 0.76550 0.34670 -0.10300
C 	C 	0.86680 0.65080 0.35000 0.04000
C 	C 	0.73230 0.66110 0.23300 0.11400
C 	C 	0.88040 0.61950 0.27080 -0.11200
H 	H 	0.90950 0.66190 0.40780 0.00100
H 	H 	0.69170 0.68180 0.20590 -0.02600
C 	C 	0.74040 0.62680 0.15300 -0.14100
C 	C 	0.83000 0.60460 0.15980 0.10900
H 	H 	0.93110 0.60390 0.28740 0.07000
H 	H 	0.69560 0.61690 0.09730 0.07600
C 	C 	0.84990 0.56920 0.07490 -0.04000
S 	S 	0.88860 0.52138 0.15100 -0.00500
S 	S 	0.90320 0.41596 0.85210 -0.01400
C 	C 	0.87210 0.36730 0.93570 -0.03900
C 	C 	0.84450 0.33160 0.83850 0.12300
C 	C 	0.79240 0.34100 0.72700 -0.11200
C 	C 	0.87060 0.28970 0.85360 -0.13100
C 	C 	0.76560 0.30840 0.63700 0.02200
H 	H 	0.77490 0.36960 0.71190 0.07100
H 	H 	0.90300 0.28180 0.92970 0.06600
C 	C 	0.84900 0.25770 0.75460 0.10000
H 	H 	0.73090 0.31600 0.56290 0.00800
H 	H 	0.87620 0.23070 0.75830 -0.02300
C 	C 	0.88270 0.28680 0.64000 -0.01800
H 	H 	0.91560 0.28150 0.56200 0.01600
C 	C 	0.91120 0.31980 0.73240 -0.07000
H 	H 	0.96580 0.33280 0.72750 0.05300
C 	C 	0.77260 0.30760 0.86300 -0.08500
H 	H 	0.73880 0.31170 0.94040 0.04900
C 	C 	0.75150 0.27540 0.76200 0.02600
H 	H 	0.69680 0.26230 0.76510 0.00200
C 	C 	0.85580 0.64600 0.14600 -0.07600
H 	H 	0.89410 0.65330 0.07650 0.05100
C 	C 	0.82660 0.67850 0.23370 -0.00000
H 	H 	0.84280 0.70720 0.21720 0.01300
C 	C 	0.73560 0.62900 0.36200 -0.00500
H 	H 	0.69370 0.62460 0.42880 0.01600
C 	C 	0.76310 0.59320 0.27200 -0.05900
H 	H 	0.74130 0.56510 0.28150 0.05100
N 	N 	0.80880 0.26290 0.66100 -0.12300
N 	N 	0.27430 0.83060 0.65590 -0.23600
N 	N 	0.21110 0.73450 0.65330 -0.10300
C 	C 	0.36680 0.84920 0.65000 0.04100
C 	C 	0.23230 0.83890 0.76700 0.11400
C 	C 	0.38040 0.88050 0.72920 -0.11300
H 	H 	0.40950 0.83810 0.59220 0.00100
H 	H 	0.19170 0.81820 0.79410 -0.02600
C 	C 	0.24040 0.87320 0.84700 -0.14200
C 	C 	0.33000 0.89540 0.84020 0.10900
H 	H 	0.43110 0.89610 0.71260 0.07000
H 	H 	0.19560 0.88310 0.90270 0.07600
C 	C 	0.34990 0.93080 0.92510 -0.04200
S 	S 	0.38860 0.97862 0.84900 -0.00500
S 	S 	0.40320 0.08404 0.14790 -0.01400
C 	C 	0.37210 0.13270 0.06430 -0.03700
C 	C 	0.34450 0.16840 0.16150 0.12200
C 	C 	0.29240 0.15900 0.27300 -0.11200
C 	C 	0.37060 0.21030 0.14640 -0.13100
C 	C 	0.26560 0.19160 0.36300 0.02200
H 	H 	0.27490 0.13040 0.28810 0.07100
H 	H 	0.40300 0.21820 0.07030 0.06600
C 	C 	0.34900 0.24230 0.24540 0.10000
H 	H 	0.23090 0.18400 0.43710 0.00800
H 	H 	0.37620 0.26930 0.24170 -0.02300
C 	C 	0.38270 0.21320 0.36000 -0.01800
H 	H 	0.41560 0.21850 0.43800 0.01600
C 	C 	0.41120 0.18020 0.26760 -0.07000
H 	H 	0.46580 0.16720 0.27250 0.05300
C 	C 	0.27260 0.19240 0.13700 -0.08500
H 	H 	0.23880 0.18830 0.05960 0.05000
C 	C 	0.25150 0.22460 0.23800 0.02600
H 	H 	0.19680 0.23770 0.23490 0.00200
C 	C 	0.35580 0.85400 0.85400 -0.07600
H 	H 	0.39410 0.84670 0.92350 0.05100
C 	C 	0.32660 0.82150 0.76630 -0.00000
H 	H 	0.34280 0.79280 0.78280 0.01300
C 	C 	0.23560 0.87100 0.63800 -0.00500
H 	H 	0.19370 0.87540 0.57120 0.01600
C 	C 	0.26310 0.90680 0.72800 -0.05900
H 	H 	0.24130 0.93490 0.71850 0.05100
N 	N 	0.30880 0.23710 0.33900 -0.12300
N 	N 	0.72570 0.16940 0.65590 -0.23600
N 	N 	0.78890 0.26550 0.65330 -0.10300
C 	C 	0.63320 0.15080 0.65000 0.04100
C 	C 	0.76770 0.16110 0.76700 0.11400
C 	C 	0.61960 0.11950 0.72920 -0.11300
H 	H 	0.59050 0.16190 0.59220 0.00100
H 	H 	0.80830 0.18180 0.79410 -0.02600
C 	C 	0.75960 0.12680 0.84700 -0.14200
C 	C 	0.67000 0.10460 0.84020 0.10900
H 	H 	0.56890 0.10390 0.71260 0.07000
H 	H 	0.80440 0.11690 0.90270 0.07600
C 	C 	0.65010 0.06920 0.92510 -0.04200
S 	S 	0.61140 0.02138 0.84900 -0.00500
S 	S 	0.59680 0.91596 0.14790 -0.01400
C 	C 	0.62790 0.86730 0.06430 -0.03700
C 	C 	0.65550 0.83160 0.16150 0.12200
C 	C 	0.70760 0.84100 0.27300 -0.11200
C 	C 	0.62940 0.78970 0.14640 -0.13100
C 	C 	0.73440 0.80840 0.36300 0.02200
H 	H 	0.72510 0.86960 0.28810 0.07100
H 	H 	0.59700 0.78180 0.07030 0.06600
C 	C 	0.65100 0.75770 0.24540 0.10000
H 	H 	0.76910 0.81600 0.43710 0.00800
H 	H 	0.62380 0.73070 0.24170 -0.02300
C 	C 	0.61730 0.78680 0.36000 -0.01800
H 	H 	0.58440 0.78150 0.43800 0.01600
C 	C 	0.58880 0.81980 0.26760 -0.07000
H 	H 	0.53420 0.83280 0.27250 0.05300
C 	C 	0.72740 0.80760 0.13700 -0.08500
H 	H 	0.76120 0.81170 0.05960 0.05000
C 	C 	0.74850 0.77540 0.23800 0.02600
H 	H 	0.80320 0.76230 0.23490 0.00200
C 	C 	0.64420 0.14600 0.85400 -0.07600
H 	H 	0.60590 0.15330 0.92350 0.05100
C 	C 	0.67340 0.17850 0.76630 -0.00000
H 	H 	0.65720 0.20720 0.78280 0.01300
C 	C 	0.76440 0.12900 0.63800 -0.00500
H 	H 	0.80630 0.12460 0.57120 0.01600
C 	C 	0.73690 0.09320 0.72800 -0.05900
H 	H 	0.75870 0.06510 0.71850 0.05100
N 	N 	0.69120 0.76290 0.33900 -0.12300
Fe	Fe	0.73746 0.71706 0.50000 1.12600
N 	N 	0.86470 0.74340 0.50000 -0.29100
N 	N 	0.61480 0.69030 0.50000 -0.29300
C 	C 	0.90560 0.77100 0.50000 0.16300
N 	N 	0.95130 0.81180 0.50000 -0.17000
C 	C 	0.04430 0.80830 0.50000 0.15900
Fe	Fe	0.26254 0.28294 0.50000 1.12600
N 	N 	0.13530 0.25660 0.50000 -0.29100
N 	N 	0.38520 0.30970 0.50000 -0.29300
C 	C 	0.09440 0.22900 0.50000 0.16300
N 	N 	0.04870 0.18820 0.50000 -0.17000
C 	C 	0.95570 0.19170 0.50000 0.15900
Fe	Fe	0.76254 0.21706 0.50000 1.12600
N 	N 	0.63530 0.24340 0.50000 -0.29100
N 	N 	0.88520 0.19030 0.50000 -0.29300
C 	C 	0.59440 0.27100 0.50000 0.16200
N 	N 	0.54870 0.31180 0.50000 -0.17000
C 	C 	0.45570 0.30830 0.50000 0.15900
Fe	Fe	0.23746 0.78294 0.50000 1.12600
N 	N 	0.36470 0.75660 0.50000 -0.29100
N 	N 	0.11480 0.80970 0.50000 -0.29300
C 	C 	0.40560 0.72900 0.50000 0.16200
N 	N 	0.45130 0.68820 0.50000 -0.17000
C 	C 	0.54430 0.69170 0.50000 0.15900
C 	C 	0.89770 0.49120 -0.00000 -0.00400
C 	C 	0.89660 0.44900 -0.00000 -0.00200
C 	C 	0.10230 0.50880 -0.00000 -0.00400
C 	C 	0.10340 0.55100 -0.00000 -0.00200
C 	C 	0.60230 0.99120 -0.00000 -0.00400
C 	C 	0.60340 0.94900 -0.00000 -0.00200
C 	C 	0.39770 0.00880 -0.00000 -0.00400
C 	C 	0.39660 0.05100 -0.00000 -0.00200
