data_crystal

_cell_length_a 8.37550
_cell_length_b 16.25490
_cell_length_c 17.07480
_cell_angle_alpha 90.00000
_cell_angle_beta  101.16800
_cell_angle_gamma 90.00000

_symmetry_space_group_name_	'P 1'
_symmetry_space_group_name_H-M	'P 1'

loop_
_symmetry_equiv_pos_as_xyz
  x,y,z

loop_
_atom_site_label
_atom_site_type_symbol
_atom_site_fract_x
_atom_site_fract_y
_atom_site_fract_z
_atom_site_charge
C 	C 	0.79350 0.88200 0.13560 0.09500
H 	H 	0.89280 0.89700 0.12320 -0.01700
C 	C 	0.65710 0.92870 0.10700 -0.17600
H 	H 	0.66620 0.97490 0.07610 0.09900
C 	C 	0.50870 0.90800 0.12360 0.11300
C 	C 	0.49900 0.83750 0.16710 -0.17100
H 	H 	0.39980 0.81980 0.17780 0.09000
C 	C 	0.64040 0.79360 0.19450 0.09800
H 	H 	0.63340 0.74610 0.22400 -0.01200
C 	C 	0.36340 0.95970 0.09550 -0.03700
C 	C 	0.35100 0.04070 0.10970 -0.03300
C 	C 	0.48260 0.09580 0.15180 0.11500
C 	C 	0.51990 0.16750 0.11810 -0.18100
H 	H 	0.45590 0.18650 0.07090 0.09900
C 	C 	0.65410 0.21130 0.15520 0.10000
H 	H 	0.67900 0.26010 0.13170 -0.01600
C 	C 	0.70960 0.11920 0.25770 0.10200
H 	H 	0.77370 0.10230 0.30570 -0.01700
C 	C 	0.57640 0.07290 0.22500 -0.17800
H 	H 	0.54900 0.02660 0.25160 0.10200
C 	C 	0.07440 0.00020 0.02230 -0.00700
Fe	Fe	0.01480 0.75026 0.23096 1.13200
N 	N 	0.78580 0.81560 0.18090 -0.24100
N 	N 	0.75060 0.18740 0.22330 -0.24400
N 	N 	0.14270 0.86670 0.24390 -0.26800
C 	C 	0.17940 0.93160 0.26710 0.16600
C 	C 	0.16390 0.06920 0.28400 0.17700
N 	N 	0.11180 0.13450 0.27810 -0.27000
N 	N 	0.97350 0.76890 0.34880 -0.29100
C 	C 	0.98190 0.79000 0.41140 0.23000
C 	C 	0.02810 0.79090 0.55000 0.23000
N 	N 	0.05150 0.77040 0.61190 -0.29500
N 	N 	0.07000 0.82330 0.48330 -0.14000
N 	N 	0.24500 0.00080 0.29580 -0.18200
S 	S 	0.16408 0.08799 0.07218 -0.01300
S 	S 	0.19443 0.91090 0.03857 -0.01800
N 	N 	0.93700 0.81880 0.47680 -0.14300
C 	C 	0.20650 0.38200 0.36440 0.09600
H 	H 	0.10720 0.39700 0.37680 -0.01600
C 	C 	0.34290 0.42870 0.39300 -0.17600
H 	H 	0.33380 0.47490 0.42390 0.09900
C 	C 	0.49130 0.40800 0.37640 0.11200
C 	C 	0.50100 0.33750 0.33290 -0.17100
H 	H 	0.60020 0.31980 0.32220 0.09000
C 	C 	0.35960 0.29360 0.30550 0.09800
H 	H 	0.36660 0.24610 0.27600 -0.01200
C 	C 	0.63660 0.45970 0.40450 -0.03500
C 	C 	0.64900 0.54070 0.39030 -0.03500
C 	C 	0.51740 0.59580 0.34820 0.11600
C 	C 	0.48010 0.66750 0.38190 -0.18200
H 	H 	0.54410 0.68650 0.42910 0.09900
C 	C 	0.34590 0.71130 0.34480 0.10000
H 	H 	0.32100 0.76010 0.36830 -0.01600
C 	C 	0.29040 0.61920 0.24230 0.10200
H 	H 	0.22630 0.60230 0.19430 -0.01700
C 	C 	0.42360 0.57290 0.27500 -0.17800
H 	H 	0.45100 0.52660 0.24840 0.10300
C 	C 	0.92560 0.50020 0.47770 -0.00900
Fe	Fe	0.98520 0.25026 0.26904 1.13200
N 	N 	0.21420 0.31560 0.31910 -0.24100
N 	N 	0.24940 0.68740 0.27670 -0.24400
N 	N 	0.85730 0.36670 0.25610 -0.26900
C 	C 	0.82060 0.43160 0.23290 0.16900
C 	C 	0.83610 0.56920 0.21600 0.17600
N 	N 	0.88820 0.63450 0.22190 -0.27000
N 	N 	0.02650 0.26890 0.15120 -0.29100
C 	C 	0.01810 0.29000 0.08860 0.22900
C 	C 	0.97190 0.29090 0.95000 0.23100
N 	N 	0.94850 0.27040 0.88810 -0.29500
N 	N 	0.93000 0.32330 0.01670 -0.13900
N 	N 	0.75500 0.50080 0.20420 -0.18300
S 	S 	0.83592 0.58799 0.42782 -0.01300
S 	S 	0.80557 0.41090 0.46143 -0.01500
N 	N 	0.06300 0.31880 0.02320 -0.14400
C 	C 	0.20650 0.11800 0.86440 0.09600
H 	H 	0.10720 0.10300 0.87680 -0.01600
C 	C 	0.34290 0.07130 0.89300 -0.17600
H 	H 	0.33380 0.02510 0.92390 0.09900
C 	C 	0.49130 0.09200 0.87640 0.11300
C 	C 	0.50100 0.16250 0.83290 -0.17100
H 	H 	0.60020 0.18020 0.82220 0.09000
C 	C 	0.35960 0.20640 0.80550 0.09800
H 	H 	0.36660 0.25390 0.77600 -0.01200
C 	C 	0.63660 0.04030 0.90450 -0.03700
C 	C 	0.64900 0.95930 0.89030 -0.03300
C 	C 	0.51740 0.90420 0.84820 0.11500
C 	C 	0.48010 0.83250 0.88190 -0.18100
H 	H 	0.54410 0.81350 0.92910 0.09900
C 	C 	0.34590 0.78870 0.84480 0.10000
H 	H 	0.32100 0.73990 0.86830 -0.01600
C 	C 	0.29040 0.88080 0.74230 0.10200
H 	H 	0.22630 0.89770 0.69430 -0.01700
C 	C 	0.42360 0.92710 0.77500 -0.17800
H 	H 	0.45100 0.97340 0.74840 0.10200
C 	C 	0.92560 0.99980 0.97770 -0.00700
Fe	Fe	0.98520 0.24974 0.76904 1.13200
N 	N 	0.21420 0.18440 0.81910 -0.24100
N 	N 	0.24940 0.81260 0.77670 -0.24400
N 	N 	0.85730 0.13330 0.75610 -0.26800
C 	C 	0.82060 0.06840 0.73290 0.16600
C 	C 	0.83610 0.93080 0.71600 0.17700
N 	N 	0.88820 0.86550 0.72190 -0.27000
N 	N 	0.02650 0.23110 0.65120 -0.29100
C 	C 	0.01810 0.21000 0.58860 0.23000
C 	C 	0.97190 0.20910 0.45000 0.23000
N 	N 	0.94850 0.22960 0.38810 -0.29500
N 	N 	0.93000 0.17670 0.51670 -0.14000
N 	N 	0.75500 0.99920 0.70420 -0.18200
S 	S 	0.83592 0.91201 0.92782 -0.01300
S 	S 	0.80557 0.08910 0.96143 -0.01800
N 	N 	0.06300 0.18120 0.52320 -0.14300
C 	C 	0.79350 0.61800 0.63560 0.09600
H 	H 	0.89280 0.60300 0.62320 -0.01600
C 	C 	0.65710 0.57130 0.60700 -0.17600
H 	H 	0.66620 0.52510 0.57610 0.09900
C 	C 	0.50870 0.59200 0.62360 0.11200
C 	C 	0.49900 0.66250 0.66710 -0.17100
H 	H 	0.39980 0.68020 0.67780 0.09000
C 	C 	0.64040 0.70640 0.69450 0.09800
H 	H 	0.63340 0.75390 0.72400 -0.01200
C 	C 	0.36340 0.54030 0.59550 -0.03500
C 	C 	0.35100 0.45930 0.60970 -0.03500
C 	C 	0.48260 0.40420 0.65180 0.11600
C 	C 	0.51990 0.33250 0.61810 -0.18200
H 	H 	0.45590 0.31350 0.57090 0.09900
C 	C 	0.65410 0.28870 0.65520 0.10000
H 	H 	0.67900 0.23990 0.63170 -0.01600
C 	C 	0.70960 0.38080 0.75770 0.10200
H 	H 	0.77370 0.39770 0.80570 -0.01700
C 	C 	0.57640 0.42710 0.72500 -0.17800
H 	H 	0.54900 0.47340 0.75160 0.10300
C 	C 	0.07440 0.49980 0.52230 -0.00900
Fe	Fe	0.01480 0.74974 0.73096 1.13200
N 	N 	0.78580 0.68440 0.68090 -0.24100
N 	N 	0.75060 0.31260 0.72330 -0.24400
N 	N 	0.14270 0.63330 0.74390 -0.26900
C 	C 	0.17940 0.56840 0.76710 0.16900
C 	C 	0.16390 0.43080 0.78400 0.17600
N 	N 	0.11180 0.36550 0.77810 -0.27000
N 	N 	0.97350 0.73110 0.84880 -0.29100
C 	C 	0.98190 0.71000 0.91140 0.22900
C 	C 	0.02810 0.70910 0.05000 0.23100
N 	N 	0.05150 0.72960 0.11190 -0.29500
N 	N 	0.07000 0.67670 0.98330 -0.13900
N 	N 	0.24500 0.49920 0.79580 -0.18300
S 	S 	0.16408 0.41201 0.57218 -0.01300
S 	S 	0.19443 0.58910 0.53857 -0.01500
N 	N 	0.93700 0.68120 0.97680 -0.14400
