data_crystal

_cell_length_a 29.92900
_cell_length_b 15.49820
_cell_length_c 9.68330
_cell_angle_alpha 90.00000
_cell_angle_beta  90.00000
_cell_angle_gamma 90.00000

_symmetry_space_group_name_	'P 1'
_symmetry_space_group_name_H-M	'P 1'

loop_
_symmetry_equiv_pos_as_xyz
  x,y,z

loop_
_atom_site_label
_atom_site_type_symbol
_atom_site_fract_x
_atom_site_fract_y
_atom_site_fract_z
_atom_site_charge
N 	N 	0.68730 0.18350 0.85460 -0.23300
N 	N 	0.77542 0.25270 0.14190 -0.26800
C 	C 	0.67720 0.23840 0.73510 0.02700
C 	C 	0.66710 0.10650 0.84150 -0.01600
H 	H 	0.69330 0.28930 0.72490 0.01100
C 	C 	0.64560 0.21950 0.63770 -0.08000
C 	C 	0.63510 0.08830 0.75300 -0.02000
H 	H 	0.67640 0.06250 0.89990 0.03500
C 	C 	0.61990 0.14230 0.66160 0.08500
H 	H 	0.64100 0.25430 0.56080 0.04600
H 	H 	0.62260 0.03340 0.75600 0.03700
C 	C 	0.58330 0.12500 0.56690 -0.02300
S 	S 	0.53108 0.10103 0.65198 0.00100
S 	S 	0.42317 0.11959 0.65219 -0.00200
C 	C 	0.37500 0.16290 0.56860 -0.04500
C 	C 	0.33940 0.19000 0.66290 0.13500
C 	C 	0.29590 0.17160 0.65080 -0.06200
C 	C 	0.35000 0.24820 0.78110 -0.06400
H 	H 	0.28680 0.14040 0.57390 0.04400
C 	C 	0.26300 0.19660 0.74770 -0.01800
C 	C 	0.31870 0.27490 0.86650 0.00000
H 	H 	0.37930 0.26600 0.79480 0.06200
H 	H 	0.23340 0.17920 0.73700 0.02600
H 	H 	0.32630 0.31400 0.93530 0.04100
C 	C 	0.64300 0.21460 0.11620 0.12400
H 	H 	0.63710 0.24480 0.03530 -0.15400
C 	C 	0.61030 0.19900 0.20850 -0.14700
H 	H 	0.58200 0.22210 0.19480 0.07800
C 	C 	0.66050 0.10900 0.33500 -0.00800
H 	H 	0.66760 0.06750 0.40080 0.02700
C 	C 	0.69350 0.13170 0.23960 -0.01900
H 	H 	0.72150 0.10640 0.24780 0.01900
C 	C 	0.31630 0.26680 0.34980 -0.20100
H 	H 	0.32170 0.30130 0.42650 0.09100
C 	C 	0.28840 0.29160 0.26280 0.14900
H 	H 	0.27480 0.34460 0.27910 -0.03500
C 	C 	0.29770 0.16870 0.13740 0.13300
H 	H 	0.28900 0.13240 0.06590 -0.04900
C 	C 	0.32900 0.13740 0.21740 -0.19300
H 	H 	0.34340 0.08560 0.19900 0.08900
N 	N 	0.31270 0.81650 0.85460 -0.23300
N 	N 	0.22458 0.74730 0.14190 -0.26800
C 	C 	0.32280 0.76160 0.73510 0.02700
C 	C 	0.33290 0.89350 0.84150 -0.01600
H 	H 	0.30670 0.71070 0.72490 0.01100
C 	C 	0.35440 0.78050 0.63770 -0.08000
C 	C 	0.36490 0.91170 0.75300 -0.02000
H 	H 	0.32360 0.93750 0.89990 0.03500
C 	C 	0.38010 0.85770 0.66160 0.08500
H 	H 	0.35900 0.74570 0.56080 0.04600
H 	H 	0.37740 0.96660 0.75600 0.03700
C 	C 	0.41670 0.87500 0.56690 -0.02300
S 	S 	0.46892 0.89897 0.65198 0.00100
S 	S 	0.57683 0.88041 0.65219 -0.00200
C 	C 	0.62500 0.83710 0.56860 -0.04500
C 	C 	0.66060 0.81000 0.66290 0.13500
C 	C 	0.70410 0.82840 0.65080 -0.06200
C 	C 	0.65000 0.75180 0.78110 -0.06400
H 	H 	0.71320 0.85960 0.57390 0.04400
C 	C 	0.73700 0.80340 0.74770 -0.01800
C 	C 	0.68130 0.72510 0.86650 0.00000
H 	H 	0.62070 0.73400 0.79480 0.06200
H 	H 	0.76660 0.82080 0.73700 0.02600
H 	H 	0.67370 0.68600 0.93530 0.04100
C 	C 	0.35700 0.78540 0.11620 0.12400
H 	H 	0.36290 0.75520 0.03530 -0.15400
C 	C 	0.38970 0.80100 0.20850 -0.14700
H 	H 	0.41800 0.77790 0.19480 0.07800
C 	C 	0.33950 0.89100 0.33500 -0.00800
H 	H 	0.33240 0.93250 0.40080 0.02700
C 	C 	0.30650 0.86830 0.23960 -0.01900
H 	H 	0.27850 0.89360 0.24780 0.01900
C 	C 	0.68370 0.73320 0.34980 -0.20100
H 	H 	0.67830 0.69870 0.42650 0.09100
C 	C 	0.71160 0.70840 0.26280 0.14900
H 	H 	0.72520 0.65540 0.27910 -0.03500
C 	C 	0.70230 0.83130 0.13740 0.13300
H 	H 	0.71100 0.86760 0.06590 -0.04900
C 	C 	0.67100 0.86260 0.21740 -0.19300
H 	H 	0.65660 0.91440 0.19900 0.08900
N 	N 	0.81270 0.68350 0.14540 -0.27600
N 	N 	0.72458 0.75270 0.85810 -0.24800
C 	C 	0.82280 0.73840 0.26490 0.05100
C 	C 	0.83290 0.60650 0.15850 0.13900
H 	H 	0.80670 0.78930 0.27510 -0.00400
C 	C 	0.85440 0.71950 0.36230 -0.14100
C 	C 	0.86490 0.58830 0.24700 -0.22900
H 	H 	0.82360 0.56250 0.10010 -0.04800
C 	C 	0.88010 0.64230 0.33840 0.16300
H 	H 	0.85900 0.75430 0.43920 0.07200
H 	H 	0.87740 0.53340 0.24400 0.10200
C 	C 	0.91670 0.62500 0.43310 -0.05800
S 	S 	0.96892 0.60103 0.34802 -0.01100
S 	S 	0.07683 0.61959 0.34781 -0.02200
C 	C 	0.12500 0.66290 0.43140 -0.04700
C 	C 	0.16060 0.69000 0.33710 0.14500
C 	C 	0.20410 0.67160 0.34920 -0.04500
C 	C 	0.15000 0.74820 0.21890 -0.05900
H 	H 	0.21320 0.64040 0.42610 0.03800
C 	C 	0.23700 0.69660 0.25230 -0.03900
C 	C 	0.18130 0.77490 0.13350 -0.01800
H 	H 	0.12070 0.76600 0.20520 0.04500
H 	H 	0.26660 0.67920 0.26300 0.03000
H 	H 	0.17370 0.81400 0.06470 0.00200
C 	C 	0.85700 0.71460 0.88380 -0.06800
H 	H 	0.86290 0.74480 0.96470 0.16400
C 	C 	0.88970 0.69900 0.79150 -0.04400
H 	H 	0.91800 0.72210 0.80520 0.05500
C 	C 	0.83950 0.60900 0.66500 -0.15000
H 	H 	0.83240 0.56750 0.59920 0.07800
C 	C 	0.80650 0.63170 0.76040 0.12000
H 	H 	0.77850 0.60640 0.75220 -0.02400
C 	C 	0.18370 0.76680 0.65020 -0.17100
H 	H 	0.17830 0.80130 0.57350 0.07900
C 	C 	0.21160 0.79160 0.73720 0.11900
H 	H 	0.22520 0.84460 0.72090 -0.01800
C 	C 	0.20230 0.66870 0.86260 0.10500
H 	H 	0.21100 0.63240 0.93410 0.00700
C 	C 	0.17100 0.63740 0.78260 -0.16100
H 	H 	0.15660 0.58560 0.80100 0.08900
N 	N 	0.18730 0.31650 0.14540 -0.27600
N 	N 	0.27542 0.24730 0.85810 -0.24800
C 	C 	0.17720 0.26160 0.26490 0.05100
C 	C 	0.16710 0.39350 0.15850 0.13900
H 	H 	0.19330 0.21070 0.27510 -0.00400
C 	C 	0.14560 0.28050 0.36230 -0.14100
C 	C 	0.13510 0.41170 0.24700 -0.22900
H 	H 	0.17640 0.43750 0.10010 -0.04800
C 	C 	0.11990 0.35770 0.33840 0.16300
H 	H 	0.14100 0.24570 0.43920 0.07200
H 	H 	0.12260 0.46660 0.24400 0.10200
C 	C 	0.08330 0.37500 0.43310 -0.05800
S 	S 	0.03108 0.39897 0.34802 -0.01100
S 	S 	0.92317 0.38041 0.34781 -0.02200
C 	C 	0.87500 0.33710 0.43140 -0.04700
C 	C 	0.83940 0.31000 0.33710 0.14500
C 	C 	0.79590 0.32840 0.34920 -0.04500
C 	C 	0.85000 0.25180 0.21890 -0.05900
H 	H 	0.78680 0.35960 0.42610 0.03800
C 	C 	0.76300 0.30340 0.25230 -0.03900
C 	C 	0.81870 0.22510 0.13350 -0.01800
H 	H 	0.87930 0.23400 0.20520 0.04500
H 	H 	0.73340 0.32080 0.26300 0.03000
H 	H 	0.82630 0.18600 0.06470 0.00200
C 	C 	0.14300 0.28540 0.88380 -0.06800
H 	H 	0.13710 0.25520 0.96470 0.16400
C 	C 	0.11030 0.30100 0.79150 -0.04400
H 	H 	0.08200 0.27790 0.80520 0.05500
C 	C 	0.16050 0.39100 0.66500 -0.15000
H 	H 	0.16760 0.43250 0.59920 0.07800
C 	C 	0.19350 0.36830 0.76040 0.12000
H 	H 	0.22150 0.39360 0.75220 -0.02400
C 	C 	0.81630 0.23320 0.65020 -0.17100
H 	H 	0.82170 0.19870 0.57350 0.07900
C 	C 	0.78840 0.20840 0.73720 0.11900
H 	H 	0.77480 0.15540 0.72090 -0.01800
C 	C 	0.79770 0.33130 0.86260 0.10500
H 	H 	0.78900 0.36760 0.93410 0.00700
C 	C 	0.82900 0.36260 0.78260 -0.16100
H 	H 	0.84340 0.41440 0.80100 0.08900
N 	N 	0.31270 0.81650 0.14540 -0.27600
N 	N 	0.22458 0.74730 0.85810 -0.24800
C 	C 	0.32280 0.76160 0.26490 0.05100
C 	C 	0.33290 0.89350 0.15850 0.13900
H 	H 	0.30670 0.71070 0.27510 -0.00400
C 	C 	0.35440 0.78050 0.36230 -0.14100
C 	C 	0.36490 0.91170 0.24700 -0.22900
H 	H 	0.32360 0.93750 0.10010 -0.04800
C 	C 	0.38010 0.85770 0.33840 0.16300
H 	H 	0.35900 0.74570 0.43920 0.07200
H 	H 	0.37740 0.96660 0.24400 0.10200
C 	C 	0.41670 0.87500 0.43310 -0.05800
S 	S 	0.46892 0.89897 0.34802 -0.01100
S 	S 	0.57683 0.88041 0.34781 -0.02200
C 	C 	0.62500 0.83710 0.43140 -0.04600
C 	C 	0.66060 0.81000 0.33710 0.14500
C 	C 	0.70410 0.82840 0.34920 -0.04500
C 	C 	0.65000 0.75180 0.21890 -0.05900
H 	H 	0.71320 0.85960 0.42610 0.03800
C 	C 	0.73700 0.80340 0.25230 -0.03800
C 	C 	0.68130 0.72510 0.13350 -0.01700
H 	H 	0.62070 0.73400 0.20520 0.04500
H 	H 	0.76660 0.82080 0.26300 0.03000
H 	H 	0.67370 0.68600 0.06470 0.00200
C 	C 	0.35700 0.78540 0.88380 -0.06800
H 	H 	0.36290 0.75520 0.96470 0.16400
C 	C 	0.38970 0.80100 0.79150 -0.04400
H 	H 	0.41800 0.77790 0.80520 0.05500
C 	C 	0.33950 0.89100 0.66500 -0.15000
H 	H 	0.33240 0.93250 0.59920 0.07700
C 	C 	0.30650 0.86830 0.76040 0.12000
H 	H 	0.27850 0.89360 0.75220 -0.02500
C 	C 	0.68370 0.73320 0.65020 -0.17100
H 	H 	0.67830 0.69870 0.57350 0.08000
C 	C 	0.71160 0.70840 0.73720 0.11900
H 	H 	0.72520 0.65540 0.72090 -0.01800
C 	C 	0.70230 0.83130 0.86260 0.10500
H 	H 	0.71100 0.86760 0.93410 0.00700
C 	C 	0.67100 0.86260 0.78260 -0.16100
H 	H 	0.65660 0.91440 0.80100 0.08900
N 	N 	0.68730 0.18350 0.14540 -0.27600
N 	N 	0.77542 0.25270 0.85810 -0.24800
C 	C 	0.67720 0.23840 0.26490 0.05100
C 	C 	0.66710 0.10650 0.15850 0.13900
H 	H 	0.69330 0.28930 0.27510 -0.00400
C 	C 	0.64560 0.21950 0.36230 -0.14100
C 	C 	0.63510 0.08830 0.24700 -0.22900
H 	H 	0.67640 0.06250 0.10010 -0.04800
C 	C 	0.61990 0.14230 0.33840 0.16300
H 	H 	0.64100 0.25430 0.43920 0.07200
H 	H 	0.62260 0.03340 0.24400 0.10200
C 	C 	0.58330 0.12500 0.43310 -0.05800
S 	S 	0.53108 0.10103 0.34802 -0.01100
S 	S 	0.42317 0.11959 0.34781 -0.02200
C 	C 	0.37500 0.16290 0.43140 -0.04600
C 	C 	0.33940 0.19000 0.33710 0.14500
C 	C 	0.29590 0.17160 0.34920 -0.04500
C 	C 	0.35000 0.24820 0.21890 -0.05900
H 	H 	0.28680 0.14040 0.42610 0.03800
C 	C 	0.26300 0.19660 0.25230 -0.03800
C 	C 	0.31870 0.27490 0.13350 -0.01700
H 	H 	0.37930 0.26600 0.20520 0.04500
H 	H 	0.23340 0.17920 0.26300 0.03000
H 	H 	0.32630 0.31400 0.06470 0.00200
C 	C 	0.64300 0.21460 0.88380 -0.06800
H 	H 	0.63710 0.24480 0.96470 0.16400
C 	C 	0.61030 0.19900 0.79150 -0.04400
H 	H 	0.58200 0.22210 0.80520 0.05500
C 	C 	0.66050 0.10900 0.66500 -0.15000
H 	H 	0.66760 0.06750 0.59920 0.07700
C 	C 	0.69350 0.13170 0.76040 0.12000
H 	H 	0.72150 0.10640 0.75220 -0.02500
C 	C 	0.31630 0.26680 0.65020 -0.17100
H 	H 	0.32170 0.30130 0.57350 0.08000
C 	C 	0.28840 0.29160 0.73720 0.11900
H 	H 	0.27480 0.34460 0.72090 -0.01800
C 	C 	0.29770 0.16870 0.86260 0.10500
H 	H 	0.28900 0.13240 0.93410 0.00700
C 	C 	0.32900 0.13740 0.78260 -0.16100
H 	H 	0.34340 0.08560 0.80100 0.08900
N 	N 	0.18730 0.31650 0.85460 -0.23300
N 	N 	0.27542 0.24730 0.14190 -0.26800
C 	C 	0.17720 0.26160 0.73510 0.02700
C 	C 	0.16710 0.39350 0.84150 -0.01500
H 	H 	0.19330 0.21070 0.72490 0.01100
C 	C 	0.14560 0.28050 0.63770 -0.08000
C 	C 	0.13510 0.41170 0.75300 -0.02000
H 	H 	0.17640 0.43750 0.89990 0.03500
C 	C 	0.11990 0.35770 0.66160 0.08500
H 	H 	0.14100 0.24570 0.56080 0.04600
H 	H 	0.12260 0.46660 0.75600 0.03800
C 	C 	0.08330 0.37500 0.56690 -0.02300
S 	S 	0.03108 0.39897 0.65198 0.00100
S 	S 	0.92317 0.38041 0.65219 -0.00200
C 	C 	0.87500 0.33710 0.56860 -0.04400
C 	C 	0.83940 0.31000 0.66290 0.13500
C 	C 	0.79590 0.32840 0.65080 -0.06200
C 	C 	0.85000 0.25180 0.78110 -0.06500
H 	H 	0.78680 0.35960 0.57390 0.04500
C 	C 	0.76300 0.30340 0.74770 -0.01700
C 	C 	0.81870 0.22510 0.86650 0.00100
H 	H 	0.87930 0.23400 0.79480 0.06200
H 	H 	0.73340 0.32080 0.73700 0.02600
H 	H 	0.82630 0.18600 0.93530 0.04100
C 	C 	0.14300 0.28540 0.11620 0.12400
H 	H 	0.13710 0.25520 0.03530 -0.15400
C 	C 	0.11030 0.30100 0.20850 -0.14700
H 	H 	0.08200 0.27790 0.19480 0.07800
C 	C 	0.16050 0.39100 0.33500 -0.00800
H 	H 	0.16760 0.43250 0.40080 0.02700
C 	C 	0.19350 0.36830 0.23960 -0.01800
H 	H 	0.22150 0.39360 0.24780 0.01900
C 	C 	0.81630 0.23320 0.34980 -0.20200
H 	H 	0.82170 0.19870 0.42650 0.09100
C 	C 	0.78840 0.20840 0.26280 0.15000
H 	H 	0.77480 0.15540 0.27910 -0.03500
C 	C 	0.79770 0.33130 0.13740 0.13400
H 	H 	0.78900 0.36760 0.06590 -0.04900
C 	C 	0.82900 0.36260 0.21740 -0.19300
H 	H 	0.84340 0.41440 0.19900 0.08900
N 	N 	0.81270 0.68350 0.85460 -0.23300
N 	N 	0.72458 0.75270 0.14190 -0.26800
C 	C 	0.82280 0.73840 0.73510 0.02700
C 	C 	0.83290 0.60650 0.84150 -0.01500
H 	H 	0.80670 0.78930 0.72490 0.01100
C 	C 	0.85440 0.71950 0.63770 -0.08000
C 	C 	0.86490 0.58830 0.75300 -0.02000
H 	H 	0.82360 0.56250 0.89990 0.03500
C 	C 	0.88010 0.64230 0.66160 0.08500
H 	H 	0.85900 0.75430 0.56080 0.04600
H 	H 	0.87740 0.53340 0.75600 0.03800
C 	C 	0.91670 0.62500 0.56690 -0.02300
S 	S 	0.96892 0.60103 0.65198 0.00100
S 	S 	0.07683 0.61959 0.65219 -0.00200
C 	C 	0.12500 0.66290 0.56860 -0.04400
C 	C 	0.16060 0.69000 0.66290 0.13500
C 	C 	0.20410 0.67160 0.65080 -0.06200
C 	C 	0.15000 0.74820 0.78110 -0.06500
H 	H 	0.21320 0.64040 0.57390 0.04500
C 	C 	0.23700 0.69660 0.74770 -0.01700
C 	C 	0.18130 0.77490 0.86650 0.00100
H 	H 	0.12070 0.76600 0.79480 0.06200
H 	H 	0.26660 0.67920 0.73700 0.02600
H 	H 	0.17370 0.81400 0.93530 0.04100
C 	C 	0.85700 0.71460 0.11620 0.12400
H 	H 	0.86290 0.74480 0.03530 -0.15400
C 	C 	0.88970 0.69900 0.20850 -0.14700
H 	H 	0.91800 0.72210 0.19480 0.07800
C 	C 	0.83950 0.60900 0.33500 -0.00800
H 	H 	0.83240 0.56750 0.40080 0.02700
C 	C 	0.80650 0.63170 0.23960 -0.01800
H 	H 	0.77850 0.60640 0.24780 0.01900
C 	C 	0.18370 0.76680 0.34980 -0.20200
H 	H 	0.17830 0.80130 0.42650 0.09100
C 	C 	0.21160 0.79160 0.26280 0.15000
H 	H 	0.22520 0.84460 0.27910 -0.03500
C 	C 	0.20230 0.66870 0.13740 0.13400
H 	H 	0.21100 0.63240 0.06590 -0.04900
C 	C 	0.17100 0.63740 0.21740 -0.19300
H 	H 	0.15660 0.58560 0.19900 0.08900
Fe	Fe	0.73149 0.21713 -0.00000 1.16000
N 	N 	0.75780 0.10360 -0.00000 -0.31000
N 	N 	0.70790 0.33340 -0.00000 -0.31200
C 	C 	0.78100 0.04550 -0.00000 0.14600
N 	N 	0.81280 0.98400 -0.00000 -0.19300
C 	C 	0.79940 0.90490 -0.00000 0.16600
Fe	Fe	0.26851 0.78287 -0.00000 1.16000
N 	N 	0.24220 0.89640 -0.00000 -0.31000
N 	N 	0.29210 0.66660 -0.00000 -0.31200
C 	C 	0.21900 0.95450 -0.00000 0.14600
N 	N 	0.18720 0.01600 -0.00000 -0.19300
C 	C 	0.20060 0.09510 -0.00000 0.16600
Fe	Fe	0.76851 0.71713 -0.00000 1.16000
N 	N 	0.74220 0.60360 -0.00000 -0.31000
N 	N 	0.79210 0.83340 -0.00000 -0.31200
C 	C 	0.71900 0.54550 -0.00000 0.14600
N 	N 	0.68720 0.48400 -0.00000 -0.19400
C 	C 	0.70060 0.40490 -0.00000 0.16600
Fe	Fe	0.23149 0.28287 -0.00000 1.16000
N 	N 	0.25780 0.39640 -0.00000 -0.31000
N 	N 	0.20790 0.16660 -0.00000 -0.31200
C 	C 	0.28100 0.45450 -0.00000 0.14600
N 	N 	0.31280 0.51600 -0.00000 -0.19400
C 	C 	0.29940 0.59510 -0.00000 0.16600
C 	C 	0.50060 0.10600 0.50000 -0.00400
C 	C 	0.45430 0.11240 0.50000 -0.00200
C 	C 	0.49940 0.89400 0.50000 -0.00400
C 	C 	0.54570 0.88760 0.50000 -0.00200
C 	C 	0.99940 0.60600 0.50000 -0.00400
C 	C 	0.04570 0.61240 0.50000 -0.00200
C 	C 	0.00060 0.39400 0.50000 -0.00400
C 	C 	0.95430 0.38760 0.50000 -0.00200
