data_crystal

_cell_length_a 29.84600
_cell_length_b 15.67180
_cell_length_c 9.69370
_cell_angle_alpha 90.00000
_cell_angle_beta  90.00000
_cell_angle_gamma 90.00000

_symmetry_space_group_name_	'P 1'
_symmetry_space_group_name_H-M	'P 1'

loop_
_symmetry_equiv_pos_as_xyz
  x,y,z

loop_
_atom_site_label
_atom_site_type_symbol
_atom_site_fract_x
_atom_site_fract_y
_atom_site_fract_z
_atom_site_charge
N 	N 	0.68790 0.18170 0.14480 -0.28200
N 	N 	0.77649 0.24940 0.85720 -0.24700
C 	C 	0.67830 0.23530 0.73370 0.03300
C 	C 	0.66900 0.10540 0.84070 -0.00800
H 	H 	0.69490 0.28510 0.72300 0.01000
C 	C 	0.64720 0.21730 0.63670 -0.08500
C 	C 	0.63650 0.08670 0.75150 -0.02700
H 	H 	0.67930 0.06170 0.89730 0.03000
C 	C 	0.62100 0.14150 0.66290 0.08400
H 	H 	0.64300 0.25110 0.55890 0.04700
H 	H 	0.62450 0.03200 0.75250 0.04000
C 	C 	0.58360 0.12370 0.56870 -0.02300
S 	S 	0.53192 0.10067 0.65217 0.00100
S 	S 	0.42384 0.12120 0.65178 -0.00300
C 	C 	0.37610 0.16440 0.56830 -0.04400
C 	C 	0.34040 0.19230 0.66380 0.13200
C 	C 	0.29750 0.17420 0.65160 -0.07800
C 	C 	0.35160 0.25120 0.78020 -0.08300
H 	H 	0.28840 0.14290 0.57510 0.04900
C 	C 	0.26360 0.20000 0.75080 0.00600
C 	C 	0.31940 0.27730 0.86630 0.02600
H 	H 	0.38100 0.26970 0.79260 0.06700
H 	H 	0.23400 0.18250 0.74160 0.01600
H 	H 	0.32700 0.31560 0.93570 0.03100
C 	C 	0.64410 0.21150 0.11550 0.16800
H 	H 	0.63840 0.24160 0.03470 -0.19100
C 	C 	0.61130 0.19610 0.20510 -0.17700
H 	H 	0.58280 0.21770 0.18930 0.08900
C 	C 	0.66150 0.10850 0.33330 -0.00700
H 	H 	0.66880 0.06820 0.39990 0.02700
C 	C 	0.69380 0.12930 0.23840 -0.01700
H 	H 	0.72160 0.10260 0.24480 0.01700
C 	C 	0.31780 0.26740 0.34880 -0.16200
H 	H 	0.32400 0.30140 0.42510 0.07700
C 	C 	0.28880 0.29400 0.26360 0.10800
H 	H 	0.27480 0.34570 0.28230 -0.02100
C 	C 	0.29890 0.17160 0.13600 0.09800
H 	H 	0.29070 0.13690 0.06240 -0.03900
C 	C 	0.32970 0.13950 0.21830 -0.16300
H 	H 	0.34340 0.08710 0.20200 0.07800
N 	N 	0.31210 0.81830 0.14480 -0.28300
N 	N 	0.22351 0.75060 0.85720 -0.24800
C 	C 	0.32170 0.76470 0.73370 0.03300
C 	C 	0.33100 0.89460 0.84070 -0.00800
H 	H 	0.30510 0.71490 0.72300 0.01000
C 	C 	0.35280 0.78270 0.63670 -0.08500
C 	C 	0.36350 0.91330 0.75150 -0.02700
H 	H 	0.32070 0.93830 0.89730 0.03000
C 	C 	0.37900 0.85850 0.66290 0.08400
H 	H 	0.35700 0.74890 0.55890 0.04700
H 	H 	0.37550 0.96800 0.75250 0.04000
C 	C 	0.41640 0.87630 0.56870 -0.02300
S 	S 	0.46808 0.89933 0.65217 0.00100
S 	S 	0.57616 0.87880 0.65178 -0.00300
C 	C 	0.62390 0.83560 0.56830 -0.04400
C 	C 	0.65960 0.80770 0.66380 0.13200
C 	C 	0.70250 0.82580 0.65160 -0.07800
C 	C 	0.64840 0.74880 0.78020 -0.08300
H 	H 	0.71160 0.85710 0.57510 0.04900
C 	C 	0.73640 0.80000 0.75080 0.00600
C 	C 	0.68060 0.72270 0.86630 0.02600
H 	H 	0.61900 0.73030 0.79260 0.06700
H 	H 	0.76600 0.81750 0.74160 0.01600
H 	H 	0.67300 0.68440 0.93570 0.03100
C 	C 	0.35590 0.78850 0.11550 0.16800
H 	H 	0.36160 0.75840 0.03470 -0.19100
C 	C 	0.38870 0.80390 0.20510 -0.17700
H 	H 	0.41720 0.78230 0.18930 0.08900
C 	C 	0.33850 0.89150 0.33330 -0.00700
H 	H 	0.33120 0.93180 0.39990 0.02700
C 	C 	0.30620 0.87070 0.23840 -0.01700
H 	H 	0.27840 0.89740 0.24480 0.01700
C 	C 	0.68220 0.73260 0.34880 -0.16200
H 	H 	0.67600 0.69860 0.42510 0.07700
C 	C 	0.71120 0.70600 0.26360 0.10800
H 	H 	0.72520 0.65430 0.28230 -0.02100
C 	C 	0.70110 0.82840 0.13600 0.09800
H 	H 	0.70930 0.86310 0.06240 -0.03900
C 	C 	0.67030 0.86050 0.21830 -0.16300
H 	H 	0.65660 0.91290 0.20200 0.07800
N 	N 	0.81210 0.68170 0.85520 -0.23100
N 	N 	0.72351 0.74940 0.14280 -0.26600
C 	C 	0.82170 0.73530 0.26630 0.04600
C 	C 	0.83100 0.60540 0.15930 0.13300
H 	H 	0.80510 0.78510 0.27700 0.00000
C 	C 	0.85280 0.71730 0.36330 -0.13900
C 	C 	0.86350 0.58670 0.24850 -0.22400
H 	H 	0.82070 0.56170 0.10270 -0.04500
C 	C 	0.87900 0.64150 0.33710 0.16700
H 	H 	0.85700 0.75110 0.44110 0.07100
H 	H 	0.87550 0.53200 0.24750 0.10200
C 	C 	0.91640 0.62370 0.43130 -0.05800
S 	S 	0.96808 0.60067 0.34783 -0.01000
S 	S 	0.07616 0.62120 0.34822 -0.02100
C 	C 	0.12390 0.66440 0.43170 -0.04500
C 	C 	0.15960 0.69230 0.33620 0.14100
C 	C 	0.20250 0.67420 0.34840 -0.06800
C 	C 	0.14840 0.75120 0.21980 -0.08400
H 	H 	0.21160 0.64290 0.42490 0.04500
C 	C 	0.23640 0.70000 0.24920 -0.00800
C 	C 	0.18060 0.77730 0.13370 0.01600
H 	H 	0.11900 0.76970 0.20740 0.05400
H 	H 	0.26600 0.68250 0.25840 0.01700
H 	H 	0.17300 0.81560 0.06430 -0.00900
C 	C 	0.85590 0.71150 0.88450 -0.09300
H 	H 	0.86160 0.74160 0.96530 0.19400
C 	C 	0.88870 0.69610 0.79490 -0.03100
H 	H 	0.91720 0.71770 0.81070 0.05000
C 	C 	0.83850 0.60850 0.66670 -0.14500
H 	H 	0.83120 0.56820 0.60010 0.07600
C 	C 	0.80620 0.62930 0.76160 0.11200
H 	H 	0.77840 0.60260 0.75520 -0.02300
C 	C 	0.18220 0.76740 0.65120 -0.14200
H 	H 	0.17600 0.80140 0.57490 0.07000
C 	C 	0.21120 0.79400 0.73640 0.08800
H 	H 	0.22520 0.84570 0.71770 -0.00900
C 	C 	0.20110 0.67160 0.86400 0.07500
H 	H 	0.20930 0.63690 0.93760 0.01600
C 	C 	0.17030 0.63950 0.78170 -0.13700
H 	H 	0.15660 0.58710 0.79800 0.08000
N 	N 	0.18790 0.31830 0.85520 -0.23100
N 	N 	0.27649 0.25060 0.14280 -0.26600
C 	C 	0.17830 0.26470 0.26630 0.04600
C 	C 	0.16900 0.39460 0.15930 0.13300
H 	H 	0.19490 0.21490 0.27700 0.00000
C 	C 	0.14720 0.28270 0.36330 -0.13900
C 	C 	0.13650 0.41330 0.24850 -0.22400
H 	H 	0.17930 0.43830 0.10270 -0.04500
C 	C 	0.12100 0.35850 0.33710 0.16700
H 	H 	0.14300 0.24890 0.44110 0.07100
H 	H 	0.12450 0.46800 0.24750 0.10200
C 	C 	0.08360 0.37630 0.43130 -0.05800
S 	S 	0.03192 0.39933 0.34783 -0.01000
S 	S 	0.92384 0.37880 0.34822 -0.02100
C 	C 	0.87610 0.33560 0.43170 -0.04500
C 	C 	0.84040 0.30770 0.33620 0.14100
C 	C 	0.79750 0.32580 0.34840 -0.06800
C 	C 	0.85160 0.24880 0.21980 -0.08400
H 	H 	0.78840 0.35710 0.42490 0.04500
C 	C 	0.76360 0.30000 0.24920 -0.00800
C 	C 	0.81940 0.22270 0.13370 0.01600
H 	H 	0.88100 0.23030 0.20740 0.05400
H 	H 	0.73400 0.31750 0.25840 0.01700
H 	H 	0.82700 0.18440 0.06430 -0.00900
C 	C 	0.14410 0.28850 0.88450 -0.09300
H 	H 	0.13840 0.25840 0.96530 0.19400
C 	C 	0.11130 0.30390 0.79490 -0.03100
H 	H 	0.08280 0.28230 0.81070 0.05000
C 	C 	0.16150 0.39150 0.66670 -0.14500
H 	H 	0.16880 0.43180 0.60010 0.07600
C 	C 	0.19380 0.37070 0.76160 0.11200
H 	H 	0.22160 0.39740 0.75520 -0.02300
C 	C 	0.81780 0.23260 0.65120 -0.14200
H 	H 	0.82400 0.19860 0.57490 0.07000
C 	C 	0.78880 0.20600 0.73640 0.08800
H 	H 	0.77480 0.15430 0.71770 -0.00900
C 	C 	0.79890 0.32840 0.86400 0.07500
H 	H 	0.79070 0.36310 0.93760 0.01600
C 	C 	0.82970 0.36050 0.78170 -0.13700
H 	H 	0.84340 0.41290 0.79800 0.08000
N 	N 	0.31210 0.81830 0.85520 -0.23100
N 	N 	0.22351 0.75060 0.14280 -0.26600
C 	C 	0.32170 0.76470 0.26630 0.04600
C 	C 	0.33100 0.89460 0.15930 0.13400
H 	H 	0.30510 0.71490 0.27700 0.00000
C 	C 	0.35280 0.78270 0.36330 -0.13900
C 	C 	0.36350 0.91330 0.24850 -0.22500
H 	H 	0.32070 0.93830 0.10270 -0.04500
C 	C 	0.37900 0.85850 0.33710 0.16700
H 	H 	0.35700 0.74890 0.44110 0.07100
H 	H 	0.37550 0.96800 0.24750 0.10200
C 	C 	0.41640 0.87630 0.43130 -0.05800
S 	S 	0.46808 0.89933 0.34783 -0.01000
S 	S 	0.57616 0.87880 0.34822 -0.02100
C 	C 	0.62390 0.83560 0.43170 -0.04500
C 	C 	0.65960 0.80770 0.33620 0.14100
C 	C 	0.70250 0.82580 0.34840 -0.06900
C 	C 	0.64840 0.74880 0.21980 -0.08400
H 	H 	0.71160 0.85710 0.42490 0.04500
C 	C 	0.73640 0.80000 0.24920 -0.00800
C 	C 	0.68060 0.72270 0.13370 0.01700
H 	H 	0.61900 0.73030 0.20740 0.05400
H 	H 	0.76600 0.81750 0.25840 0.01700
H 	H 	0.67300 0.68440 0.06430 -0.00900
C 	C 	0.35590 0.78850 0.88450 -0.09300
H 	H 	0.36160 0.75840 0.96530 0.19400
C 	C 	0.38870 0.80390 0.79490 -0.03100
H 	H 	0.41720 0.78230 0.81070 0.05000
C 	C 	0.33850 0.89150 0.66670 -0.14500
H 	H 	0.33120 0.93180 0.60010 0.07500
C 	C 	0.30620 0.87070 0.76160 0.11300
H 	H 	0.27840 0.89740 0.75520 -0.02300
C 	C 	0.68220 0.73260 0.65120 -0.14200
H 	H 	0.67600 0.69860 0.57490 0.07100
C 	C 	0.71120 0.70600 0.73640 0.08900
H 	H 	0.72520 0.65430 0.71770 -0.00900
C 	C 	0.70110 0.82840 0.86400 0.07500
H 	H 	0.70930 0.86310 0.93760 0.01600
C 	C 	0.67030 0.86050 0.78170 -0.13700
H 	H 	0.65660 0.91290 0.79800 0.08000
N 	N 	0.68790 0.18170 0.85520 -0.23100
N 	N 	0.77649 0.24940 0.14280 -0.26600
C 	C 	0.67830 0.23530 0.26630 0.04600
C 	C 	0.66900 0.10540 0.15930 0.13400
H 	H 	0.69490 0.28510 0.27700 0.00000
C 	C 	0.64720 0.21730 0.36330 -0.13900
C 	C 	0.63650 0.08670 0.24850 -0.22500
H 	H 	0.67930 0.06170 0.10270 -0.04500
C 	C 	0.62100 0.14150 0.33710 0.16700
H 	H 	0.64300 0.25110 0.44110 0.07100
H 	H 	0.62450 0.03200 0.24750 0.10200
C 	C 	0.58360 0.12370 0.43130 -0.05800
S 	S 	0.53192 0.10067 0.34783 -0.01000
S 	S 	0.42384 0.12120 0.34822 -0.02100
C 	C 	0.37610 0.16440 0.43170 -0.04500
C 	C 	0.34040 0.19230 0.33620 0.14100
C 	C 	0.29750 0.17420 0.34840 -0.06900
C 	C 	0.35160 0.25120 0.21980 -0.08400
H 	H 	0.28840 0.14290 0.42490 0.04500
C 	C 	0.26360 0.20000 0.24920 -0.00800
C 	C 	0.31940 0.27730 0.13370 0.01700
H 	H 	0.38100 0.26970 0.20740 0.05400
H 	H 	0.23400 0.18250 0.25840 0.01700
H 	H 	0.32700 0.31560 0.06430 -0.00900
C 	C 	0.64410 0.21150 0.88450 -0.09300
H 	H 	0.63840 0.24160 0.96530 0.19400
C 	C 	0.61130 0.19610 0.79490 -0.03100
H 	H 	0.58280 0.21770 0.81070 0.05000
C 	C 	0.66150 0.10850 0.66670 -0.14500
H 	H 	0.66880 0.06820 0.60010 0.07500
C 	C 	0.69380 0.12930 0.76160 0.11300
H 	H 	0.72160 0.10260 0.75520 -0.02300
C 	C 	0.31780 0.26740 0.65120 -0.14200
H 	H 	0.32400 0.30140 0.57490 0.07100
C 	C 	0.28880 0.29400 0.73640 0.08900
H 	H 	0.27480 0.34570 0.71770 -0.00900
C 	C 	0.29890 0.17160 0.86400 0.07500
H 	H 	0.29070 0.13690 0.93760 0.01600
C 	C 	0.32970 0.13950 0.78170 -0.13700
H 	H 	0.34340 0.08710 0.79800 0.08000
N 	N 	0.18790 0.31830 0.14480 -0.28300
N 	N 	0.27649 0.25060 0.85720 -0.24800
C 	C 	0.17830 0.26470 0.73370 0.03300
C 	C 	0.16900 0.39460 0.84070 -0.00800
H 	H 	0.19490 0.21490 0.72300 0.00900
C 	C 	0.14720 0.28270 0.63670 -0.08500
C 	C 	0.13650 0.41330 0.75150 -0.02700
H 	H 	0.17930 0.43830 0.89730 0.03000
C 	C 	0.12100 0.35850 0.66290 0.08400
H 	H 	0.14300 0.24890 0.55890 0.04700
H 	H 	0.12450 0.46800 0.75250 0.04000
C 	C 	0.08360 0.37630 0.56870 -0.02300
S 	S 	0.03192 0.39933 0.65217 0.00100
S 	S 	0.92384 0.37880 0.65178 -0.00300
C 	C 	0.87610 0.33560 0.56830 -0.04400
C 	C 	0.84040 0.30770 0.66380 0.13200
C 	C 	0.79750 0.32580 0.65160 -0.07800
C 	C 	0.85160 0.24880 0.78020 -0.08300
H 	H 	0.78840 0.35710 0.57510 0.05000
C 	C 	0.76360 0.30000 0.75080 0.00600
C 	C 	0.81940 0.22270 0.86630 0.02600
H 	H 	0.88100 0.23030 0.79260 0.06700
H 	H 	0.73400 0.31750 0.74160 0.01600
H 	H 	0.82700 0.18440 0.93570 0.03100
C 	C 	0.14410 0.28850 0.11550 0.16800
H 	H 	0.13840 0.25840 0.03470 -0.19000
C 	C 	0.11130 0.30390 0.20510 -0.17700
H 	H 	0.08280 0.28230 0.18930 0.08900
C 	C 	0.16150 0.39150 0.33330 -0.00700
H 	H 	0.16880 0.43180 0.39990 0.02700
C 	C 	0.19380 0.37070 0.23840 -0.01700
H 	H 	0.22160 0.39740 0.24480 0.01700
C 	C 	0.81780 0.23260 0.34880 -0.16200
H 	H 	0.82400 0.19860 0.42510 0.07700
C 	C 	0.78880 0.20600 0.26360 0.10800
H 	H 	0.77480 0.15430 0.28230 -0.02100
C 	C 	0.79890 0.32840 0.13600 0.09900
H 	H 	0.79070 0.36310 0.06240 -0.03900
C 	C 	0.82970 0.36050 0.21830 -0.16400
H 	H 	0.84340 0.41290 0.20200 0.07800
N 	N 	0.81210 0.68170 0.14480 -0.28300
N 	N 	0.72351 0.74940 0.85720 -0.24800
C 	C 	0.82170 0.73530 0.73370 0.03300
C 	C 	0.83100 0.60540 0.84070 -0.00800
H 	H 	0.80510 0.78510 0.72300 0.00900
C 	C 	0.85280 0.71730 0.63670 -0.08500
C 	C 	0.86350 0.58670 0.75150 -0.02700
H 	H 	0.82070 0.56170 0.89730 0.03000
C 	C 	0.87900 0.64150 0.66290 0.08400
H 	H 	0.85700 0.75110 0.55890 0.04700
H 	H 	0.87550 0.53200 0.75250 0.04000
C 	C 	0.91640 0.62370 0.56870 -0.02300
S 	S 	0.96808 0.60067 0.65217 0.00100
S 	S 	0.07616 0.62120 0.65178 -0.00300
C 	C 	0.12390 0.66440 0.56830 -0.04400
C 	C 	0.15960 0.69230 0.66380 0.13200
C 	C 	0.20250 0.67420 0.65160 -0.07800
C 	C 	0.14840 0.75120 0.78020 -0.08300
H 	H 	0.21160 0.64290 0.57510 0.05000
C 	C 	0.23640 0.70000 0.75080 0.00600
C 	C 	0.18060 0.77730 0.86630 0.02600
H 	H 	0.11900 0.76970 0.79260 0.06700
H 	H 	0.26600 0.68250 0.74160 0.01600
H 	H 	0.17300 0.81560 0.93570 0.03100
C 	C 	0.85590 0.71150 0.11550 0.16800
H 	H 	0.86160 0.74160 0.03470 -0.19000
C 	C 	0.88870 0.69610 0.20510 -0.17700
H 	H 	0.91720 0.71770 0.18930 0.08900
C 	C 	0.83850 0.60850 0.33330 -0.00700
H 	H 	0.83120 0.56820 0.39990 0.02700
C 	C 	0.80620 0.62930 0.23840 -0.01700
H 	H 	0.77840 0.60260 0.24480 0.01700
C 	C 	0.18220 0.76740 0.34880 -0.16200
H 	H 	0.17600 0.80140 0.42510 0.07700
C 	C 	0.21120 0.79400 0.26360 0.10800
H 	H 	0.22520 0.84570 0.28230 -0.02100
C 	C 	0.20110 0.67160 0.13600 0.09900
H 	H 	0.20930 0.63690 0.06240 -0.03900
C 	C 	0.17030 0.63950 0.21830 -0.16400
H 	H 	0.15660 0.58710 0.20200 0.07800
Fe	Fe	0.73235 0.21474 -0.00000 1.15800
N 	N 	0.75910 0.10170 -0.00000 -0.31300
N 	N 	0.70860 0.33120 -0.00000 -0.30500
C 	C 	0.78080 0.04380 -0.00000 0.15800
N 	N 	0.81150 0.98110 -0.00000 -0.19400
C 	C 	0.79830 0.90280 -0.00000 0.16100
Fe	Fe	0.26765 0.78526 -0.00000 1.15800
N 	N 	0.24090 0.89830 -0.00000 -0.31300
N 	N 	0.29140 0.66880 -0.00000 -0.30500
C 	C 	0.21920 0.95620 -0.00000 0.15800
N 	N 	0.18850 0.01890 -0.00000 -0.19400
C 	C 	0.20170 0.09720 -0.00000 0.16100
Fe	Fe	0.76765 0.71474 -0.00000 1.15800
N 	N 	0.74090 0.60170 -0.00000 -0.31300
N 	N 	0.79140 0.83120 -0.00000 -0.30500
C 	C 	0.71920 0.54380 -0.00000 0.15800
N 	N 	0.68850 0.48110 -0.00000 -0.19400
C 	C 	0.70170 0.40280 -0.00000 0.16100
Fe	Fe	0.23235 0.28526 -0.00000 1.15800
N 	N 	0.25910 0.39830 -0.00000 -0.31300
N 	N 	0.20860 0.16880 -0.00000 -0.30500
C 	C 	0.28080 0.45620 -0.00000 0.15800
N 	N 	0.31150 0.51890 -0.00000 -0.19400
C 	C 	0.29830 0.59720 -0.00000 0.16100
C 	C 	0.50020 0.10650 0.50000 -0.00500
C 	C 	0.45500 0.11410 0.50000 -0.00200
C 	C 	0.49980 0.89350 0.50000 -0.00500
C 	C 	0.54500 0.88590 0.50000 -0.00200
C 	C 	0.99980 0.60650 0.50000 -0.00500
C 	C 	0.04500 0.61410 0.50000 -0.00200
C 	C 	0.00020 0.39350 0.50000 -0.00500
C 	C 	0.95500 0.38590 0.50000 -0.00200
