data_crystal

_cell_length_a 8.29360
_cell_length_b 16.25390
_cell_length_c 17.00730
_cell_angle_alpha 90.00000
_cell_angle_beta  100.02300
_cell_angle_gamma 90.00000

_symmetry_space_group_name_	'P 1'
_symmetry_space_group_name_H-M	'P 1'

loop_
_symmetry_equiv_pos_as_xyz
  x,y,z

loop_
_atom_site_label
_atom_site_type_symbol
_atom_site_fract_x
_atom_site_fract_y
_atom_site_fract_z
_atom_site_charge
C 	C 	0.79590 0.88430 0.13780 0.09500
H 	H 	0.89690 0.89980 0.12590 -0.01400
C 	C 	0.66120 0.93100 0.10840 -0.17500
H 	H 	0.67180 0.97730 0.07760 0.09900
C 	C 	0.51080 0.90930 0.12480 0.10900
C 	C 	0.49900 0.83820 0.16780 -0.16500
H 	H 	0.39760 0.81990 0.17690 0.08600
C 	C 	0.63960 0.79450 0.19710 0.08900
H 	H 	0.63120 0.74770 0.22760 -0.00800
C 	C 	0.36400 0.96150 0.09680 -0.03600
C 	C 	0.34930 0.04230 0.10980 -0.03200
C 	C 	0.48160 0.09690 0.15180 0.10900
C 	C 	0.51890 0.16930 0.11610 -0.17100
H 	H 	0.45590 0.18720 0.06860 0.09600
C 	C 	0.65410 0.21470 0.15340 0.09500
H 	H 	0.67870 0.26380 0.13000 -0.01500
C 	C 	0.70690 0.12280 0.25680 0.08900
H 	H 	0.76880 0.10740 0.30560 -0.01300
C 	C 	0.57330 0.07410 0.22360 -0.16900
H 	H 	0.54700 0.02710 0.24980 0.09900
C 	C 	0.07280 0.00050 0.02360 -0.00700
Fe	Fe	0.01656 0.75311 0.23304 1.13200
N 	N 	0.78870 0.81710 0.18310 -0.24000
N 	N 	0.74870 0.19100 0.22070 -0.24200
N 	N 	0.14300 0.87000 0.24620 -0.27100
C 	C 	0.18250 0.93360 0.26970 0.17100
C 	C 	0.16570 0.07320 0.28570 0.17900
N 	N 	0.11150 0.13760 0.27620 -0.27100
N 	N 	0.97020 0.77160 0.35060 -0.28500
C 	C 	0.98110 0.79310 0.41420 0.21200
C 	C 	0.02930 0.79180 0.55150 0.21000
N 	N 	0.05870 0.76720 0.61420 -0.28500
N 	N 	0.04700 0.83200 0.48460 -0.13000
N 	N 	0.24350 0.00360 0.29960 -0.18300
S 	S 	0.16170 0.08892 0.07151 -0.01200
S 	S 	0.19504 0.91127 0.04003 -0.01900
N 	N 	0.93400 0.81730 0.48290 -0.12700
C 	C 	0.20410 0.38430 0.36220 0.09500
H 	H 	0.10310 0.39980 0.37410 -0.01500
C 	C 	0.33880 0.43100 0.39160 -0.17400
H 	H 	0.32820 0.47730 0.42240 0.09900
C 	C 	0.48920 0.40930 0.37520 0.10800
C 	C 	0.50100 0.33820 0.33220 -0.16400
H 	H 	0.60240 0.31990 0.32310 0.08600
C 	C 	0.36040 0.29450 0.30290 0.08900
H 	H 	0.36880 0.24770 0.27240 -0.00800
C 	C 	0.63600 0.46150 0.40320 -0.03400
C 	C 	0.65070 0.54230 0.39020 -0.03300
C 	C 	0.51840 0.59690 0.34820 0.11000
C 	C 	0.48110 0.66930 0.38390 -0.17200
H 	H 	0.54410 0.68720 0.43140 0.09600
C 	C 	0.34590 0.71470 0.34660 0.09500
H 	H 	0.32130 0.76380 0.37000 -0.01500
C 	C 	0.29310 0.62280 0.24320 0.08900
H 	H 	0.23120 0.60740 0.19440 -0.01300
C 	C 	0.42670 0.57410 0.27640 -0.16900
H 	H 	0.45300 0.52710 0.25020 0.09900
C 	C 	0.92720 0.50050 0.47640 -0.00900
Fe	Fe	0.98344 0.25311 0.26696 1.13200
N 	N 	0.21130 0.31710 0.31690 -0.24000
N 	N 	0.25130 0.69100 0.27930 -0.24200
N 	N 	0.85700 0.37000 0.25380 -0.27200
C 	C 	0.81750 0.43360 0.23030 0.17400
C 	C 	0.83430 0.57320 0.21430 0.17800
N 	N 	0.88850 0.63760 0.22380 -0.27100
N 	N 	0.02980 0.27160 0.14940 -0.28500
C 	C 	0.01890 0.29310 0.08580 0.21100
C 	C 	0.97070 0.29180 0.94850 0.21000
N 	N 	0.94130 0.26720 0.88580 -0.28500
N 	N 	0.95300 0.33200 0.01540 -0.12900
N 	N 	0.75650 0.50360 0.20040 -0.18400
S 	S 	0.83830 0.58892 0.42849 -0.01200
S 	S 	0.80496 0.41127 0.45997 -0.01600
N 	N 	0.06600 0.31730 0.01710 -0.12900
C 	C 	0.20410 0.11570 0.86220 0.09500
H 	H 	0.10310 0.10020 0.87410 -0.01400
C 	C 	0.33880 0.06900 0.89160 -0.17500
H 	H 	0.32820 0.02270 0.92240 0.09900
C 	C 	0.48920 0.09070 0.87520 0.10900
C 	C 	0.50100 0.16180 0.83220 -0.16500
H 	H 	0.60240 0.18010 0.82310 0.08600
C 	C 	0.36040 0.20550 0.80290 0.08900
H 	H 	0.36880 0.25230 0.77240 -0.00800
C 	C 	0.63600 0.03850 0.90320 -0.03600
C 	C 	0.65070 0.95770 0.89020 -0.03200
C 	C 	0.51840 0.90310 0.84820 0.10900
C 	C 	0.48110 0.83070 0.88390 -0.17100
H 	H 	0.54410 0.81280 0.93140 0.09600
C 	C 	0.34590 0.78530 0.84660 0.09500
H 	H 	0.32130 0.73620 0.87000 -0.01500
C 	C 	0.29310 0.87720 0.74320 0.08900
H 	H 	0.23120 0.89260 0.69440 -0.01300
C 	C 	0.42670 0.92590 0.77640 -0.16900
H 	H 	0.45300 0.97290 0.75020 0.09900
C 	C 	0.92720 0.99950 0.97640 -0.00700
Fe	Fe	0.98344 0.24689 0.76696 1.13200
N 	N 	0.21130 0.18290 0.81690 -0.24000
N 	N 	0.25130 0.80900 0.77930 -0.24200
N 	N 	0.85700 0.13000 0.75380 -0.27100
C 	C 	0.81750 0.06640 0.73030 0.17100
C 	C 	0.83430 0.92680 0.71430 0.17900
N 	N 	0.88850 0.86240 0.72380 -0.27100
N 	N 	0.02980 0.22840 0.64940 -0.28500
C 	C 	0.01890 0.20690 0.58580 0.21200
C 	C 	0.97070 0.20820 0.44850 0.21000
N 	N 	0.94130 0.23280 0.38580 -0.28500
N 	N 	0.95300 0.16800 0.51540 -0.13000
N 	N 	0.75650 0.99640 0.70040 -0.18300
S 	S 	0.83830 0.91108 0.92849 -0.01200
S 	S 	0.80496 0.08873 0.95997 -0.01900
N 	N 	0.06600 0.18270 0.51710 -0.12700
C 	C 	0.79590 0.61570 0.63780 0.09500
H 	H 	0.89690 0.60020 0.62590 -0.01500
C 	C 	0.66120 0.56900 0.60840 -0.17400
H 	H 	0.67180 0.52270 0.57760 0.09900
C 	C 	0.51080 0.59070 0.62480 0.10800
C 	C 	0.49900 0.66180 0.66780 -0.16400
H 	H 	0.39760 0.68010 0.67690 0.08600
C 	C 	0.63960 0.70550 0.69710 0.08900
H 	H 	0.63120 0.75230 0.72760 -0.00800
C 	C 	0.36400 0.53850 0.59680 -0.03400
C 	C 	0.34930 0.45770 0.60980 -0.03300
C 	C 	0.48160 0.40310 0.65180 0.11000
C 	C 	0.51890 0.33070 0.61610 -0.17200
H 	H 	0.45590 0.31280 0.56860 0.09600
C 	C 	0.65410 0.28530 0.65340 0.09500
H 	H 	0.67870 0.23620 0.63000 -0.01500
C 	C 	0.70690 0.37720 0.75680 0.08900
H 	H 	0.76880 0.39260 0.80560 -0.01300
C 	C 	0.57330 0.42590 0.72360 -0.16900
H 	H 	0.54700 0.47290 0.74980 0.09900
C 	C 	0.07280 0.49950 0.52360 -0.00900
Fe	Fe	0.01656 0.74689 0.73304 1.13200
N 	N 	0.78870 0.68290 0.68310 -0.24000
N 	N 	0.74870 0.30900 0.72070 -0.24200
N 	N 	0.14300 0.63000 0.74620 -0.27200
C 	C 	0.18250 0.56640 0.76970 0.17400
C 	C 	0.16570 0.42680 0.78570 0.17800
N 	N 	0.11150 0.36240 0.77620 -0.27100
N 	N 	0.97020 0.72840 0.85060 -0.28500
C 	C 	0.98110 0.70690 0.91420 0.21100
C 	C 	0.02930 0.70820 0.05150 0.21000
N 	N 	0.05870 0.73280 0.11420 -0.28500
N 	N 	0.04700 0.66800 0.98460 -0.12900
N 	N 	0.24350 0.49640 0.79960 -0.18400
S 	S 	0.16170 0.41108 0.57151 -0.01200
S 	S 	0.19504 0.58873 0.54003 -0.01600
N 	N 	0.93400 0.68270 0.98290 -0.12900
