data_crystal

_cell_length_a 8.73620
_cell_length_b 8.90230
_cell_length_c 24.05900
_cell_angle_alpha 93.75000
_cell_angle_beta  90.00000
_cell_angle_gamma 90.00000

_symmetry_space_group_name_	'P 1'
_symmetry_space_group_name_H-M	'P 1'

loop_
_symmetry_equiv_pos_as_xyz
  x,y,z

loop_
_atom_site_label
_atom_site_type_symbol
_atom_site_fract_x
_atom_site_fract_y
_atom_site_fract_z
_atom_site_charge
Cu	Cu	0.71266 0.75000 0.75000 0.90900
Cu	Cu	0.28734 0.25000 0.25000 0.90400
Cu	Cu	-0.00000 0.50000 0.50000 0.88500
Cu	Cu	-0.00000 0.00000 -0.00000 0.86500
H 	H 	0.00060 0.55050 0.62970 0.00900
H 	H 	0.21560 0.23370 0.54010 0.02000
H 	H 	0.27960 0.20250 0.63800 0.03300
H 	H 	0.11730 0.52160 0.72430 0.12100
H 	H 	0.25590 0.41140 0.72670 0.12200
H 	H 	0.08550 0.35220 0.78930 -0.06200
H 	H 	0.95280 0.34990 0.74640 -0.03700
H 	H 	0.65380 0.66430 0.62370 0.00800
H 	H 	0.64790 0.39650 0.74510 0.02600
H 	H 	0.58600 0.24380 0.65920 0.03400
H 	H 	0.51940 0.31270 0.55700 0.05100
H 	H 	0.68330 0.37240 0.54370 0.05800
H 	H 	0.58420 0.61220 0.53160 0.06900
H 	H 	0.42000 0.55820 0.54810 0.07200
H 	H 	0.01800 0.00300 0.55010 0.07800
H 	H 	0.09780 0.94500 0.60270 0.11500
H 	H 	0.85480 0.05980 0.61940 0.06600
H 	H 	0.78070 0.92070 0.58660 0.09300
H 	H 	0.00060 0.94950 0.87030 0.02700
H 	H 	0.21560 0.26630 0.95990 0.03400
H 	H 	0.27960 0.29750 0.86200 0.02900
H 	H 	0.11730 0.97840 0.77570 -0.00300
H 	H 	0.25590 0.08860 0.77330 -0.01600
H 	H 	0.08550 0.14780 0.71070 0.18900
H 	H 	0.95280 0.15010 0.75360 0.22500
H 	H 	0.65380 0.83570 0.87630 0.00500
H 	H 	0.64790 0.10350 0.75490 0.02700
H 	H 	0.58600 0.25620 0.84080 0.03600
H 	H 	0.51940 0.18730 0.94300 0.09200
H 	H 	0.68330 0.12760 0.95630 0.09900
H 	H 	0.58420 0.88780 0.96840 0.02000
H 	H 	0.42000 0.94180 0.95190 0.02400
H 	H 	0.01800 0.49700 0.94990 0.10400
H 	H 	0.09780 0.55500 0.89730 0.11900
H 	H 	0.85480 0.44020 0.88060 0.09800
H 	H 	0.78070 0.57930 0.91340 0.10500
H 	H 	0.99940 0.44950 0.37030 0.03300
H 	H 	0.78440 0.76630 0.45990 0.03600
H 	H 	0.72040 0.79750 0.36200 0.03200
H 	H 	0.88270 0.47840 0.27570 0.00300
H 	H 	0.74410 0.58860 0.27330 -0.01500
H 	H 	0.91450 0.64780 0.21070 0.18500
H 	H 	0.04720 0.65010 0.25360 0.15000
H 	H 	0.34620 0.33570 0.37630 0.00600
H 	H 	0.35210 0.60350 0.25490 0.02200
H 	H 	0.41400 0.75620 0.34080 0.03900
H 	H 	0.48060 0.68730 0.44300 0.05400
H 	H 	0.31670 0.62760 0.45630 0.05100
H 	H 	0.41580 0.38780 0.46840 0.06500
H 	H 	0.58000 0.44180 0.45190 0.07200
H 	H 	0.98200 0.99700 0.44990 0.12400
H 	H 	0.90220 0.05500 0.39730 0.10900
H 	H 	0.14520 0.94020 0.38060 0.13300
H 	H 	0.21930 0.07930 0.41340 0.13100
H 	H 	0.99940 0.05050 0.12970 0.01200
H 	H 	0.78440 0.73370 0.04010 0.02300
H 	H 	0.72040 0.70250 0.13800 0.03700
H 	H 	0.88270 0.02160 0.22430 0.12600
H 	H 	0.74410 0.91140 0.22670 0.12400
H 	H 	0.91450 0.85220 0.28930 -0.06800
H 	H 	0.04720 0.84990 0.24640 -0.11700
H 	H 	0.34620 0.16430 0.12370 0.00800
H 	H 	0.35210 0.89650 0.24510 0.02100
H 	H 	0.41400 0.74380 0.15920 0.03700
H 	H 	0.48060 0.81270 0.05700 0.01400
H 	H 	0.31670 0.87240 0.04370 0.01200
H 	H 	0.41580 0.11220 0.03160 0.11400
H 	H 	0.58000 0.05820 0.04810 0.12100
H 	H 	0.98200 0.50300 0.05010 0.09100
H 	H 	0.90220 0.44500 0.10270 0.10000
H 	H 	0.14520 0.55980 0.11940 0.10700
H 	H 	0.21930 0.42070 0.08660 0.12400
C 	C 	0.06140 0.46780 0.61910 0.07200
C 	C 	0.17980 0.29360 0.57040 0.00700
C 	C 	0.21600 0.27560 0.62440 -0.02900
C 	C 	0.14930 0.41830 0.71580 -0.28900
C 	C 	0.05870 0.32070 0.75120 0.31100
C 	C 	0.64510 0.57850 0.64347 0.09600
C 	C 	0.64190 0.43230 0.70966 0.01700
C 	C 	0.60710 0.34630 0.66235 -0.01000
C 	C 	0.58580 0.40010 0.56073 -0.05200
C 	C 	0.51520 0.52660 0.53017 -0.11000
C 	C 	0.03470 0.77520 0.54705 0.30900
C 	C 	0.01250 0.92740 0.57733 -0.25100
C 	C 	0.86630 0.95270 0.61014 -0.12100
C 	C 	0.85800 0.87160 0.66308 0.32800
C 	C 	0.06140 0.03220 0.88090 0.05400
C 	C 	0.17980 0.20640 0.92960 -0.00800
C 	C 	0.21600 0.22440 0.87560 0.00800
C 	C 	0.14930 0.08170 0.78420 0.15400
C 	C 	0.05870 0.17930 0.74880 -0.57600
C 	C 	0.64510 0.92150 0.85653 0.11700
C 	C 	0.64190 0.06770 0.79034 -0.01100
C 	C 	0.60710 0.15370 0.83765 -0.00500
C 	C 	0.58580 0.09990 0.93927 -0.17100
C 	C 	0.51520 0.97340 0.96983 0.09600
C 	C 	0.03470 0.72480 0.95295 0.31100
C 	C 	0.01250 0.57260 0.92267 -0.26700
C 	C 	0.86630 0.54730 0.88986 -0.16300
C 	C 	0.85800 0.62840 0.83692 0.34300
C 	C 	0.93860 0.53220 0.38090 0.10400
C 	C 	0.82020 0.70640 0.42960 -0.00100
C 	C 	0.78400 0.72440 0.37560 0.01600
C 	C 	0.85070 0.58170 0.28420 0.16400
C 	C 	0.94130 0.67930 0.24880 -0.48800
C 	C 	0.35490 0.42150 0.35653 0.08900
C 	C 	0.35810 0.56770 0.29034 0.01300
C 	C 	0.39290 0.65370 0.33765 -0.01600
C 	C 	0.41420 0.59990 0.43927 -0.05300
C 	C 	0.48480 0.47340 0.46983 -0.10800
C 	C 	0.96530 0.22480 0.45295 0.40600
C 	C 	0.98750 0.07260 0.42267 -0.20400
C 	C 	0.13370 0.04730 0.38986 -0.31500
C 	C 	0.14200 0.12840 0.33692 0.38000
C 	C 	0.93860 0.96780 0.11910 0.12700
C 	C 	0.82020 0.79360 0.07040 0.01400
C 	C 	0.78400 0.77560 0.12440 -0.02100
C 	C 	0.85070 0.91830 0.21580 -0.28000
C 	C 	0.94130 0.82070 0.25120 0.41100
C 	C 	0.35490 0.07850 0.14347 0.06900
C 	C 	0.35810 0.93230 0.20966 0.04000
C 	C 	0.39290 0.84630 0.16235 -0.02000
C 	C 	0.41420 0.90010 0.06073 0.06700
C 	C 	0.48480 0.02660 0.03017 -0.31400
C 	C 	0.96530 0.27520 0.04705 0.39800
C 	C 	0.98750 0.42740 0.07733 -0.17000
C 	C 	0.13370 0.45270 0.11014 -0.29100
C 	C 	0.14200 0.37160 0.16308 0.37000
N 	N 	0.08170 0.41470 0.56747 -0.21900
N 	N 	0.13990 0.38680 0.65481 -0.08500
N 	N 	0.66610 0.57590 0.69797 -0.21600
N 	N 	0.61010 0.44280 0.62073 -0.11500
N 	N 	0.08170 0.08530 0.93253 -0.20900
N 	N 	0.13990 0.11320 0.84519 -0.14100
N 	N 	0.66610 0.92410 0.80203 -0.20600
N 	N 	0.61010 0.05720 0.87927 -0.11400
N 	N 	0.91830 0.58530 0.43253 -0.20100
N 	N 	0.86010 0.61320 0.34519 -0.14000
N 	N 	0.33390 0.42410 0.30203 -0.21900
N 	N 	0.38990 0.55720 0.37927 -0.11700
N 	N 	0.91830 0.91470 0.06747 -0.20500
N 	N 	0.86010 0.88680 0.15481 -0.08400
N 	N 	0.33390 0.07590 0.19797 -0.22800
N 	N 	0.38990 0.94280 0.12073 -0.11900
O 	O 	0.96570 0.79870 0.68006 -0.27100
O 	O 	0.72850 0.88220 0.68844 -0.38800
O 	O 	0.92590 0.68030 0.54627 -0.34200
O 	O 	0.15750 0.75030 0.52305 -0.32400
O 	O 	0.96570 0.70130 0.81994 -0.27500
O 	O 	0.72850 0.61780 0.81156 -0.39600
O 	O 	0.92590 0.81970 0.95373 -0.32400
O 	O 	0.15750 0.74970 0.97695 -0.30600
O 	O 	0.03430 0.20130 0.31994 -0.34000
O 	O 	0.27150 0.11780 0.31156 -0.41800
O 	O 	0.07410 0.31970 0.45373 -0.43200
O 	O 	0.84250 0.24970 0.47695 -0.33900
O 	O 	0.03430 0.29870 0.18006 -0.33800
O 	O 	0.27150 0.38220 0.18844 -0.41200
O 	O 	0.07410 0.18030 0.04627 -0.44100
O 	O 	0.84250 0.25030 0.02305 -0.35200
