data_crystal

_cell_length_a 29.95600
_cell_length_b 9.73310
_cell_length_c 15.52710
_cell_angle_alpha 90.00000
_cell_angle_beta  90.00000
_cell_angle_gamma 90.00000

_symmetry_space_group_name_	'P 1'
_symmetry_space_group_name_H-M	'P 1'

loop_
_symmetry_equiv_pos_as_xyz
  x,y,z

loop_
_atom_site_label
_atom_site_type_symbol
_atom_site_fract_x
_atom_site_fract_y
_atom_site_fract_z
_atom_site_charge
S 	S 	0.05245 0.69340 0.11830 -0.00500
S 	S 	0.05587 0.39450 0.10890 0.00700
N 	N 	0.27680 0.04520 0.13620 -0.29600
N 	N 	0.20720 0.19760 0.21330 -0.26700
C 	C 	0.02360 0.54210 0.11260 -0.00500
C 	C 	0.16320 0.91920 0.24120 0.09200
H 	H 	0.15570 0.99410 0.27540 -0.02200
N 	N 	0.20560 0.90650 0.21380 -0.26400
C 	C 	0.10470 0.48130 0.14110 -0.03500
C 	C 	0.15640 0.28140 0.10750 -0.18000
H 	H 	0.14450 0.27400 0.05240 0.10100
C 	C 	0.18780 0.19290 0.13520 0.11100
H 	H 	0.19680 0.12370 0.09770 -0.01800
C 	C 	0.13050 0.82480 0.22030 -0.17000
H 	H 	0.10160 0.83850 0.24080 0.09100
C 	C 	0.10400 0.61680 0.14500 -0.03500
C 	C 	0.13920 0.71200 0.17060 0.10500
C 	C 	0.14190 0.38700 0.16510 0.11000
C 	C 	0.29250 0.02550 0.06990 0.19200
C 	C 	0.16370 0.39680 0.24370 -0.18300
H 	H 	0.15710 0.46760 0.28190 0.09800
C 	C 	0.21490 0.79500 0.16470 0.09300
H 	H 	0.24400 0.78370 0.14520 -0.01600
C 	C 	0.19530 0.29950 0.26400 0.11700
H 	H 	0.20920 0.30620 0.31740 -0.02300
C 	C 	0.18350 0.69670 0.14170 -0.16700
H 	H 	0.19150 0.62200 0.10770 0.09200
S 	S 	0.44755 0.30660 0.61830 -0.00100
S 	S 	0.44413 0.60550 0.60890 -0.00300
N 	N 	0.22320 0.95480 0.63620 -0.29800
N 	N 	0.29280 0.80240 0.71330 -0.26900
C 	C 	0.47640 0.45790 0.61260 -0.00500
C 	C 	0.33680 0.08080 0.74120 0.09500
H 	H 	0.34430 0.00590 0.77540 -0.00800
N 	N 	0.29440 0.09350 0.71380 -0.25300
C 	C 	0.39530 0.51870 0.64110 -0.03300
C 	C 	0.34360 0.71860 0.60750 -0.18000
H 	H 	0.35550 0.72600 0.55240 0.09600
C 	C 	0.31220 0.80710 0.63520 0.10600
H 	H 	0.30320 0.87630 0.59770 -0.02600
C 	C 	0.36950 0.17520 0.72030 -0.16700
H 	H 	0.39840 0.16150 0.74080 0.09400
C 	C 	0.39600 0.38320 0.64500 -0.03700
C 	C 	0.36080 0.28800 0.67060 0.10500
C 	C 	0.35810 0.61300 0.66510 0.10700
C 	C 	0.20750 0.97450 0.56990 0.16300
C 	C 	0.33630 0.60320 0.74370 -0.18300
H 	H 	0.34290 0.53240 0.78190 0.09600
C 	C 	0.28510 0.20500 0.66470 0.09400
H 	H 	0.25600 0.21630 0.64520 -0.01200
C 	C 	0.30470 0.70050 0.76400 0.11400
H 	H 	0.29080 0.69380 0.81740 -0.02500
C 	C 	0.31650 0.30330 0.64170 -0.16600
H 	H 	0.30850 0.37800 0.60770 0.09000
S 	S 	0.44755 0.69340 0.38170 -0.00700
S 	S 	0.44413 0.39450 0.39110 0.00500
N 	N 	0.22320 0.04520 0.36380 -0.29500
N 	N 	0.29280 0.19760 0.28670 -0.26600
C 	C 	0.47640 0.54210 0.38740 -0.00500
C 	C 	0.33680 0.91920 0.25880 0.09200
H 	H 	0.34430 0.99410 0.22460 -0.02000
N 	N 	0.29440 0.90650 0.28620 -0.26300
C 	C 	0.39530 0.48130 0.35890 -0.03400
C 	C 	0.34360 0.28140 0.39250 -0.17900
H 	H 	0.35550 0.27400 0.44760 0.09800
C 	C 	0.31220 0.19290 0.36480 0.11000
H 	H 	0.30320 0.12370 0.40230 -0.01900
C 	C 	0.36950 0.82480 0.27970 -0.17000
H 	H 	0.39840 0.83850 0.25920 0.09100
C 	C 	0.39600 0.61680 0.35500 -0.03600
C 	C 	0.36080 0.71200 0.32940 0.10400
C 	C 	0.35810 0.38700 0.33490 0.10900
C 	C 	0.20750 0.02550 0.43010 0.19000
C 	C 	0.33630 0.39680 0.25630 -0.18200
H 	H 	0.34290 0.46760 0.21810 0.09800
C 	C 	0.28510 0.79500 0.33530 0.09200
H 	H 	0.25600 0.78370 0.35480 -0.01700
C 	C 	0.30470 0.29950 0.23600 0.11700
H 	H 	0.29080 0.30620 0.18260 -0.02200
C 	C 	0.31650 0.69670 0.35830 -0.16800
H 	H 	0.30850 0.62200 0.39230 0.09000
S 	S 	0.05245 0.30660 0.88170 -0.00400
S 	S 	0.05587 0.60550 0.89110 -0.00700
N 	N 	0.27680 0.95480 0.86380 -0.29600
N 	N 	0.20720 0.80240 0.78670 -0.26900
C 	C 	0.02360 0.45790 0.88740 -0.00500
C 	C 	0.16320 0.08080 0.75880 0.09500
H 	H 	0.15570 0.00590 0.72460 -0.00800
N 	N 	0.20560 0.09350 0.78620 -0.25300
C 	C 	0.10470 0.51870 0.85890 -0.03300
C 	C 	0.15640 0.71860 0.89250 -0.18000
H 	H 	0.14450 0.72600 0.94760 0.09300
C 	C 	0.18780 0.80710 0.86480 0.10600
H 	H 	0.19680 0.87630 0.90230 -0.02700
C 	C 	0.13050 0.17520 0.77970 -0.16700
H 	H 	0.10160 0.16150 0.75920 0.09400
C 	C 	0.10400 0.38320 0.85500 -0.03700
C 	C 	0.13920 0.28800 0.82940 0.10400
C 	C 	0.14190 0.61300 0.83490 0.10600
C 	C 	0.29250 0.97450 0.93010 0.15100
C 	C 	0.16370 0.60320 0.75630 -0.18200
H 	H 	0.15710 0.53240 0.71810 0.09700
C 	C 	0.21490 0.20500 0.83530 0.09300
H 	H 	0.24400 0.21630 0.85480 -0.01300
C 	C 	0.19530 0.70050 0.73600 0.11400
H 	H 	0.20920 0.69380 0.68260 -0.02300
C 	C 	0.18350 0.30330 0.85830 -0.16700
H 	H 	0.19150 0.37800 0.89230 0.08800
S 	S 	0.94755 0.30660 0.88170 -0.00400
S 	S 	0.94413 0.60550 0.89110 -0.00700
N 	N 	0.72320 0.95480 0.86380 -0.29600
N 	N 	0.79280 0.80240 0.78670 -0.26900
C 	C 	0.97640 0.45790 0.88740 -0.00500
C 	C 	0.83680 0.08080 0.75880 0.09500
H 	H 	0.84430 0.00590 0.72460 -0.00800
N 	N 	0.79440 0.09350 0.78620 -0.25300
C 	C 	0.89530 0.51870 0.85890 -0.03300
C 	C 	0.84360 0.71860 0.89250 -0.18000
H 	H 	0.85550 0.72600 0.94760 0.09300
C 	C 	0.81220 0.80710 0.86480 0.10600
H 	H 	0.80320 0.87630 0.90230 -0.02700
C 	C 	0.86950 0.17520 0.77970 -0.16700
H 	H 	0.89840 0.16150 0.75920 0.09400
C 	C 	0.89600 0.38320 0.85500 -0.03700
C 	C 	0.86080 0.28800 0.82940 0.10400
C 	C 	0.85810 0.61300 0.83490 0.10600
C 	C 	0.70750 0.97450 0.93010 0.15100
C 	C 	0.83630 0.60320 0.75630 -0.18200
H 	H 	0.84290 0.53240 0.71810 0.09700
C 	C 	0.78510 0.20500 0.83530 0.09300
H 	H 	0.75600 0.21630 0.85480 -0.01300
C 	C 	0.80470 0.70050 0.73600 0.11400
H 	H 	0.79080 0.69380 0.68260 -0.02300
C 	C 	0.81650 0.30330 0.85830 -0.16700
H 	H 	0.80850 0.37800 0.89230 0.08800
S 	S 	0.55245 0.69340 0.38170 -0.00700
S 	S 	0.55587 0.39450 0.39110 0.00500
N 	N 	0.77680 0.04520 0.36380 -0.29500
N 	N 	0.70720 0.19760 0.28670 -0.26600
C 	C 	0.52360 0.54210 0.38740 -0.00500
C 	C 	0.66320 0.91920 0.25880 0.09200
H 	H 	0.65570 0.99410 0.22460 -0.02000
N 	N 	0.70560 0.90650 0.28620 -0.26300
C 	C 	0.60470 0.48130 0.35890 -0.03400
C 	C 	0.65640 0.28140 0.39250 -0.17900
H 	H 	0.64450 0.27400 0.44760 0.09800
C 	C 	0.68780 0.19290 0.36480 0.11000
H 	H 	0.69680 0.12370 0.40230 -0.01900
C 	C 	0.63050 0.82480 0.27970 -0.17000
H 	H 	0.60160 0.83850 0.25920 0.09100
C 	C 	0.60400 0.61680 0.35500 -0.03600
C 	C 	0.63920 0.71200 0.32940 0.10400
C 	C 	0.64190 0.38700 0.33490 0.10900
C 	C 	0.79250 0.02550 0.43010 0.19000
C 	C 	0.66370 0.39680 0.25630 -0.18200
H 	H 	0.65710 0.46760 0.21810 0.09800
C 	C 	0.71490 0.79500 0.33530 0.09200
H 	H 	0.74400 0.78370 0.35480 -0.01700
C 	C 	0.69530 0.29950 0.23600 0.11700
H 	H 	0.70920 0.30620 0.18260 -0.02200
C 	C 	0.68350 0.69670 0.35830 -0.16800
H 	H 	0.69150 0.62200 0.39230 0.09000
S 	S 	0.55245 0.30660 0.61830 -0.00100
S 	S 	0.55587 0.60550 0.60890 -0.00300
N 	N 	0.77680 0.95480 0.63620 -0.29800
N 	N 	0.70720 0.80240 0.71330 -0.26900
C 	C 	0.52360 0.45790 0.61260 -0.00500
C 	C 	0.66320 0.08080 0.74120 0.09500
H 	H 	0.65570 0.00590 0.77540 -0.00800
N 	N 	0.70560 0.09350 0.71380 -0.25300
C 	C 	0.60470 0.51870 0.64110 -0.03300
C 	C 	0.65640 0.71860 0.60750 -0.18000
H 	H 	0.64450 0.72600 0.55240 0.09600
C 	C 	0.68780 0.80710 0.63520 0.10600
H 	H 	0.69680 0.87630 0.59770 -0.02600
C 	C 	0.63050 0.17520 0.72030 -0.16700
H 	H 	0.60160 0.16150 0.74080 0.09400
C 	C 	0.60400 0.38320 0.64500 -0.03700
C 	C 	0.63920 0.28800 0.67060 0.10500
C 	C 	0.64190 0.61300 0.66510 0.10700
C 	C 	0.79250 0.97450 0.56990 0.16300
C 	C 	0.66370 0.60320 0.74370 -0.18300
H 	H 	0.65710 0.53240 0.78190 0.09600
C 	C 	0.71490 0.20500 0.66470 0.09400
H 	H 	0.74400 0.21630 0.64520 -0.01200
C 	C 	0.69530 0.70050 0.76400 0.11400
H 	H 	0.70920 0.69380 0.81740 -0.02500
C 	C 	0.68350 0.30330 0.64170 -0.16600
H 	H 	0.69150 0.37800 0.60770 0.09000
S 	S 	0.94755 0.69340 0.11830 -0.00400
S 	S 	0.94413 0.39450 0.10890 0.00800
N 	N 	0.72320 0.04520 0.13620 -0.29500
N 	N 	0.79280 0.19760 0.21330 -0.26600
C 	C 	0.97640 0.54210 0.11260 -0.00400
C 	C 	0.83680 0.91920 0.24120 0.09300
H 	H 	0.84430 0.99410 0.27540 -0.02100
N 	N 	0.79440 0.90650 0.21380 -0.26300
C 	C 	0.89530 0.48130 0.14110 -0.03400
C 	C 	0.84360 0.28140 0.10750 -0.17900
H 	H 	0.85550 0.27400 0.05240 0.10100
C 	C 	0.81220 0.19290 0.13520 0.11100
H 	H 	0.80320 0.12370 0.09770 -0.01800
C 	C 	0.86950 0.82480 0.22030 -0.17000
H 	H 	0.89840 0.83850 0.24080 0.09100
C 	C 	0.89600 0.61680 0.14500 -0.03500
C 	C 	0.86080 0.71200 0.17060 0.10500
C 	C 	0.85810 0.38700 0.16510 0.11000
C 	C 	0.70750 0.02550 0.06990 0.19200
C 	C 	0.83630 0.39680 0.24370 -0.18300
H 	H 	0.84290 0.46760 0.28190 0.09800
C 	C 	0.78510 0.79500 0.16470 0.09300
H 	H 	0.75600 0.78370 0.14520 -0.01600
C 	C 	0.80470 0.29950 0.26400 0.11700
H 	H 	0.79080 0.30620 0.31740 -0.02300
C 	C 	0.81650 0.69670 0.14170 -0.16700
H 	H 	0.80850 0.62200 0.10770 0.09200
Fe	Fe	0.25000 0.05020 0.25000 1.18400
Fe	Fe	0.25000 0.94980 0.75000 1.17000
Fe	Fe	0.75000 0.94980 0.75000 1.17000
Fe	Fe	0.75000 0.05020 0.25000 1.18400
N 	N 	0.31360 0.00000 -0.00000 -0.17600
N 	N 	0.18640 0.00000 0.50000 -0.18300
N 	N 	0.68640 0.00000 -0.00000 -0.17600
N 	N 	0.81360 0.00000 0.50000 -0.18300
