data_crystal

_cell_length_a 12.16550
_cell_length_b 20.51440
_cell_length_c 21.70120
_cell_angle_alpha 90.00000
_cell_angle_beta  90.00000
_cell_angle_gamma 90.00000

_symmetry_space_group_name_	'P 1'
_symmetry_space_group_name_H-M	'P 1'

loop_
_symmetry_equiv_pos_as_xyz
  x,y,z

loop_
_atom_site_label
_atom_site_type_symbol
_atom_site_fract_x
_atom_site_fract_y
_atom_site_fract_z
_atom_site_charge
La	La	0.42587 0.80983 0.46772 1.49600
La	La	0.99751 0.00601 0.32349 1.41200
La	La	0.42587 0.19017 0.53228 1.49400
La	La	0.99751 0.99399 0.67651 1.43300
La	La	0.57413 0.69017 0.96772 1.50600
La	La	0.00249 0.49399 0.82349 1.42100
La	La	0.57413 0.30983 0.03228 1.48600
La	La	0.00249 0.50601 0.17651 1.42100
Mo	Mo	0.49358 0.00495 0.44074 1.04900
Mo	Mo	0.28382 0.10108 0.36865 1.07300
Mo	Mo	0.30406 0.93539 0.34207 1.13800
Mo	Mo	0.12194 0.85085 0.40554 1.12700
Mo	Mo	0.93223 0.06261 0.50902 1.05900
Mo	Mo	0.13843 0.15879 0.43563 1.06900
Mo	Mo	0.49358 0.99505 0.55926 1.06100
Mo	Mo	0.28382 0.89892 0.63135 1.07400
Mo	Mo	0.30406 0.06461 0.65793 1.13000
Mo	Mo	0.12194 0.14915 0.59446 1.12600
Mo	Mo	0.93223 0.93739 0.49098 1.06600
Mo	Mo	0.13843 0.84121 0.56437 1.06900
Mo	Mo	0.50642 0.49505 0.94074 1.05800
Mo	Mo	0.71618 0.39892 0.86865 1.07300
Mo	Mo	0.69594 0.56461 0.84207 1.13400
Mo	Mo	0.87806 0.64915 0.90554 1.12700
Mo	Mo	0.06777 0.43739 0.00902 1.05700
Mo	Mo	0.86157 0.34121 0.93563 1.07300
Mo	Mo	0.50642 0.50495 0.05926 1.05200
Mo	Mo	0.71618 0.60108 0.13135 1.07300
Mo	Mo	0.69594 0.43539 0.15793 1.13400
Mo	Mo	0.87806 0.35085 0.09446 1.12600
Mo	Mo	0.06777 0.56261 0.99098 1.06800
Mo	Mo	0.86157 0.65879 0.06437 1.06600
P 	P 	0.21050 0.00000 0.50000 0.48800
P 	P 	0.78950 0.50000 -0.00000 0.48900
H 	H 	0.76070 0.16690 0.19310 -0.00300
H 	H 	0.50750 0.26970 0.26350 -0.00100
H 	H 	0.69330 0.15890 0.37440 -0.01400
H 	H 	0.76070 0.83310 0.80690 0.00100
H 	H 	0.50750 0.73030 0.73650 0.00100
H 	H 	0.69330 0.84110 0.62560 -0.01200
H 	H 	0.23930 0.33310 0.69310 -0.00100
H 	H 	0.49250 0.23030 0.76350 -0.00000
H 	H 	0.30670 0.34110 0.87440 -0.01200
H 	H 	0.23930 0.66690 0.30690 -0.00100
H 	H 	0.49250 0.76970 0.23650 0.00100
H 	H 	0.30670 0.65890 0.12560 -0.01500
C 	C 	0.74310 0.15610 0.28530 -0.16400
C 	C 	0.71880 0.18020 0.22670 0.05300
C 	C 	0.63280 0.22400 0.21790 -0.16500
C 	C 	0.56710 0.24190 0.26880 0.04400
C 	C 	0.59230 0.21770 0.32650 -0.14800
C 	C 	0.67830 0.17500 0.33520 0.06300
C 	C 	0.83790 0.11180 0.29490 0.29500
C 	C 	0.60500 0.24930 0.15510 0.30400
C 	C 	0.51810 0.23530 0.38190 0.31400
C 	C 	0.74310 0.84390 0.71470 -0.16000
C 	C 	0.71880 0.81980 0.77330 0.05100
C 	C 	0.63280 0.77600 0.78210 -0.16200
C 	C 	0.56710 0.75810 0.73120 0.04300
C 	C 	0.59230 0.78230 0.67350 -0.14600
C 	C 	0.67830 0.82500 0.66480 0.06100
C 	C 	0.83790 0.88820 0.70510 0.29500
C 	C 	0.60500 0.75070 0.84490 0.30300
C 	C 	0.51810 0.76470 0.61810 0.31400
C 	C 	0.25690 0.34390 0.78530 -0.16100
C 	C 	0.28120 0.31980 0.72670 0.05100
C 	C 	0.36720 0.27600 0.71790 -0.16400
C 	C 	0.43290 0.25810 0.76880 0.04300
C 	C 	0.40770 0.28230 0.82650 -0.14600
C 	C 	0.32170 0.32500 0.83520 0.06100
C 	C 	0.16210 0.38820 0.79490 0.29500
C 	C 	0.39500 0.25070 0.65510 0.30300
C 	C 	0.48190 0.26470 0.88190 0.31300
C 	C 	0.25690 0.65610 0.21470 -0.16200
C 	C 	0.28120 0.68020 0.27330 0.05200
C 	C 	0.36720 0.72400 0.28210 -0.16400
C 	C 	0.43290 0.74190 0.23120 0.04400
C 	C 	0.40770 0.71770 0.17350 -0.14800
C 	C 	0.32170 0.67500 0.16480 0.06300
C 	C 	0.16210 0.61180 0.20510 0.29500
C 	C 	0.39500 0.74930 0.34490 0.30300
C 	C 	0.48190 0.73530 0.11810 0.31500
O 	O 	0.46880 0.92930 0.49470 -0.62000
O 	O 	0.44310 0.94490 0.37220 -0.55400
O 	O 	0.44970 0.07930 0.38040 -0.45300
O 	O 	0.28420 0.00790 0.44190 -0.42700
O 	O 	0.29610 0.85280 0.55310 -0.60600
O 	O 	0.12470 0.08840 0.37410 -0.61800
O 	O 	0.28220 0.01930 0.31630 -0.58100
O 	O 	0.14260 0.92990 0.35300 -0.63300
O 	O 	0.28180 0.86660 0.40520 -0.58400
O 	O 	0.13810 0.80580 0.47760 -0.56100
O 	O 	0.98070 0.88070 0.41960 -0.59000
O 	O 	0.13540 0.06080 0.50590 -0.42600
O 	O 	0.95680 0.01060 0.43510 -0.64200
O 	O 	0.97410 0.14100 0.45440 -0.46300
O 	O 	0.87830 0.10550 0.34750 -0.42000
O 	O 	0.86980 0.07380 0.25000 -0.44000
O 	O 	0.66170 0.22870 0.10950 -0.43400
O 	O 	0.52800 0.28970 0.14810 -0.44000
O 	O 	0.51760 0.19510 0.42640 -0.43700
O 	O 	0.46430 0.28740 0.37650 -0.34900
O 	O 	0.46880 0.07070 0.50530 -0.62800
O 	O 	0.44310 0.05510 0.62780 -0.56800
O 	O 	0.44970 0.92070 0.61960 -0.44900
O 	O 	0.28420 0.99210 0.55810 -0.41100
O 	O 	0.29610 0.14720 0.44690 -0.60700
O 	O 	0.12470 0.91160 0.62590 -0.61600
O 	O 	0.28220 0.98070 0.68370 -0.56700
O 	O 	0.14260 0.07010 0.64700 -0.64700
O 	O 	0.28180 0.13340 0.59480 -0.58600
O 	O 	0.13810 0.19420 0.52240 -0.56200
O 	O 	0.98070 0.11930 0.58040 -0.59600
O 	O 	0.13540 0.93920 0.49410 -0.41700
O 	O 	0.95680 0.98940 0.56490 -0.63100
O 	O 	0.97410 0.85900 0.54560 -0.46300
O 	O 	0.87830 0.89450 0.65250 -0.41800
O 	O 	0.86980 0.92620 0.75000 -0.43400
O 	O 	0.66170 0.77130 0.89050 -0.42900
O 	O 	0.52800 0.71030 0.85190 -0.43800
O 	O 	0.51760 0.80490 0.57360 -0.43600
O 	O 	0.46430 0.71260 0.62350 -0.34900
O 	O 	0.53120 0.57070 0.99470 -0.61700
O 	O 	0.55690 0.55510 0.87220 -0.56100
O 	O 	0.55030 0.42070 0.88040 -0.45000
O 	O 	0.71580 0.49210 0.94190 -0.41500
O 	O 	0.70390 0.64720 0.05310 -0.61200
O 	O 	0.87530 0.41160 0.87410 -0.61500
O 	O 	0.71780 0.48070 0.81630 -0.57400
O 	O 	0.85740 0.57010 0.85300 -0.64000
O 	O 	0.71820 0.63340 0.90520 -0.58400
O 	O 	0.86190 0.69420 0.97760 -0.55500
O 	O 	0.01930 0.61930 0.91960 -0.59100
O 	O 	0.86460 0.43920 0.00590 -0.42900
O 	O 	0.04320 0.48940 0.93510 -0.63300
O 	O 	0.02590 0.35900 0.95440 -0.45800
O 	O 	0.12170 0.39450 0.84750 -0.41800
O 	O 	0.13020 0.42620 0.75000 -0.43700
O 	O 	0.33830 0.27130 0.60950 -0.43200
O 	O 	0.47200 0.21030 0.64810 -0.43900
O 	O 	0.48240 0.30490 0.92640 -0.43200
O 	O 	0.53570 0.21260 0.87650 -0.34800
O 	O 	0.53120 0.42930 0.00530 -0.63100
O 	O 	0.55690 0.44490 0.12780 -0.56200
O 	O 	0.55030 0.57930 0.11960 -0.45300
O 	O 	0.71580 0.50790 0.05810 -0.42300
O 	O 	0.70390 0.35280 0.94690 -0.60000
O 	O 	0.87530 0.58840 0.12590 -0.61700
O 	O 	0.71780 0.51930 0.18370 -0.57400
O 	O 	0.85740 0.42990 0.14700 -0.64000
O 	O 	0.71820 0.36660 0.09480 -0.58500
O 	O 	0.86190 0.30580 0.02240 -0.56800
O 	O 	0.01930 0.38070 0.08040 -0.59600
O 	O 	0.86460 0.56080 0.99410 -0.41400
O 	O 	0.04320 0.51060 0.06490 -0.64100
O 	O 	0.02590 0.64100 0.04560 -0.47000
O 	O 	0.12170 0.60550 0.15250 -0.42000
O 	O 	0.13020 0.57380 0.25000 -0.43700
O 	O 	0.33830 0.72870 0.39050 -0.43100
O 	O 	0.47200 0.78970 0.35190 -0.43800
O 	O 	0.48240 0.69510 0.07360 -0.44100
O 	O 	0.53570 0.78740 0.12350 -0.34900
