data_crystal

_cell_length_a 8.79990
_cell_length_b 10.84750
_cell_length_c 16.81320
_cell_angle_alpha 76.60000
_cell_angle_beta  82.10500
_cell_angle_gamma 90.13500

_symmetry_space_group_name_	'P 1'
_symmetry_space_group_name_H-M	'P 1'

loop_
_symmetry_equiv_pos_as_xyz
  x,y,z

loop_
_atom_site_label
_atom_site_type_symbol
_atom_site_fract_x
_atom_site_fract_y
_atom_site_fract_z
_atom_site_charge
Cd	Cd	0.27796 0.73983 0.75806 1.20400
Cd	Cd	0.96744 0.28609 0.75479 1.20500
O 	O 	0.02190 0.20990 0.89190 -0.38600
O 	O 	0.00680 0.06680 0.82020 -0.38600
O 	O 	0.14450 0.58810 0.85700 -0.43100
O 	O 	0.23210 0.70660 0.93120 -0.34700
O 	O 	0.17820 0.66980 0.65500 -0.41300
O 	O 	0.33920 0.82960 0.60700 -0.38300
O 	O 	0.09270 0.57920 0.38050 -0.37100
O 	O 	0.07710 0.78600 0.36170 -0.38400
N 	N 	0.22420 0.33670 0.70810 -0.21300
N 	N 	0.52170 0.65030 0.75510 -0.24400
H 	H 	0.55400 0.66900 0.70330 0.10400
N 	N 	0.42970 0.88660 0.79810 -0.24600
H 	H 	0.39900 0.86500 0.85060 0.10900
N 	N 	0.71350 0.22750 0.81550 -0.20800
C 	C 	0.30290 0.39360 0.75310 -0.01800
H 	H 	0.25720 0.39740 0.80570 0.02400
C 	C 	0.44910 0.44700 0.72510 0.01400
C 	C 	0.51520 0.43910 0.64780 -0.05500
H 	H 	0.61300 0.47440 0.62660 0.05500
C 	C 	0.43720 0.37940 0.60200 -0.06700
H 	H 	0.48210 0.37250 0.54990 0.05800
C 	C 	0.29360 0.33010 0.63290 0.03900
H 	H 	0.24120 0.29030 0.60090 0.01100
C 	C 	0.52920 0.51080 0.78080 -0.10900
H 	H 	0.48050 0.48160 0.83750 0.05700
H 	H 	0.63570 0.48720 0.77810 0.04900
C 	C 	0.60710 0.71270 0.80540 -0.08300
H 	H 	0.71480 0.69320 0.79660 0.04700
H 	H 	0.56860 0.67990 0.86340 0.04600
C 	C 	0.59140 0.85280 0.78340 -0.09100
H 	H 	0.65100 0.89140 0.81630 0.06200
H 	H 	0.63190 0.88590 0.72570 0.05300
C 	C 	0.40360 0.02220 0.77150 -0.11000
H 	H 	0.29450 0.03580 0.78210 0.04700
H 	H 	0.43560 0.04950 0.71240 0.05700
C 	C 	0.62660 0.16090 0.77860 -0.01800
H 	H 	0.66350 0.15440 0.72520 0.03300
C 	C 	0.48850 0.10260 0.81440 0.04000
C 	C 	0.43380 0.11480 0.89470 -0.06500
H 	H 	0.34050 0.07630 0.92190 0.06100
C 	C 	0.51900 0.18380 0.93260 -0.05200
H 	H 	0.48290 0.19450 0.98510 0.05200
C 	C 	0.65970 0.23740 0.89160 0.02600
H 	H 	0.71850 0.28190 0.91830 0.01600
C 	C 	0.01580 0.09660 0.88680 0.32800
C 	C 	0.01300 0.99180 0.96230 -0.12700
H 	H 	0.03060 0.91020 0.95540 0.09500
C 	C 	0.14720 0.62000 0.92400 0.33400
C 	C 	0.03910 0.55170 0.99790 -0.12100
H 	H 	0.02720 0.58590 0.04410 0.08700
C 	C 	0.24330 0.75190 0.59680 0.34300
C 	C 	0.20590 0.76000 0.51200 -0.13100
H 	H 	0.23280 0.83470 0.47220 0.09700
C 	C 	0.13800 0.66920 0.49060 -0.11400
H 	H 	0.11080 0.59450 0.53040 0.10200
C 	C 	0.10080 0.67780 0.40550 0.31700
Cd	Cd	0.72204 0.26017 0.24194 1.20500
Cd	Cd	0.03256 0.71391 0.24521 1.20600
O 	O 	0.97810 0.79010 0.10810 -0.38600
O 	O 	0.99320 0.93320 0.17980 -0.38600
O 	O 	0.85550 0.41190 0.14300 -0.43100
O 	O 	0.76790 0.29340 0.06880 -0.34700
O 	O 	0.82180 0.33020 0.34500 -0.41300
O 	O 	0.66080 0.17040 0.39300 -0.38300
O 	O 	0.90730 0.42080 0.61950 -0.37100
O 	O 	0.92290 0.21400 0.63830 -0.38400
N 	N 	0.77580 0.66330 0.29190 -0.21300
N 	N 	0.47830 0.34970 0.24490 -0.24400
H 	H 	0.44600 0.33100 0.29670 0.10400
N 	N 	0.57030 0.11340 0.20190 -0.24600
H 	H 	0.60100 0.13500 0.14940 0.10900
N 	N 	0.28650 0.77250 0.18450 -0.20800
C 	C 	0.69710 0.60640 0.24690 -0.01800
H 	H 	0.74280 0.60260 0.19430 0.02400
C 	C 	0.55090 0.55300 0.27490 0.01400
C 	C 	0.48480 0.56090 0.35220 -0.05500
H 	H 	0.38700 0.52560 0.37340 0.05500
C 	C 	0.56280 0.62060 0.39800 -0.06700
H 	H 	0.51790 0.62750 0.45010 0.05800
C 	C 	0.70640 0.66990 0.36710 0.03900
H 	H 	0.75880 0.70970 0.39910 0.01100
C 	C 	0.47080 0.48920 0.21920 -0.10900
H 	H 	0.51950 0.51840 0.16250 0.05700
H 	H 	0.36430 0.51280 0.22190 0.04900
C 	C 	0.39290 0.28730 0.19460 -0.08300
H 	H 	0.28520 0.30680 0.20340 0.04700
H 	H 	0.43140 0.32010 0.13660 0.04600
C 	C 	0.40860 0.14720 0.21660 -0.09100
H 	H 	0.34900 0.10860 0.18370 0.06200
H 	H 	0.36810 0.11410 0.27430 0.05300
C 	C 	0.59640 0.97780 0.22850 -0.11000
H 	H 	0.70550 0.96420 0.21790 0.04700
H 	H 	0.56440 0.95050 0.28760 0.05700
C 	C 	0.37340 0.83910 0.22140 -0.01800
H 	H 	0.33650 0.84560 0.27480 0.03300
C 	C 	0.51150 0.89740 0.18560 0.04000
C 	C 	0.56620 0.88520 0.10530 -0.06500
H 	H 	0.65950 0.92370 0.07810 0.06100
C 	C 	0.48100 0.81620 0.06740 -0.05200
H 	H 	0.51710 0.80550 0.01490 0.05200
C 	C 	0.34030 0.76260 0.10840 0.02600
H 	H 	0.28150 0.71810 0.08170 0.01600
C 	C 	0.98420 0.90340 0.11320 0.32800
C 	C 	0.98700 0.00820 0.03770 -0.12700
H 	H 	0.96940 0.08980 0.04460 0.09500
C 	C 	0.85280 0.38000 0.07600 0.33400
C 	C 	0.96090 0.44830 0.00210 -0.12100
H 	H 	0.97280 0.41410 0.95590 0.08700
C 	C 	0.75670 0.24810 0.40320 0.34300
C 	C 	0.79410 0.24000 0.48800 -0.13100
H 	H 	0.76720 0.16530 0.52780 0.09700
C 	C 	0.86200 0.33080 0.50940 -0.11400
H 	H 	0.88920 0.40550 0.46960 0.10200
C 	C 	0.89920 0.32220 0.59450 0.31700
