data_crystal

_cell_length_a 18.97820
_cell_length_b 18.97820
_cell_length_c 18.97820
_cell_angle_alpha 109.47100
_cell_angle_beta  109.47100
_cell_angle_gamma 109.47100

_symmetry_space_group_name_	'P 1'
_symmetry_space_group_name_H-M	'P 1'

loop_
_symmetry_equiv_pos_as_xyz
  x,y,z

loop_
_atom_site_label
_atom_site_type_symbol
_atom_site_fract_x
_atom_site_fract_y
_atom_site_fract_z
_atom_site_charge
Co	Co	0.88615 0.34965 -0.00000 1.18200
Co	Co	0.34965 0.88615 -0.00000 1.17600
Co	Co	0.65035 0.65035 0.53650 1.19000
Co	Co	0.11385 0.11385 0.46350 1.18500
Co	Co	0.53650 0.65035 0.65035 1.19000
Co	Co	0.46350 0.11385 0.11385 1.17600
Co	Co	-0.00000 0.88615 0.34965 1.18400
Co	Co	-0.00000 0.34965 0.88615 1.18200
Co	Co	0.88615 -0.00000 0.34965 1.17200
Co	Co	0.34965 -0.00000 0.88615 1.17300
Co	Co	0.11385 0.46350 0.11385 1.18400
Co	Co	0.65035 0.53650 0.65035 1.18900
H 	H 	0.87690 0.69120 0.23890 0.00700
H 	H 	0.12760 0.35380 0.27820 0.05000
H 	H 	0.87320 0.56420 0.16160 0.06000
H 	H 	0.45230 0.63800 0.76110 0.01300
H 	H 	0.07560 0.84940 0.72180 0.10000
H 	H 	0.40260 0.71160 0.83840 0.08300
H 	H 	0.54770 0.30880 0.18570 0.01100
H 	H 	0.92440 0.64620 0.77380 0.01400
H 	H 	0.59740 0.43580 0.30900 0.07600
H 	H 	0.12310 0.36200 0.81430 0.02100
H 	H 	0.87240 0.15060 0.22620 0.03900
H 	H 	0.12680 0.28840 0.69100 0.06900
H 	H 	0.18570 0.54770 0.30880 0.01100
H 	H 	0.77380 0.92440 0.64620 0.00100
H 	H 	0.30900 0.59740 0.43580 0.07600
H 	H 	0.81430 0.12310 0.36200 0.04700
H 	H 	0.22620 0.87240 0.15060 0.11900
H 	H 	0.69100 0.12680 0.28840 0.04700
H 	H 	0.23890 0.87690 0.69120 -0.01600
H 	H 	0.27820 0.12760 0.35380 -0.00900
H 	H 	0.16160 0.87320 0.56420 0.10000
H 	H 	0.76110 0.45230 0.63800 0.01300
H 	H 	0.72180 0.07560 0.84940 0.11200
H 	H 	0.83840 0.40260 0.71160 0.08200
H 	H 	0.63800 0.76110 0.45230 0.01400
H 	H 	0.84940 0.72180 0.07560 0.09900
H 	H 	0.71160 0.83840 0.40260 0.08300
H 	H 	0.69120 0.23890 0.87690 0.00700
H 	H 	0.35380 0.27820 0.12760 0.04900
H 	H 	0.56420 0.16160 0.87320 0.05800
H 	H 	0.36200 0.81430 0.12310 0.02100
H 	H 	0.15060 0.22620 0.87240 0.04000
H 	H 	0.28840 0.69100 0.12680 0.07000
H 	H 	0.30880 0.18570 0.54770 0.00900
H 	H 	0.64620 0.77380 0.92440 0.01500
H 	H 	0.43580 0.30900 0.59740 0.07600
H 	H 	0.63800 0.45230 0.76110 0.01300
H 	H 	0.84940 0.07560 0.72180 0.11200
H 	H 	0.71160 0.40260 0.83840 0.08200
H 	H 	0.69120 0.87690 0.23890 0.03200
H 	H 	0.35380 0.12760 0.27820 0.13000
H 	H 	0.56420 0.87320 0.16160 0.03500
H 	H 	0.36200 0.12310 0.81430 -0.00100
H 	H 	0.15060 0.87240 0.22620 -0.02000
H 	H 	0.28840 0.12680 0.69100 0.11100
H 	H 	0.30880 0.54770 0.18570 0.01100
H 	H 	0.64620 0.92440 0.77380 0.00100
H 	H 	0.43580 0.59740 0.30900 0.07600
H 	H 	0.87690 0.23890 0.69120 0.00700
H 	H 	0.12760 0.27820 0.35380 0.05000
H 	H 	0.87320 0.16160 0.56420 0.05800
H 	H 	0.45230 0.76110 0.63800 0.01400
H 	H 	0.07560 0.72180 0.84940 0.09900
H 	H 	0.40260 0.83840 0.71160 0.08400
H 	H 	0.54770 0.18570 0.30880 0.00900
H 	H 	0.92440 0.77380 0.64620 0.01400
H 	H 	0.59740 0.30900 0.43580 0.07500
H 	H 	0.12310 0.81430 0.36200 0.02000
H 	H 	0.87240 0.22620 0.15060 0.04000
H 	H 	0.12680 0.69100 0.28840 0.07000
H 	H 	0.18570 0.30880 0.54770 0.01100
H 	H 	0.77380 0.64620 0.92440 0.01500
H 	H 	0.30900 0.43580 0.59740 0.07600
H 	H 	0.81430 0.36200 0.12310 0.02100
H 	H 	0.22620 0.15060 0.87240 0.03800
H 	H 	0.69100 0.28840 0.12680 0.06900
H 	H 	0.23890 0.69120 0.87690 0.00800
H 	H 	0.27820 0.35380 0.12760 0.05000
H 	H 	0.16160 0.56420 0.87320 0.06000
H 	H 	0.76110 0.63800 0.45230 0.01300
H 	H 	0.72180 0.84940 0.07560 0.10000
H 	H 	0.83840 0.71160 0.40260 0.08200
C 	C 	0.92860 0.69260 0.24720 0.08700
C 	C 	0.07550 0.31080 0.26490 -0.01000
C 	C 	0.92570 0.61530 0.20020 -0.03800
C 	C 	0.44540 0.68140 0.75280 0.07400
C 	C 	0.04590 0.81060 0.73510 -0.15400
C 	C 	0.41510 0.72550 0.79980 -0.09000
C 	C 	0.55460 0.30740 0.23600 0.06800
C 	C 	0.95410 0.68920 0.76470 0.13800
C 	C 	0.58490 0.38470 0.31040 -0.08700
C 	C 	0.07140 0.31860 0.76400 0.05000
C 	C 	0.92450 0.18940 0.23530 0.02100
C 	C 	0.07430 0.27450 0.68960 -0.06700
C 	C 	0.23600 0.55460 0.30740 0.06900
C 	C 	0.76470 0.95410 0.68920 0.18100
C 	C 	0.31040 0.58490 0.38470 -0.08600
C 	C 	0.76400 0.07140 0.31860 -0.03500
C 	C 	0.23530 0.92450 0.18940 -0.21000
C 	C 	0.68960 0.07430 0.27450 -0.00200
C 	C 	0.24720 0.92860 0.69260 0.15900
C 	C 	0.26490 0.07550 0.31080 0.16000
C 	C 	0.20020 0.92570 0.61530 -0.16100
C 	C 	0.75280 0.44540 0.68140 0.07300
C 	C 	0.73510 0.04590 0.81060 -0.19600
C 	C 	0.79980 0.41510 0.72550 -0.08900
C 	C 	0.68140 0.75280 0.44540 0.07400
C 	C 	0.81060 0.73510 0.04590 -0.15100
C 	C 	0.72550 0.79980 0.41510 -0.08900
C 	C 	0.69260 0.24720 0.92860 0.08600
C 	C 	0.31080 0.26490 0.07550 -0.00800
C 	C 	0.61530 0.20020 0.92570 -0.03400
C 	C 	0.31860 0.76400 0.07140 0.04800
C 	C 	0.18940 0.23530 0.92450 0.02200
C 	C 	0.27450 0.68960 0.07430 -0.06700
C 	C 	0.30740 0.23600 0.55460 0.07000
C 	C 	0.68920 0.76470 0.95410 0.13400
C 	C 	0.38470 0.31040 0.58490 -0.08700
C 	C 	0.68140 0.44540 0.75280 0.07300
C 	C 	0.81060 0.04590 0.73510 -0.19700
C 	C 	0.72550 0.41510 0.79980 -0.08900
C 	C 	0.69260 0.92860 0.24720 0.01500
C 	C 	0.31080 0.07550 0.26490 -0.25300
C 	C 	0.61530 0.92570 0.20020 0.04000
C 	C 	0.31860 0.07140 0.76400 0.11300
C 	C 	0.18940 0.92450 0.23530 0.20200
C 	C 	0.27450 0.07430 0.68960 -0.20000
C 	C 	0.30740 0.55460 0.23600 0.06900
C 	C 	0.68920 0.95410 0.76470 0.18000
C 	C 	0.38470 0.58490 0.31040 -0.08600
C 	C 	0.92860 0.24720 0.69260 0.08400
C 	C 	0.07550 0.26490 0.31080 -0.00900
C 	C 	0.92570 0.20020 0.61530 -0.03800
C 	C 	0.44540 0.75280 0.68140 0.07500
C 	C 	0.04590 0.73510 0.81060 -0.15400
C 	C 	0.41510 0.79980 0.72550 -0.09000
C 	C 	0.55460 0.23600 0.30740 0.06700
C 	C 	0.95410 0.76470 0.68920 0.13900
C 	C 	0.58490 0.31040 0.38470 -0.08700
C 	C 	0.07140 0.76400 0.31860 0.05200
C 	C 	0.92450 0.23530 0.18940 0.02000
C 	C 	0.07430 0.68960 0.27450 -0.06700
C 	C 	0.23600 0.30740 0.55460 0.06900
C 	C 	0.76470 0.68920 0.95410 0.13500
C 	C 	0.31040 0.38470 0.58490 -0.08700
C 	C 	0.76400 0.31860 0.07140 0.04900
C 	C 	0.23530 0.18940 0.92450 0.02500
C 	C 	0.68960 0.27450 0.07430 -0.06600
C 	C 	0.24720 0.69260 0.92860 0.08500
C 	C 	0.26490 0.31080 0.07550 -0.01000
C 	C 	0.20020 0.61530 0.92570 -0.03700
C 	C 	0.75280 0.68140 0.44540 0.07400
C 	C 	0.73510 0.81060 0.04590 -0.15000
C 	C 	0.79980 0.72550 0.41510 -0.08900
C 	C 	-0.00000 0.33610 0.14990 0.37100
C 	C 	0.00000 0.29230 0.20150 -0.12400
C 	C 	-0.00000 0.53800 0.15720 0.29400
C 	C 	-0.00000 0.61690 0.21230 -0.05700
C 	C 	0.18620 0.85010 0.85010 0.36000
C 	C 	0.09080 0.79850 0.79850 0.01500
C 	C 	0.38080 0.84280 0.84280 0.31600
C 	C 	0.40460 0.78770 0.78770 0.00100
C 	C 	0.81380 0.66390 0.66390 0.44400
C 	C 	0.90920 0.70770 0.70770 -0.18500
C 	C 	0.61920 0.46200 0.46200 0.32000
C 	C 	0.59540 0.38310 0.38310 -0.00900
C 	C 	0.00000 0.14990 0.33610 0.37300
C 	C 	0.00000 0.20150 0.29230 -0.12600
C 	C 	-0.00000 0.15720 0.53800 0.29600
C 	C 	-0.00000 0.21230 0.61690 -0.05800
C 	C 	0.66390 0.81380 0.66390 0.45600
C 	C 	0.70770 0.90920 0.70770 -0.21400
C 	C 	0.46200 0.61920 0.46200 0.32000
C 	C 	0.38310 0.59540 0.38310 -0.00900
C 	C 	0.33610 -0.00000 0.14990 0.22200
C 	C 	0.29230 1.00000 0.20150 0.16300
C 	C 	0.53800 -0.00000 0.15720 0.29700
C 	C 	0.61690 -0.00000 0.21230 -0.12100
C 	C 	0.14990 -0.00000 0.33610 0.40700
C 	C 	0.20150 -0.00000 0.29230 -0.26600
C 	C 	0.15720 1.00000 0.53800 0.34400
C 	C 	0.21230 1.00000 0.61690 0.08800
C 	C 	0.85010 0.18620 0.85010 0.34800
C 	C 	0.79850 0.09080 0.79850 0.04200
C 	C 	0.84280 0.38080 0.84280 0.31700
C 	C 	0.78770 0.40460 0.78770 -0.00100
C 	C 	0.85010 0.85010 0.18620 0.36100
C 	C 	0.79850 0.79850 0.09080 0.01300
C 	C 	0.84280 0.84280 0.38080 0.31700
C 	C 	0.78770 0.78770 0.40460 0.00000
C 	C 	0.33610 0.14990 -0.00000 0.36800
C 	C 	0.29230 0.20150 -0.00000 -0.12900
C 	C 	0.53800 0.15720 -0.00000 0.29000
C 	C 	0.61690 0.21230 -0.00000 -0.06100
C 	C 	0.14990 0.33610 -0.00000 0.36800
C 	C 	0.20150 0.29230 -0.00000 -0.12600
C 	C 	0.15720 0.53800 -0.00000 0.29300
C 	C 	0.21230 0.61690 -0.00000 -0.05800
C 	C 	0.66390 0.66390 0.81380 0.44300
C 	C 	0.70770 0.70770 0.90920 -0.18200
C 	C 	0.46200 0.46200 0.61920 0.32000
C 	C 	0.38310 0.38310 0.59540 -0.00900
N 	N 	0.76550 0.30150 -0.00000 -0.22800
N 	N 	0.30150 0.76550 -0.00000 -0.22700
N 	N 	0.69850 0.69850 0.46400 -0.20900
N 	N 	0.23450 0.23450 0.53600 -0.21000
N 	N 	0.46400 0.69850 0.69850 -0.20900
N 	N 	0.53600 0.23450 0.23450 -0.21100
N 	N 	0.00000 0.76550 0.30150 -0.22700
N 	N 	-0.00000 0.30150 0.76550 -0.22600
N 	N 	0.76550 1.00000 0.30150 -0.14900
N 	N 	0.30150 -0.00000 0.76550 -0.26000
N 	N 	0.23450 0.53600 0.23450 -0.21000
N 	N 	0.69850 0.46400 0.69850 -0.20900
O 	O 	0.92600 0.47250 0.09810 -0.36700
O 	O 	0.92910 0.31600 0.09330 -0.40700
O 	O 	0.37440 0.82790 0.90190 -0.37200
O 	O 	0.22270 0.83580 0.90670 -0.40400
O 	O 	0.62560 0.52750 0.45350 -0.39000
O 	O 	0.77730 0.68400 0.61310 -0.43500
O 	O 	0.07400 0.17210 0.54650 -0.39000
O 	O 	0.07090 0.16420 0.38690 -0.42900
O 	O 	0.45350 0.62560 0.52750 -0.39000
O 	O 	0.61310 0.77730 0.68400 -0.43800
O 	O 	0.54650 0.07400 0.17210 -0.39500
O 	O 	0.38690 0.07090 0.16420 -0.39700
O 	O 	0.09810 0.92600 0.47250 -0.39300
O 	O 	0.09330 0.92910 0.31600 -0.40700
O 	O 	0.90190 0.37440 0.82790 -0.37000
O 	O 	0.90670 0.22270 0.83580 -0.39900
O 	O 	0.82790 0.90190 0.37440 -0.36800
O 	O 	0.83580 0.90670 0.22270 -0.39800
O 	O 	0.47250 0.09810 0.92600 -0.36900
O 	O 	0.31600 0.09330 0.92910 -0.40800
O 	O 	0.17210 0.54650 0.07400 -0.38900
O 	O 	0.16420 0.38690 0.07090 -0.42800
O 	O 	0.52750 0.45350 0.62560 -0.39000
O 	O 	0.68400 0.61310 0.77730 -0.43500
O 	O 	0.82790 0.37440 0.90190 -0.37000
O 	O 	0.83580 0.22270 0.90670 -0.39800
O 	O 	0.47250 0.92600 0.09810 -0.36200
O 	O 	0.31600 0.92910 0.09330 -0.36300
O 	O 	0.17210 0.07400 0.54650 -0.42300
O 	O 	0.16420 0.07090 0.38690 -0.44000
O 	O 	0.52750 0.62560 0.45350 -0.39000
O 	O 	0.68400 0.77730 0.61310 -0.43800
O 	O 	0.92600 0.09810 0.47250 -0.37300
O 	O 	0.92910 0.09330 0.31600 -0.41200
O 	O 	0.37440 0.90190 0.82790 -0.36900
O 	O 	0.22270 0.90670 0.83580 -0.40000
O 	O 	0.62560 0.45350 0.52750 -0.39000
O 	O 	0.77730 0.61310 0.68400 -0.43600
O 	O 	0.07400 0.54650 0.17210 -0.38900
O 	O 	0.07090 0.38690 0.16420 -0.42800
O 	O 	0.45350 0.52750 0.62560 -0.39000
O 	O 	0.61310 0.68400 0.77730 -0.43500
O 	O 	0.54650 0.17210 0.07400 -0.39200
O 	O 	0.38690 0.16420 0.07090 -0.43200
O 	O 	0.09810 0.47250 0.92600 -0.36600
O 	O 	0.09330 0.31600 0.92910 -0.40400
O 	O 	0.90190 0.82790 0.37440 -0.36900
O 	O 	0.90670 0.83580 0.22270 -0.39900
O 	O 	-0.00000 0.40320 -0.00000 -0.60700
O 	O 	0.40320 1.00000 -0.00000 -0.55600
O 	O 	0.59680 0.59680 0.59680 -0.57000
O 	O 	-0.00000 -0.00000 0.40320 -0.61300
