data_crystal

_cell_length_a 16.87530
_cell_length_b 16.87530
_cell_length_c 16.87530
_cell_angle_alpha 90.00000
_cell_angle_beta  90.00000
_cell_angle_gamma 90.00000

_symmetry_space_group_name_	'P 1'
_symmetry_space_group_name_H-M	'P 1'

loop_
_symmetry_equiv_pos_as_xyz
  x,y,z

loop_
_atom_site_label
_atom_site_type_symbol
_atom_site_fract_x
_atom_site_fract_y
_atom_site_fract_z
_atom_site_charge
In	In	0.50770 0.61417 0.45050 1.99400
O 	O 	0.41050 0.54300 0.49540 -0.74900
O 	O 	0.46250 0.71950 0.50040 -0.52700
O 	O 	0.61330 0.66280 0.40290 -0.51900
O 	O 	0.61700 0.58000 0.30030 -0.29800
O 	O 	0.44740 0.64690 0.34500 -0.54600
O 	O 	0.55290 0.74300 0.59060 -0.28800
C 	C 	0.37720 0.62650 0.22590 -0.19700
C 	C 	0.41160 0.59750 0.30290 0.46700
C 	C 	0.49050 0.75970 0.55710 0.38500
C 	C 	0.64080 0.63770 0.33710 0.35600
C 	C 	0.40870 0.69490 0.18930 0.14200
H 	H 	0.45360 0.71900 0.21030 -0.00300
C 	C 	0.73830 0.75060 0.34590 0.02600
H 	H 	0.71240 0.76850 0.39110 0.05600
C 	C 	0.44200 0.83080 0.58020 -0.12000
C 	C 	0.37600 0.85290 0.53780 0.06500
H 	H 	0.36070 0.82250 0.49440 0.04800
C 	C 	0.71130 0.68280 0.30410 -0.09900
O 	O 	0.40370 0.52410 0.31660 -0.50900
In	In	0.99230 0.38583 0.95050 1.99300
O 	O 	0.08950 0.45700 0.99540 -0.75100
O 	O 	0.03750 0.28050 0.00040 -0.52800
O 	O 	0.88670 0.33720 0.90290 -0.51900
O 	O 	0.88300 0.42000 0.80030 -0.29800
O 	O 	0.05260 0.35310 0.84500 -0.54700
O 	O 	0.94710 0.25700 0.09060 -0.29000
C 	C 	0.12280 0.37350 0.72590 -0.19700
C 	C 	0.08840 0.40250 0.80290 0.46700
C 	C 	0.00950 0.24030 0.05710 0.38800
C 	C 	0.85920 0.36230 0.83710 0.35600
C 	C 	0.09130 0.30510 0.68930 0.14200
H 	H 	0.04640 0.28100 0.71030 -0.00300
C 	C 	0.76170 0.24940 0.84590 0.02600
H 	H 	0.78760 0.23150 0.89110 0.05600
C 	C 	0.05800 0.16920 0.08020 -0.12400
C 	C 	0.12400 0.14710 0.03780 0.07000
H 	H 	0.13930 0.17750 0.99440 0.04500
C 	C 	0.78870 0.31720 0.80410 -0.09900
O 	O 	0.09630 0.47590 0.81660 -0.50900
In	In	0.49230 0.11417 0.04950 1.99300
O 	O 	0.58950 0.04300 0.00460 -0.75000
O 	O 	0.53750 0.21950 0.99960 -0.52800
O 	O 	0.38670 0.16280 0.09710 -0.52000
O 	O 	0.38300 0.08000 0.19970 -0.29900
O 	O 	0.55260 0.14690 0.15500 -0.54600
O 	O 	0.44710 0.24300 0.90940 -0.28800
C 	C 	0.62280 0.12650 0.27410 -0.19700
C 	C 	0.58840 0.09750 0.19710 0.46700
C 	C 	0.50950 0.25970 0.94290 0.38500
C 	C 	0.35920 0.13770 0.16290 0.35600
C 	C 	0.59130 0.19490 0.31070 0.14200
H 	H 	0.54640 0.21900 0.28970 -0.00300
C 	C 	0.26170 0.25060 0.15410 0.02600
H 	H 	0.28760 0.26850 0.10890 0.05600
C 	C 	0.55800 0.33080 0.91980 -0.12100
C 	C 	0.62400 0.35290 0.96220 0.06700
H 	H 	0.63930 0.32250 0.00560 0.04700
C 	C 	0.28870 0.18280 0.19590 -0.09900
O 	O 	0.59630 0.02410 0.18340 -0.50800
In	In	0.00770 0.88583 0.54950 1.99200
O 	O 	0.91050 0.95700 0.50460 -0.74800
O 	O 	0.96250 0.78050 0.49960 -0.52800
O 	O 	0.11330 0.83720 0.59710 -0.52100
O 	O 	0.11700 0.92000 0.69970 -0.29900
O 	O 	0.94740 0.85310 0.65500 -0.54500
O 	O 	0.05290 0.75700 0.40940 -0.29000
C 	C 	0.87720 0.87350 0.77410 -0.19500
C 	C 	0.91160 0.90250 0.69710 0.46700
C 	C 	0.99050 0.74030 0.44290 0.38800
C 	C 	0.14080 0.86230 0.66290 0.35600
C 	C 	0.90870 0.80510 0.81070 0.14200
H 	H 	0.95360 0.78100 0.78970 -0.00200
C 	C 	0.23830 0.74940 0.65410 0.02600
H 	H 	0.21240 0.73150 0.60890 0.05600
C 	C 	0.94200 0.66920 0.41980 -0.12100
C 	C 	0.87600 0.64710 0.46220 0.06500
H 	H 	0.86070 0.67750 0.50560 0.04800
C 	C 	0.21130 0.81720 0.69590 -0.09900
O 	O 	0.90370 0.97590 0.68340 -0.50600
In	In	0.45050 0.50770 0.61417 1.99300
O 	O 	0.49540 0.41050 0.54300 -0.75000
O 	O 	0.50040 0.46250 0.71950 -0.52800
O 	O 	0.40290 0.61330 0.66280 -0.52000
O 	O 	0.30030 0.61700 0.58000 -0.29900
O 	O 	0.34500 0.44740 0.64690 -0.54700
O 	O 	0.59060 0.55290 0.74300 -0.28800
C 	C 	0.22590 0.37720 0.62650 -0.19700
C 	C 	0.30290 0.41160 0.59750 0.46700
C 	C 	0.55710 0.49050 0.75970 0.38500
C 	C 	0.33710 0.64080 0.63770 0.35600
C 	C 	0.18930 0.40870 0.69490 0.14200
H 	H 	0.21030 0.45360 0.71900 -0.00300
C 	C 	0.34590 0.73830 0.75060 0.02600
H 	H 	0.39110 0.71240 0.76850 0.05600
C 	C 	0.58020 0.44200 0.83080 -0.12000
C 	C 	0.53780 0.37600 0.85290 0.06500
H 	H 	0.49440 0.36070 0.82250 0.04800
C 	C 	0.30410 0.71130 0.68280 -0.09900
O 	O 	0.31660 0.40370 0.52410 -0.50900
In	In	0.95050 0.99230 0.38583 1.99300
O 	O 	0.99540 0.08950 0.45700 -0.75100
O 	O 	0.00040 0.03750 0.28050 -0.52800
O 	O 	0.90290 0.88670 0.33720 -0.51900
O 	O 	0.80030 0.88300 0.42000 -0.29800
O 	O 	0.84500 0.05260 0.35310 -0.54700
O 	O 	0.09060 0.94710 0.25700 -0.29000
C 	C 	0.72590 0.12280 0.37350 -0.19700
C 	C 	0.80290 0.08840 0.40250 0.46700
C 	C 	0.05710 0.00950 0.24030 0.38800
C 	C 	0.83710 0.85920 0.36230 0.35600
C 	C 	0.68930 0.09130 0.30510 0.14200
H 	H 	0.71030 0.04640 0.28100 -0.00300
C 	C 	0.84590 0.76170 0.24940 0.02600
H 	H 	0.89110 0.78760 0.23150 0.05600
C 	C 	0.08020 0.05800 0.16920 -0.12400
C 	C 	0.03780 0.12400 0.14710 0.07000
H 	H 	0.99440 0.13930 0.17750 0.04500
C 	C 	0.80410 0.78870 0.31720 -0.09900
O 	O 	0.81660 0.09630 0.47590 -0.50900
In	In	0.04950 0.49230 0.11417 1.99300
O 	O 	0.00460 0.58950 0.04300 -0.75000
O 	O 	0.99960 0.53750 0.21950 -0.52800
O 	O 	0.09710 0.38670 0.16280 -0.52000
O 	O 	0.19970 0.38300 0.08000 -0.29900
O 	O 	0.15500 0.55260 0.14690 -0.54600
O 	O 	0.90940 0.44710 0.24300 -0.28800
C 	C 	0.27410 0.62280 0.12650 -0.19700
C 	C 	0.19710 0.58840 0.09750 0.46700
C 	C 	0.94290 0.50950 0.25970 0.38500
C 	C 	0.16290 0.35920 0.13770 0.35600
C 	C 	0.31070 0.59130 0.19490 0.14200
H 	H 	0.28970 0.54640 0.21900 -0.00300
C 	C 	0.15410 0.26170 0.25060 0.02600
H 	H 	0.10890 0.28760 0.26850 0.05600
C 	C 	0.91980 0.55800 0.33080 -0.12100
C 	C 	0.96220 0.62400 0.35290 0.06700
H 	H 	0.00560 0.63930 0.32250 0.04700
C 	C 	0.19590 0.28870 0.18280 -0.09900
O 	O 	0.18340 0.59630 0.02410 -0.50800
In	In	0.54950 0.00770 0.88583 1.99200
O 	O 	0.50460 0.91050 0.95700 -0.74800
O 	O 	0.49960 0.96250 0.78050 -0.52800
O 	O 	0.59710 0.11330 0.83720 -0.52100
O 	O 	0.69970 0.11700 0.92000 -0.29900
O 	O 	0.65500 0.94740 0.85310 -0.54500
O 	O 	0.40940 0.05290 0.75700 -0.29000
C 	C 	0.77410 0.87720 0.87350 -0.19500
C 	C 	0.69710 0.91160 0.90250 0.46700
C 	C 	0.44290 0.99050 0.74030 0.38800
C 	C 	0.66290 0.14080 0.86230 0.35600
C 	C 	0.81070 0.90870 0.80510 0.14200
H 	H 	0.78970 0.95360 0.78100 -0.00200
C 	C 	0.65410 0.23830 0.74940 0.02600
H 	H 	0.60890 0.21240 0.73150 0.05600
C 	C 	0.41980 0.94200 0.66920 -0.12100
C 	C 	0.46220 0.87600 0.64710 0.06500
H 	H 	0.50560 0.86070 0.67750 0.04800
C 	C 	0.69590 0.21130 0.81720 -0.09900
O 	O 	0.68340 0.90370 0.97590 -0.50600
In	In	0.61417 0.45050 0.50770 1.99300
O 	O 	0.54300 0.49540 0.41050 -0.75000
O 	O 	0.71950 0.50040 0.46250 -0.52800
O 	O 	0.66280 0.40290 0.61330 -0.52000
O 	O 	0.58000 0.30030 0.61700 -0.29900
O 	O 	0.64690 0.34500 0.44740 -0.54700
O 	O 	0.74300 0.59060 0.55290 -0.28800
C 	C 	0.62650 0.22590 0.37720 -0.19700
C 	C 	0.59750 0.30290 0.41160 0.46700
C 	C 	0.75970 0.55710 0.49050 0.38500
C 	C 	0.63770 0.33710 0.64080 0.35600
C 	C 	0.69490 0.18930 0.40870 0.14200
H 	H 	0.71900 0.21030 0.45360 -0.00300
C 	C 	0.75060 0.34590 0.73830 0.02600
H 	H 	0.76850 0.39110 0.71240 0.05600
C 	C 	0.83080 0.58020 0.44200 -0.12000
C 	C 	0.85290 0.53780 0.37600 0.06500
H 	H 	0.82250 0.49440 0.36070 0.04800
C 	C 	0.68280 0.30410 0.71130 -0.09900
O 	O 	0.52410 0.31660 0.40370 -0.50900
In	In	0.38583 0.95050 0.99230 1.99300
O 	O 	0.45700 0.99540 0.08950 -0.75100
O 	O 	0.28050 0.00040 0.03750 -0.52800
O 	O 	0.33720 0.90290 0.88670 -0.51900
O 	O 	0.42000 0.80030 0.88300 -0.29800
O 	O 	0.35310 0.84500 0.05260 -0.54700
O 	O 	0.25700 0.09060 0.94710 -0.29000
C 	C 	0.37350 0.72590 0.12280 -0.19700
C 	C 	0.40250 0.80290 0.08840 0.46700
C 	C 	0.24030 0.05710 0.00950 0.38800
C 	C 	0.36230 0.83710 0.85920 0.35600
C 	C 	0.30510 0.68930 0.09130 0.14200
H 	H 	0.28100 0.71030 0.04640 -0.00300
C 	C 	0.24940 0.84590 0.76170 0.02600
H 	H 	0.23150 0.89110 0.78760 0.05600
C 	C 	0.16920 0.08020 0.05800 -0.12400
C 	C 	0.14710 0.03780 0.12400 0.07000
H 	H 	0.17750 0.99440 0.13930 0.04500
C 	C 	0.31720 0.80410 0.78870 -0.09900
O 	O 	0.47590 0.81660 0.09630 -0.50900
In	In	0.11417 0.04950 0.49230 1.99300
O 	O 	0.04300 0.00460 0.58950 -0.75000
O 	O 	0.21950 0.99960 0.53750 -0.52800
O 	O 	0.16280 0.09710 0.38670 -0.52000
O 	O 	0.08000 0.19970 0.38300 -0.29900
O 	O 	0.14690 0.15500 0.55260 -0.54600
O 	O 	0.24300 0.90940 0.44710 -0.28800
C 	C 	0.12650 0.27410 0.62280 -0.19700
C 	C 	0.09750 0.19710 0.58840 0.46700
C 	C 	0.25970 0.94290 0.50950 0.38500
C 	C 	0.13770 0.16290 0.35920 0.35600
C 	C 	0.19490 0.31070 0.59130 0.14200
H 	H 	0.21900 0.28970 0.54640 -0.00300
C 	C 	0.25060 0.15410 0.26170 0.02600
H 	H 	0.26850 0.10890 0.28760 0.05600
C 	C 	0.33080 0.91980 0.55800 -0.12100
C 	C 	0.35290 0.96220 0.62400 0.06700
H 	H 	0.32250 0.00560 0.63930 0.04700
C 	C 	0.18280 0.19590 0.28870 -0.09900
O 	O 	0.02410 0.18340 0.59630 -0.50800
In	In	0.88583 0.54950 0.00770 1.99200
O 	O 	0.95700 0.50460 0.91050 -0.74800
O 	O 	0.78050 0.49960 0.96250 -0.52800
O 	O 	0.83720 0.59710 0.11330 -0.52100
O 	O 	0.92000 0.69970 0.11700 -0.29900
O 	O 	0.85310 0.65500 0.94740 -0.54500
O 	O 	0.75700 0.40940 0.05290 -0.29000
C 	C 	0.87350 0.77410 0.87720 -0.19500
C 	C 	0.90250 0.69710 0.91160 0.46700
C 	C 	0.74030 0.44290 0.99050 0.38800
C 	C 	0.86230 0.66290 0.14080 0.35600
C 	C 	0.80510 0.81070 0.90870 0.14200
H 	H 	0.78100 0.78970 0.95360 -0.00200
C 	C 	0.74940 0.65410 0.23830 0.02600
H 	H 	0.73150 0.60890 0.21240 0.05600
C 	C 	0.66920 0.41980 0.94200 -0.12100
C 	C 	0.64710 0.46220 0.87600 0.06500
H 	H 	0.67750 0.50560 0.86070 0.04800
C 	C 	0.81720 0.69590 0.21130 -0.09900
O 	O 	0.97590 0.68340 0.90370 -0.50600
Nd	Nd	0.41544 0.41544 0.41544 1.74700
O 	O 	0.56030 0.56030 0.56030 -0.78700
Nd	Nd	0.08456 0.58456 0.91544 1.74400
O 	O 	0.93970 0.43970 0.06030 -0.78800
Nd	Nd	0.58456 0.91544 0.08456 1.74400
O 	O 	0.43970 0.06030 0.93970 -0.78800
Nd	Nd	0.91544 0.08456 0.58456 1.74400
O 	O 	0.06030 0.93970 0.43970 -0.78800
