data_crystal

_cell_length_a 10.27680
_cell_length_b 10.30160
_cell_length_c 18.83640
_cell_angle_alpha 90.00000
_cell_angle_beta  90.00000
_cell_angle_gamma 90.00000

_symmetry_space_group_name_	'P 1'
_symmetry_space_group_name_H-M	'P 1'

loop_
_symmetry_equiv_pos_as_xyz
  x,y,z

loop_
_atom_site_label
_atom_site_type_symbol
_atom_site_fract_x
_atom_site_fract_y
_atom_site_fract_z
_atom_site_charge
Co	Co	0.57218 0.86788 0.06058 1.17900
Co	Co	0.59538 0.13696 0.20076 1.17900
Co	Co	0.90936 0.89769 0.19470 1.17700
Co	Co	0.84840 0.16533 0.03230 1.17900
P 	P 	0.59429 0.84787 0.23152 0.53000
P 	P 	0.89626 0.20874 0.20015 0.55100
P 	P 	0.88902 0.84771 0.03261 0.55400
P 	P 	0.56148 0.13503 0.02910 0.49200
O 	O 	0.74520 0.81560 0.03200 -0.44800
O 	O 	0.54670 0.80100 0.15900 -0.43300
O 	O 	0.95420 0.77240 0.97350 -0.37500
O 	O 	0.50240 0.01060 0.99800 -0.38800
O 	O 	0.76040 0.20320 0.23410 -0.44200
O 	O 	0.55400 0.75200 0.28950 -0.39000
O 	O 	0.62080 0.09080 0.10070 -0.57300
O 	O 	0.53210 0.98000 0.24860 -0.41800
O 	O 	0.74270 0.86070 0.23520 -0.45500
O 	O 	0.96630 0.07800 0.20790 -0.43600
O 	O 	0.97470 0.31360 0.23770 -0.38500
O 	O 	0.95090 0.80940 0.10470 -0.42300
O 	O 	0.91470 0.99160 0.01990 -0.45400
O 	O 	0.45990 0.24100 0.03810 -0.39400
O 	O 	0.88880 0.24790 0.12170 -0.43700
O 	O 	0.67710 0.18200 0.98390 -0.39800
Co	Co	0.92782 0.13212 0.56058 1.17900
Co	Co	0.90462 0.86304 0.70076 1.17900
Co	Co	0.59064 0.10231 0.69470 1.17800
Co	Co	0.65160 0.83467 0.53230 1.18100
P 	P 	0.90571 0.15213 0.73152 0.53000
P 	P 	0.60374 0.79126 0.70015 0.55100
P 	P 	0.61098 0.15229 0.53261 0.55800
P 	P 	0.93852 0.86497 0.52910 0.49300
O 	O 	0.75480 0.18440 0.53200 -0.44800
O 	O 	0.95330 0.19900 0.65900 -0.43300
O 	O 	0.54580 0.22760 0.47350 -0.37900
O 	O 	0.99760 0.98940 0.49800 -0.39000
O 	O 	0.73960 0.79680 0.73410 -0.44200
O 	O 	0.94600 0.24800 0.78950 -0.38800
O 	O 	0.87920 0.90920 0.60070 -0.57300
O 	O 	0.96790 0.02000 0.74860 -0.41600
O 	O 	0.75730 0.13930 0.73520 -0.45400
O 	O 	0.53370 0.92200 0.70790 -0.43500
O 	O 	0.52530 0.68640 0.73770 -0.38300
O 	O 	0.54910 0.19060 0.60470 -0.42100
O 	O 	0.58530 0.00840 0.51990 -0.45200
O 	O 	0.04010 0.75900 0.53810 -0.39300
O 	O 	0.61120 0.75210 0.62170 -0.43600
O 	O 	0.82290 0.81800 0.48390 -0.40100
Co	Co	0.42782 0.36788 0.43942 1.17900
Co	Co	0.40462 0.63696 0.29924 1.17900
Co	Co	0.09064 0.39769 0.30530 1.17800
Co	Co	0.15160 0.66533 0.46770 1.18100
P 	P 	0.40571 0.34787 0.26848 0.53000
P 	P 	0.10374 0.70874 0.29985 0.55100
P 	P 	0.11098 0.34771 0.46739 0.55800
P 	P 	0.43852 0.63503 0.47090 0.49400
O 	O 	0.25480 0.31560 0.46800 -0.44800
O 	O 	0.45330 0.30100 0.34100 -0.43400
O 	O 	0.04580 0.27240 0.52650 -0.38000
O 	O 	0.49760 0.51060 0.50200 -0.38900
O 	O 	0.23960 0.70320 0.26590 -0.44100
O 	O 	0.44600 0.25200 0.21050 -0.39000
O 	O 	0.37920 0.59080 0.39930 -0.57300
O 	O 	0.46790 0.48000 0.25140 -0.41900
O 	O 	0.25730 0.36070 0.26480 -0.45400
O 	O 	0.03370 0.57800 0.29210 -0.43400
O 	O 	0.02530 0.81360 0.26230 -0.38000
O 	O 	0.04910 0.30940 0.39530 -0.42100
O 	O 	0.08530 0.49160 0.48010 -0.45200
O 	O 	0.54010 0.74100 0.46190 -0.39400
O 	O 	0.11120 0.74790 0.37830 -0.43500
O 	O 	0.32290 0.68200 0.51610 -0.40100
Co	Co	0.07218 0.63212 0.93942 1.17700
Co	Co	0.09538 0.36304 0.79924 1.17800
Co	Co	0.40936 0.60231 0.80530 1.17800
Co	Co	0.34840 0.33467 0.96770 1.18000
P 	P 	0.09429 0.65213 0.76848 0.53100
P 	P 	0.39626 0.29126 0.79985 0.55100
P 	P 	0.38902 0.65229 0.96739 0.55700
P 	P 	0.06148 0.36497 0.97090 0.48200
O 	O 	0.24520 0.68440 0.96800 -0.44900
O 	O 	0.04670 0.69900 0.84100 -0.43500
O 	O 	0.45420 0.72760 0.02650 -0.37700
O 	O 	0.00240 0.48940 0.00200 -0.38200
O 	O 	0.26040 0.29680 0.76590 -0.44300
O 	O 	0.05400 0.74800 0.71050 -0.39000
O 	O 	0.12080 0.40920 0.89930 -0.57300
O 	O 	0.03210 0.52000 0.75140 -0.42000
O 	O 	0.24270 0.63930 0.76480 -0.45500
O 	O 	0.46630 0.42200 0.79210 -0.43500
O 	O 	0.47470 0.18640 0.76230 -0.38400
O 	O 	0.45090 0.69060 0.89530 -0.42100
O 	O 	0.41470 0.50840 0.98010 -0.45200
O 	O 	0.95990 0.25900 0.96190 -0.38800
O 	O 	0.38880 0.25210 0.87830 -0.43600
O 	O 	0.17710 0.31800 0.01610 -0.39600
