data_crystal

_cell_length_a 16.88450
_cell_length_b 16.88450
_cell_length_c 16.88450
_cell_angle_alpha 90.00000
_cell_angle_beta  90.00000
_cell_angle_gamma 90.00000

_symmetry_space_group_name_	'P 1'
_symmetry_space_group_name_H-M	'P 1'

loop_
_symmetry_equiv_pos_as_xyz
  x,y,z

loop_
_atom_site_label
_atom_site_type_symbol
_atom_site_fract_x
_atom_site_fract_y
_atom_site_fract_z
_atom_site_charge
In	In	0.99224 0.61415 0.54975 1.99300
O 	O 	0.08880 0.54260 0.50560 -0.73800
O 	O 	0.03840 0.71860 0.49960 -0.52300
O 	O 	0.88690 0.66320 0.59680 -0.51700
O 	O 	0.88510 0.58000 0.70010 -0.29200
C 	C 	0.12290 0.62710 0.77380 -0.16600
O 	O 	0.94670 0.74320 0.40900 -0.27800
O 	O 	0.05360 0.64660 0.65410 -0.53900
C 	C 	0.05830 0.83150 0.42090 -0.09900
C 	C 	0.12480 0.85350 0.46320 0.04500
H 	H 	0.14080 0.82330 0.50650 0.05500
C 	C 	0.08790 0.59510 0.69670 0.46200
C 	C 	0.00990 0.75950 0.44360 0.36600
C 	C 	0.09030 0.69470 0.80940 0.11200
H 	H 	0.04520 0.71830 0.78850 0.00900
C 	C 	0.85930 0.63780 0.66270 0.34500
C 	C 	0.75030 0.65550 0.76180 0.02800
H 	H 	0.76900 0.61130 0.78880 0.05500
C 	C 	0.78930 0.68210 0.69510 -0.10000
O 	O 	0.09600 0.52420 0.68200 -0.50100
In	In	0.50776 0.38585 0.04975 1.99400
O 	O 	0.41120 0.45740 0.00560 -0.73700
O 	O 	0.46160 0.28140 0.99960 -0.52300
O 	O 	0.61310 0.33680 0.09680 -0.51700
O 	O 	0.61490 0.42000 0.20010 -0.29200
C 	C 	0.37710 0.37290 0.27380 -0.16600
O 	O 	0.55330 0.25680 0.90900 -0.27700
O 	O 	0.44640 0.35340 0.15410 -0.54000
C 	C 	0.44170 0.16850 0.92090 -0.10000
C 	C 	0.37520 0.14650 0.96320 0.04800
H 	H 	0.35920 0.17670 0.00650 0.05300
C 	C 	0.41210 0.40490 0.19670 0.46200
C 	C 	0.49010 0.24050 0.94360 0.36500
C 	C 	0.40970 0.30530 0.30940 0.11300
H 	H 	0.45480 0.28170 0.28850 0.00900
C 	C 	0.64070 0.36220 0.16270 0.34500
C 	C 	0.74970 0.34450 0.26180 0.02800
H 	H 	0.73100 0.38870 0.28880 0.05600
C 	C 	0.71070 0.31790 0.19510 -0.09900
O 	O 	0.40400 0.47580 0.18200 -0.50100
In	In	0.00776 0.11415 0.95025 1.99400
O 	O 	0.91120 0.04260 0.99440 -0.73500
O 	O 	0.96160 0.21860 0.00040 -0.52300
O 	O 	0.11310 0.16320 0.90320 -0.51700
O 	O 	0.11490 0.08000 0.79990 -0.29200
C 	C 	0.87710 0.12710 0.72620 -0.16600
O 	O 	0.05330 0.24320 0.09100 -0.27900
O 	O 	0.94640 0.14660 0.84590 -0.53900
C 	C 	0.94170 0.33150 0.07910 -0.10000
C 	C 	0.87520 0.35350 0.03680 0.04600
H 	H 	0.85920 0.32330 0.99350 0.05400
C 	C 	0.91210 0.09510 0.80330 0.46100
C 	C 	0.99010 0.25950 0.05640 0.36800
C 	C 	0.90970 0.19470 0.69060 0.11200
H 	H 	0.95480 0.21830 0.71150 0.00900
C 	C 	0.14070 0.13780 0.83730 0.34500
C 	C 	0.24970 0.15550 0.73820 0.02800
H 	H 	0.23100 0.11130 0.71120 0.05600
C 	C 	0.21070 0.18210 0.80490 -0.09900
O 	O 	0.90400 0.02420 0.81800 -0.49900
In	In	0.49224 0.88585 0.45025 1.99400
O 	O 	0.58880 0.95740 0.49440 -0.73700
O 	O 	0.53840 0.78140 0.50040 -0.52300
O 	O 	0.38690 0.83680 0.40320 -0.51700
O 	O 	0.38510 0.92000 0.29990 -0.29200
C 	C 	0.62290 0.87290 0.22620 -0.16600
O 	O 	0.44670 0.75680 0.59100 -0.27700
O 	O 	0.55360 0.85340 0.34590 -0.54000
C 	C 	0.55830 0.66850 0.57910 -0.09800
C 	C 	0.62480 0.64650 0.53680 0.04300
H 	H 	0.64080 0.67670 0.49350 0.05600
C 	C 	0.58790 0.90490 0.30330 0.46200
C 	C 	0.50990 0.74050 0.55640 0.36400
C 	C 	0.59030 0.80530 0.19060 0.11300
H 	H 	0.54520 0.78170 0.21150 0.00900
C 	C 	0.35930 0.86220 0.33730 0.34500
C 	C 	0.25030 0.84450 0.23820 0.02800
H 	H 	0.26900 0.88870 0.21120 0.05600
C 	C 	0.28930 0.81790 0.30490 -0.09900
O 	O 	0.59600 0.97580 0.31800 -0.50100
In	In	0.54975 0.99224 0.61415 1.99400
O 	O 	0.50560 0.08880 0.54260 -0.73700
O 	O 	0.49960 0.03840 0.71860 -0.52300
O 	O 	0.59680 0.88690 0.66320 -0.51700
O 	O 	0.70010 0.88510 0.58000 -0.29200
C 	C 	0.77380 0.12290 0.62710 -0.16600
O 	O 	0.40900 0.94670 0.74320 -0.27800
O 	O 	0.65410 0.05360 0.64660 -0.53900
C 	C 	0.42090 0.05830 0.83150 -0.09900
C 	C 	0.46320 0.12480 0.85350 0.04500
H 	H 	0.50650 0.14080 0.82330 0.05500
C 	C 	0.69670 0.08790 0.59510 0.46200
C 	C 	0.44360 0.00990 0.75950 0.36600
C 	C 	0.80940 0.09030 0.69470 0.11200
H 	H 	0.78850 0.04520 0.71830 0.00900
C 	C 	0.66270 0.85930 0.63780 0.34500
C 	C 	0.76180 0.75030 0.65550 0.02800
H 	H 	0.78880 0.76900 0.61130 0.05500
C 	C 	0.69510 0.78930 0.68210 -0.10000
O 	O 	0.68200 0.09600 0.52420 -0.50100
In	In	0.04975 0.50776 0.38585 1.99400
O 	O 	0.00560 0.41120 0.45740 -0.73700
O 	O 	0.99960 0.46160 0.28140 -0.52300
O 	O 	0.09680 0.61310 0.33680 -0.51700
O 	O 	0.20010 0.61490 0.42000 -0.29200
C 	C 	0.27380 0.37710 0.37290 -0.16600
O 	O 	0.90900 0.55330 0.25680 -0.27700
O 	O 	0.15410 0.44640 0.35340 -0.54000
C 	C 	0.92090 0.44170 0.16850 -0.10000
C 	C 	0.96320 0.37520 0.14650 0.04800
H 	H 	0.00650 0.35920 0.17670 0.05300
C 	C 	0.19670 0.41210 0.40490 0.46200
C 	C 	0.94360 0.49010 0.24050 0.36500
C 	C 	0.30940 0.40970 0.30530 0.11300
H 	H 	0.28850 0.45480 0.28170 0.00900
C 	C 	0.16270 0.64070 0.36220 0.34500
C 	C 	0.26180 0.74970 0.34450 0.02800
H 	H 	0.28880 0.73100 0.38870 0.05600
C 	C 	0.19510 0.71070 0.31790 -0.09900
O 	O 	0.18200 0.40400 0.47580 -0.50100
In	In	0.95025 0.00776 0.11415 1.99400
O 	O 	0.99440 0.91120 0.04260 -0.73500
O 	O 	0.00040 0.96160 0.21860 -0.52300
O 	O 	0.90320 0.11310 0.16320 -0.51700
O 	O 	0.79990 0.11490 0.08000 -0.29200
C 	C 	0.72620 0.87710 0.12710 -0.16600
O 	O 	0.09100 0.05330 0.24320 -0.27900
O 	O 	0.84590 0.94640 0.14660 -0.53900
C 	C 	0.07910 0.94170 0.33150 -0.10000
C 	C 	0.03680 0.87520 0.35350 0.04600
H 	H 	0.99350 0.85920 0.32330 0.05400
C 	C 	0.80330 0.91210 0.09510 0.46100
C 	C 	0.05640 0.99010 0.25950 0.36800
C 	C 	0.69060 0.90970 0.19470 0.11200
H 	H 	0.71150 0.95480 0.21830 0.00900
C 	C 	0.83730 0.14070 0.13780 0.34500
C 	C 	0.73820 0.24970 0.15550 0.02800
H 	H 	0.71120 0.23100 0.11130 0.05600
C 	C 	0.80490 0.21070 0.18210 -0.09900
O 	O 	0.81800 0.90400 0.02420 -0.49900
In	In	0.45025 0.49224 0.88585 1.99400
O 	O 	0.49440 0.58880 0.95740 -0.73700
O 	O 	0.50040 0.53840 0.78140 -0.52300
O 	O 	0.40320 0.38690 0.83680 -0.51700
O 	O 	0.29990 0.38510 0.92000 -0.29200
C 	C 	0.22620 0.62290 0.87290 -0.16600
O 	O 	0.59100 0.44670 0.75680 -0.27700
O 	O 	0.34590 0.55360 0.85340 -0.54000
C 	C 	0.57910 0.55830 0.66850 -0.09800
C 	C 	0.53680 0.62480 0.64650 0.04300
H 	H 	0.49350 0.64080 0.67670 0.05600
C 	C 	0.30330 0.58790 0.90490 0.46200
C 	C 	0.55640 0.50990 0.74050 0.36400
C 	C 	0.19060 0.59030 0.80530 0.11300
H 	H 	0.21150 0.54520 0.78170 0.00900
C 	C 	0.33730 0.35930 0.86220 0.34500
C 	C 	0.23820 0.25030 0.84450 0.02800
H 	H 	0.21120 0.26900 0.88870 0.05600
C 	C 	0.30490 0.28930 0.81790 -0.09900
O 	O 	0.31800 0.59600 0.97580 -0.50100
In	In	0.61415 0.54975 0.99224 1.99400
O 	O 	0.54260 0.50560 0.08880 -0.73700
O 	O 	0.71860 0.49960 0.03840 -0.52300
O 	O 	0.66320 0.59680 0.88690 -0.51700
O 	O 	0.58000 0.70010 0.88510 -0.29200
C 	C 	0.62710 0.77380 0.12290 -0.16600
O 	O 	0.74320 0.40900 0.94670 -0.27800
O 	O 	0.64660 0.65410 0.05360 -0.53900
C 	C 	0.83150 0.42090 0.05830 -0.09900
C 	C 	0.85350 0.46320 0.12480 0.04500
H 	H 	0.82330 0.50650 0.14080 0.05500
C 	C 	0.59510 0.69670 0.08790 0.46200
C 	C 	0.75950 0.44360 0.00990 0.36600
C 	C 	0.69470 0.80940 0.09030 0.11200
H 	H 	0.71830 0.78850 0.04520 0.00900
C 	C 	0.63780 0.66270 0.85930 0.34500
C 	C 	0.65550 0.76180 0.75030 0.02800
H 	H 	0.61130 0.78880 0.76900 0.05500
C 	C 	0.68210 0.69510 0.78930 -0.10000
O 	O 	0.52420 0.68200 0.09600 -0.50100
In	In	0.38585 0.04975 0.50776 1.99400
O 	O 	0.45740 0.00560 0.41120 -0.73700
O 	O 	0.28140 0.99960 0.46160 -0.52300
O 	O 	0.33680 0.09680 0.61310 -0.51700
O 	O 	0.42000 0.20010 0.61490 -0.29200
C 	C 	0.37290 0.27380 0.37710 -0.16600
O 	O 	0.25680 0.90900 0.55330 -0.27700
O 	O 	0.35340 0.15410 0.44640 -0.54000
C 	C 	0.16850 0.92090 0.44170 -0.10000
C 	C 	0.14650 0.96320 0.37520 0.04800
H 	H 	0.17670 0.00650 0.35920 0.05300
C 	C 	0.40490 0.19670 0.41210 0.46200
C 	C 	0.24050 0.94360 0.49010 0.36500
C 	C 	0.30530 0.30940 0.40970 0.11300
H 	H 	0.28170 0.28850 0.45480 0.00900
C 	C 	0.36220 0.16270 0.64070 0.34500
C 	C 	0.34450 0.26180 0.74970 0.02800
H 	H 	0.38870 0.28880 0.73100 0.05600
C 	C 	0.31790 0.19510 0.71070 -0.09900
O 	O 	0.47580 0.18200 0.40400 -0.50100
In	In	0.11415 0.95025 0.00776 1.99400
O 	O 	0.04260 0.99440 0.91120 -0.73500
O 	O 	0.21860 0.00040 0.96160 -0.52300
O 	O 	0.16320 0.90320 0.11310 -0.51700
O 	O 	0.08000 0.79990 0.11490 -0.29200
C 	C 	0.12710 0.72620 0.87710 -0.16600
O 	O 	0.24320 0.09100 0.05330 -0.27900
O 	O 	0.14660 0.84590 0.94640 -0.53900
C 	C 	0.33150 0.07910 0.94170 -0.10000
C 	C 	0.35350 0.03680 0.87520 0.04600
H 	H 	0.32330 0.99350 0.85920 0.05400
C 	C 	0.09510 0.80330 0.91210 0.46100
C 	C 	0.25950 0.05640 0.99010 0.36800
C 	C 	0.19470 0.69060 0.90970 0.11200
H 	H 	0.21830 0.71150 0.95480 0.00900
C 	C 	0.13780 0.83730 0.14070 0.34500
C 	C 	0.15550 0.73820 0.24970 0.02800
H 	H 	0.11130 0.71120 0.23100 0.05600
C 	C 	0.18210 0.80490 0.21070 -0.09900
O 	O 	0.02420 0.81800 0.90400 -0.49900
In	In	0.88585 0.45025 0.49224 1.99400
O 	O 	0.95740 0.49440 0.58880 -0.73700
O 	O 	0.78140 0.50040 0.53840 -0.52300
O 	O 	0.83680 0.40320 0.38690 -0.51700
O 	O 	0.92000 0.29990 0.38510 -0.29200
C 	C 	0.87290 0.22620 0.62290 -0.16600
O 	O 	0.75680 0.59100 0.44670 -0.27700
O 	O 	0.85340 0.34590 0.55360 -0.54000
C 	C 	0.66850 0.57910 0.55830 -0.09800
C 	C 	0.64650 0.53680 0.62480 0.04300
H 	H 	0.67670 0.49350 0.64080 0.05600
C 	C 	0.90490 0.30330 0.58790 0.46200
C 	C 	0.74050 0.55640 0.50990 0.36400
C 	C 	0.80530 0.19060 0.59030 0.11300
H 	H 	0.78170 0.21150 0.54520 0.00900
C 	C 	0.86220 0.33730 0.35930 0.34500
C 	C 	0.84450 0.23820 0.25030 0.02800
H 	H 	0.88870 0.21120 0.26900 0.05600
C 	C 	0.81790 0.30490 0.28930 -0.09900
O 	O 	0.97580 0.31800 0.59600 -0.50100
Sm	Sm	0.08394 0.41606 0.58394 1.62600
O 	O 	0.93980 0.56020 0.43980 -0.78500
Sm	Sm	0.41606 0.58394 0.08394 1.62600
O 	O 	0.56020 0.43980 0.93980 -0.78500
Sm	Sm	0.91606 0.91606 0.91606 1.61400
O 	O 	0.06020 0.06020 0.06020 -0.78700
Sm	Sm	0.58394 0.08394 0.41606 1.62600
O 	O 	0.43980 0.93980 0.56020 -0.78500
