data_crystal

_cell_length_a 31.95000
_cell_length_b 8.35960
_cell_length_c 15.91950
_cell_angle_alpha 90.00000
_cell_angle_beta  96.64500
_cell_angle_gamma 90.00000

_symmetry_space_group_name_	'P 1'
_symmetry_space_group_name_H-M	'P 1'

loop_
_symmetry_equiv_pos_as_xyz
  x,y,z

loop_
_atom_site_label
_atom_site_type_symbol
_atom_site_fract_x
_atom_site_fract_y
_atom_site_fract_z
_atom_site_charge
Co	Co	0.12823 0.71906 0.05946 1.18400
Co	Co	0.37163 0.20807 0.91045 1.18000
Co	Co	0.24950 0.50505 0.10884 1.18700
Co	Co	0.24647 0.48626 0.36672 1.18200
Co	Co	0.50774 0.26192 0.98854 1.17100
Co	Co	0.99364 0.75879 0.01360 1.17800
P 	P 	0.16933 0.46800 0.20545 0.52100
P 	P 	0.21904 0.79290 0.99027 0.50200
P 	P 	0.06380 0.98270 0.10975 0.55400
P 	P 	0.28170 0.34490 0.94157 0.54700
P 	P 	0.43521 0.03710 0.05996 0.56700
P 	P 	0.05636 0.55480 0.91935 0.51900
P 	P 	0.44275 0.48100 0.87112 0.52800
P 	P 	0.32550 0.52990 0.27685 0.52000
O 	O 	0.17140 0.76910 0.98810 -0.41200
O 	O 	0.14890 0.62430 0.16860 -0.40300
O 	O 	0.08539 0.57720 0.00250 -0.43800
O 	O 	0.10920 0.92900 0.10400 -0.38200
O 	O 	0.40520 0.04730 0.97930 -0.43100
O 	O 	0.32448 0.27010 0.97210 -0.42600
O 	O 	0.39996 0.41140 0.88530 -0.40700
O 	O 	0.35330 0.38240 0.29810 -0.40000
O 	O 	0.29520 0.49140 0.19890 -0.43700
O 	O 	0.25480 0.36270 0.01330 -0.39300
O 	O 	0.19903 0.39850 0.14400 -0.40600
O 	O 	0.24360 0.72570 0.07080 -0.41200
O 	O 	0.25800 0.24850 0.86830 -0.40400
O 	O 	0.30200 0.57860 0.35130 -0.41500
O 	O 	0.19450 0.51070 0.28940 -0.40700
O 	O 	0.22900 0.97250 0.98190 -0.35800
O 	O 	0.47810 0.35490 0.88590 -0.43500
O 	O 	0.47040 0.16400 0.06380 -0.44700
O 	O 	0.45380 0.86860 0.07230 -0.39900
O 	O 	0.45170 0.62470 0.93100 -0.41300
O 	O 	0.01900 0.67320 0.91710 -0.41200
O 	O 	0.05110 0.10740 0.04200 -0.42300
O 	O 	0.03440 0.83730 0.10520 -0.44500
O 	O 	0.03870 0.38160 0.91700 -0.38000
O 	O 	0.13570 0.34240 0.21450 -0.18700
O 	O 	0.23250 0.71350 0.90960 -0.25100
O 	O 	0.06150 0.06920 0.19670 -0.42100
H 	H 	0.06810 0.00620 0.23550 0.31600
O 	O 	0.28930 0.51510 0.90370 -0.42300
H 	H 	0.30390 0.50620 0.86480 0.27100
O 	O 	0.40950 0.07000 0.13660 -0.43400
H 	H 	0.42540 0.06490 0.18090 0.31300
O 	O 	0.07950 0.57740 0.84210 -0.23200
O 	O 	0.44200 0.54090 0.77950 -0.21900
O 	O 	0.35400 0.67480 0.26020 -0.19000
Co	Co	0.87177 0.21906 0.44054 1.18600
Co	Co	0.62837 0.70807 0.58955 1.18100
Co	Co	0.75050 0.00505 0.39116 1.19000
Co	Co	0.75353 0.98626 0.13328 1.18000
Co	Co	0.49226 0.76192 0.51146 1.17200
Co	Co	0.00636 0.25879 0.48640 1.17900
P 	P 	0.83067 0.96800 0.29455 0.51500
P 	P 	0.78096 0.29290 0.50973 0.50000
P 	P 	0.93620 0.48270 0.39025 0.55800
P 	P 	0.71830 0.84490 0.55843 0.54700
P 	P 	0.56479 0.53710 0.44004 0.56200
P 	P 	0.94364 0.05480 0.58065 0.51900
P 	P 	0.55725 0.98100 0.62888 0.52900
P 	P 	0.67450 0.02990 0.22315 0.52600
O 	O 	0.82860 0.26910 0.51190 -0.41300
O 	O 	0.85110 0.12430 0.33140 -0.40000
O 	O 	0.91461 0.07720 0.49750 -0.43800
O 	O 	0.89080 0.42900 0.39600 -0.38200
O 	O 	0.59480 0.54730 0.52070 -0.42700
O 	O 	0.67552 0.77010 0.52790 -0.42500
O 	O 	0.60004 0.91140 0.61470 -0.40700
O 	O 	0.64670 0.88240 0.20190 -0.40300
O 	O 	0.70480 0.99140 0.30110 -0.44100
O 	O 	0.74520 0.86270 0.48670 -0.39600
O 	O 	0.80097 0.89850 0.35600 -0.40600
O 	O 	0.75640 0.22570 0.42920 -0.41000
O 	O 	0.74200 0.74850 0.63170 -0.40200
O 	O 	0.69800 0.07860 0.14870 -0.41300
O 	O 	0.80550 0.01070 0.21060 -0.40200
O 	O 	0.77100 0.47250 0.51810 -0.36200
O 	O 	0.52190 0.85490 0.61410 -0.43500
O 	O 	0.52960 0.66400 0.43620 -0.44800
O 	O 	0.54620 0.36860 0.42770 -0.39600
O 	O 	0.54830 0.12470 0.56900 -0.41400
O 	O 	0.98100 0.17320 0.58290 -0.41300
O 	O 	0.94890 0.60740 0.45800 -0.42600
O 	O 	0.96560 0.33730 0.39480 -0.44500
O 	O 	0.96130 0.88160 0.58300 -0.37900
O 	O 	0.86430 0.84240 0.28550 -0.18800
O 	O 	0.76750 0.21350 0.59040 -0.25100
O 	O 	0.93850 0.56920 0.30330 -0.42300
H 	H 	0.93190 0.50620 0.26450 0.31600
O 	O 	0.71070 0.01510 0.59630 -0.42200
H 	H 	0.69610 0.00620 0.63520 0.27100
O 	O 	0.59050 0.57000 0.36340 -0.43400
H 	H 	0.57460 0.56490 0.31910 0.31200
O 	O 	0.92050 0.07740 0.65790 -0.23200
O 	O 	0.55800 0.04090 0.72050 -0.22000
O 	O 	0.64600 0.17480 0.23980 -0.19000
Co	Co	0.87177 0.28094 0.94054 1.18500
Co	Co	0.62837 0.79193 0.08955 1.18100
Co	Co	0.75050 0.49495 0.89116 1.18800
Co	Co	0.75353 0.51374 0.63328 1.18300
Co	Co	0.49226 0.73808 0.01146 1.17100
Co	Co	0.00636 0.24121 0.98640 1.17800
P 	P 	0.83067 0.53200 0.79455 0.52100
P 	P 	0.78096 0.20710 0.00973 0.50200
P 	P 	0.93620 0.01730 0.89025 0.55400
P 	P 	0.71830 0.65510 0.05843 0.54700
P 	P 	0.56479 0.96290 0.94004 0.56700
P 	P 	0.94364 0.44520 0.08065 0.51900
P 	P 	0.55725 0.51900 0.12888 0.52800
P 	P 	0.67450 0.47010 0.72315 0.52000
O 	O 	0.82860 0.23090 0.01190 -0.41200
O 	O 	0.85110 0.37570 0.83140 -0.40300
O 	O 	0.91461 0.42280 0.99750 -0.43800
O 	O 	0.89080 0.07100 0.89600 -0.38200
O 	O 	0.59480 0.95270 0.02070 -0.43100
O 	O 	0.67552 0.72990 0.02790 -0.42600
O 	O 	0.60004 0.58860 0.11470 -0.40700
O 	O 	0.64670 0.61760 0.70190 -0.40000
O 	O 	0.70480 0.50860 0.80110 -0.43700
O 	O 	0.74520 0.63730 0.98670 -0.39300
O 	O 	0.80097 0.60150 0.85600 -0.40600
O 	O 	0.75640 0.27430 0.92920 -0.41200
O 	O 	0.74200 0.75150 0.13170 -0.40400
O 	O 	0.69800 0.42140 0.64870 -0.41500
O 	O 	0.80550 0.48930 0.71060 -0.40700
O 	O 	0.77100 0.02750 0.01810 -0.35800
O 	O 	0.52190 0.64510 0.11410 -0.43500
O 	O 	0.52960 0.83600 0.93620 -0.44700
O 	O 	0.54620 0.13140 0.92770 -0.39900
O 	O 	0.54830 0.37530 0.06900 -0.41300
O 	O 	0.98100 0.32680 0.08290 -0.41200
O 	O 	0.94890 0.89260 0.95800 -0.42300
O 	O 	0.96560 0.16270 0.89480 -0.44500
O 	O 	0.96130 0.61840 0.08300 -0.38000
O 	O 	0.86430 0.65760 0.78550 -0.18700
O 	O 	0.76750 0.28650 0.09040 -0.25100
O 	O 	0.93850 0.93080 0.80330 -0.42100
H 	H 	0.93190 0.99380 0.76450 0.31600
O 	O 	0.71070 0.48490 0.09630 -0.42300
H 	H 	0.69610 0.49380 0.13520 0.27100
O 	O 	0.59050 0.93000 0.86340 -0.43400
H 	H 	0.57460 0.93510 0.81910 0.31300
O 	O 	0.92050 0.42260 0.15790 -0.23200
O 	O 	0.55800 0.45910 0.22050 -0.21900
O 	O 	0.64600 0.32520 0.73980 -0.19000
Co	Co	0.12823 0.78094 0.55946 1.18600
Co	Co	0.37163 0.29193 0.41045 1.18100
Co	Co	0.24950 0.99495 0.60884 1.19000
Co	Co	0.24647 0.01374 0.86672 1.18000
Co	Co	0.50774 0.23808 0.48854 1.17200
Co	Co	0.99364 0.74121 0.51360 1.17900
P 	P 	0.16933 0.03200 0.70545 0.51500
P 	P 	0.21904 0.70710 0.49027 0.50000
P 	P 	0.06380 0.51730 0.60975 0.55800
P 	P 	0.28170 0.15510 0.44157 0.54700
P 	P 	0.43521 0.46290 0.55996 0.56200
P 	P 	0.05636 0.94520 0.41935 0.51900
P 	P 	0.44275 0.01900 0.37112 0.52900
P 	P 	0.32550 0.97010 0.77685 0.52600
O 	O 	0.17140 0.73090 0.48810 -0.41300
O 	O 	0.14890 0.87570 0.66860 -0.40000
O 	O 	0.08539 0.92280 0.50250 -0.43800
O 	O 	0.10920 0.57100 0.60400 -0.38200
O 	O 	0.40520 0.45270 0.47930 -0.42700
O 	O 	0.32448 0.22990 0.47210 -0.42500
O 	O 	0.39996 0.08860 0.38530 -0.40700
O 	O 	0.35330 0.11760 0.79810 -0.40300
O 	O 	0.29520 0.00860 0.69890 -0.44100
O 	O 	0.25480 0.13730 0.51330 -0.39600
O 	O 	0.19903 0.10150 0.64400 -0.40600
O 	O 	0.24360 0.77430 0.57080 -0.41000
O 	O 	0.25800 0.25150 0.36830 -0.40200
O 	O 	0.30200 0.92140 0.85130 -0.41300
O 	O 	0.19450 0.98930 0.78940 -0.40200
O 	O 	0.22900 0.52750 0.48190 -0.36200
O 	O 	0.47810 0.14510 0.38590 -0.43500
O 	O 	0.47040 0.33600 0.56380 -0.44800
O 	O 	0.45380 0.63140 0.57230 -0.39600
O 	O 	0.45170 0.87530 0.43100 -0.41400
O 	O 	0.01900 0.82680 0.41710 -0.41300
O 	O 	0.05110 0.39260 0.54200 -0.42600
O 	O 	0.03440 0.66270 0.60520 -0.44500
O 	O 	0.03870 0.11840 0.41700 -0.37900
O 	O 	0.13570 0.15760 0.71450 -0.18800
O 	O 	0.23250 0.78650 0.40960 -0.25100
O 	O 	0.06150 0.43080 0.69670 -0.42300
H 	H 	0.06810 0.49380 0.73550 0.31600
O 	O 	0.28930 0.98490 0.40370 -0.42200
H 	H 	0.30390 0.99380 0.36480 0.27100
O 	O 	0.40950 0.43000 0.63660 -0.43400
H 	H 	0.42540 0.43510 0.68090 0.31200
O 	O 	0.07950 0.92260 0.34210 -0.23200
O 	O 	0.44200 0.95910 0.27950 -0.22000
O 	O 	0.35400 0.82520 0.76020 -0.19000
