data_crystal

_cell_length_a 22.56270
_cell_length_b 22.56270
_cell_length_c 22.56270
_cell_angle_alpha 107.96800
_cell_angle_beta  107.96800
_cell_angle_gamma 107.96800

_symmetry_space_group_name_	'P 1'
_symmetry_space_group_name_H-M	'P 1'

loop_
_symmetry_equiv_pos_as_xyz
  x,y,z

loop_
_atom_site_label
_atom_site_type_symbol
_atom_site_fract_x
_atom_site_fract_y
_atom_site_fract_z
_atom_site_charge
Mn	Mn	0.95024 0.46413 0.53261 1.27100
Mn	Mn	0.53261 0.95024 0.46413 1.27100
Mn	Mn	0.46413 0.53261 0.95024 1.27100
Mn	Mn	0.04976 0.53587 0.46739 1.27100
Mn	Mn	0.46739 0.04976 0.53587 1.27100
Mn	Mn	0.53587 0.46739 0.04976 1.27100
In	In	0.86977 0.45762 0.36089 1.99600
In	In	0.36089 0.86977 0.45762 1.99600
In	In	0.45762 0.36089 0.86977 1.99600
In	In	0.13023 0.54238 0.63911 1.99600
In	In	0.63911 0.13023 0.54238 1.99600
In	In	0.54238 0.63911 0.13023 1.99600
H 	H 	0.73000 0.54000 0.62340 0.08900
H 	H 	0.71380 0.10840 0.13430 0.06400
H 	H 	0.58250 0.09700 0.94160 0.06800
H 	H 	0.51410 0.71510 0.90710 0.02300
H 	H 	0.61320 0.01100 0.07190 0.07000
H 	H 	0.41070 0.89900 0.78490 0.08400
H 	H 	0.62130 0.51220 0.43080 0.09000
H 	H 	0.55400 0.91760 0.08230 0.07400
H 	H 	0.49380 0.88950 0.86820 0.06700
H 	H 	0.52730 0.81300 0.88870 0.07400
H 	H 	0.54170 0.82020 0.10050 0.02700
H 	H 	0.80940 0.51360 0.59080 0.01500
H 	H 	0.69880 0.48180 0.39630 0.02000
H 	H 	0.67130 0.29640 0.13550 0.04100
H 	H 	0.36980 0.87480 0.66850 0.01400
H 	H 	0.57840 0.06470 0.83010 0.08300
H 	H 	0.59940 0.18710 0.04130 0.06800
H 	H 	0.77930 0.21470 0.23190 0.04300
H 	H 	0.53520 0.03950 0.71280 -0.00100
H 	H 	0.62340 0.73000 0.54000 0.08800
H 	H 	0.13430 0.71380 0.10840 0.06300
H 	H 	0.94160 0.58250 0.09700 0.06700
H 	H 	0.90710 0.51410 0.71510 0.02200
H 	H 	0.07190 0.61320 0.01100 0.06900
H 	H 	0.78490 0.41070 0.89900 0.08300
H 	H 	0.43080 0.62130 0.51220 0.09000
H 	H 	0.08230 0.55400 0.91760 0.07400
H 	H 	0.86820 0.49380 0.88950 0.06700
H 	H 	0.88870 0.52730 0.81300 0.07400
H 	H 	0.10050 0.54170 0.82020 0.02700
H 	H 	0.59080 0.80940 0.51360 0.01500
H 	H 	0.39630 0.69880 0.48180 0.02000
H 	H 	0.13550 0.67130 0.29640 0.04100
H 	H 	0.66850 0.36980 0.87480 0.01400
H 	H 	0.83010 0.57840 0.06470 0.08300
H 	H 	0.04130 0.59940 0.18710 0.06800
H 	H 	0.23190 0.77930 0.21470 0.04300
H 	H 	0.71280 0.53520 0.03950 -0.00100
H 	H 	0.54000 0.62340 0.73000 0.08800
H 	H 	0.10840 0.13430 0.71380 0.06300
H 	H 	0.09700 0.94160 0.58250 0.06700
H 	H 	0.71510 0.90710 0.51410 0.02200
H 	H 	0.01100 0.07190 0.61320 0.06900
H 	H 	0.89900 0.78490 0.41070 0.08300
H 	H 	0.51220 0.43080 0.62130 0.09000
H 	H 	0.91760 0.08230 0.55400 0.07400
H 	H 	0.88950 0.86820 0.49380 0.06700
H 	H 	0.81300 0.88870 0.52730 0.07400
H 	H 	0.82020 0.10050 0.54170 0.02700
H 	H 	0.51360 0.59080 0.80940 0.01500
H 	H 	0.48180 0.39630 0.69880 0.02000
H 	H 	0.29640 0.13550 0.67130 0.04100
H 	H 	0.87480 0.66850 0.36980 0.01400
H 	H 	0.06470 0.83010 0.57840 0.08300
H 	H 	0.18710 0.04130 0.59940 0.06800
H 	H 	0.21470 0.23190 0.77930 0.04300
H 	H 	0.03950 0.71280 0.53520 -0.00100
H 	H 	0.27000 0.46000 0.37660 0.08800
H 	H 	0.28620 0.89160 0.86570 0.06300
H 	H 	0.41750 0.90300 0.05840 0.06700
H 	H 	0.48590 0.28490 0.09290 0.02200
H 	H 	0.38680 0.98900 0.92810 0.06900
H 	H 	0.58930 0.10100 0.21510 0.08300
H 	H 	0.37870 0.48780 0.56920 0.09000
H 	H 	0.44600 0.08240 0.91770 0.07400
H 	H 	0.50620 0.11050 0.13180 0.06700
H 	H 	0.47270 0.18700 0.11130 0.07400
H 	H 	0.45830 0.17980 0.89950 0.02700
H 	H 	0.19060 0.48640 0.40920 0.01500
H 	H 	0.30120 0.51820 0.60370 0.02000
H 	H 	0.32870 0.70360 0.86450 0.04100
H 	H 	0.63020 0.12520 0.33150 0.01400
H 	H 	0.42160 0.93530 0.16990 0.08300
H 	H 	0.40060 0.81290 0.95870 0.06800
H 	H 	0.22070 0.78530 0.76810 0.04300
H 	H 	0.46480 0.96050 0.28720 -0.00100
H 	H 	0.37660 0.27000 0.46000 0.08800
H 	H 	0.86570 0.28620 0.89160 0.06300
H 	H 	0.05840 0.41750 0.90300 0.06700
H 	H 	0.09290 0.48590 0.28490 0.02200
H 	H 	0.92810 0.38680 0.98900 0.06900
H 	H 	0.21510 0.58930 0.10100 0.08300
H 	H 	0.56920 0.37870 0.48780 0.09000
H 	H 	0.91770 0.44600 0.08240 0.07400
H 	H 	0.13180 0.50620 0.11050 0.06700
H 	H 	0.11130 0.47270 0.18700 0.07400
H 	H 	0.89950 0.45830 0.17980 0.02700
H 	H 	0.40920 0.19060 0.48640 0.01500
H 	H 	0.60370 0.30120 0.51820 0.02000
H 	H 	0.86450 0.32870 0.70360 0.04100
H 	H 	0.33150 0.63020 0.12520 0.01400
H 	H 	0.16990 0.42160 0.93530 0.08300
H 	H 	0.95870 0.40060 0.81290 0.06800
H 	H 	0.76810 0.22070 0.78530 0.04300
H 	H 	0.28720 0.46480 0.96050 -0.00100
H 	H 	0.46000 0.37660 0.27000 0.08800
H 	H 	0.89160 0.86570 0.28620 0.06300
H 	H 	0.90300 0.05840 0.41750 0.06700
H 	H 	0.28490 0.09290 0.48590 0.02200
H 	H 	0.98900 0.92810 0.38680 0.06900
H 	H 	0.10100 0.21510 0.58930 0.08300
H 	H 	0.48780 0.56920 0.37870 0.09000
H 	H 	0.08240 0.91770 0.44600 0.07400
H 	H 	0.11050 0.13180 0.50620 0.06700
H 	H 	0.18700 0.11130 0.47270 0.07400
H 	H 	0.17980 0.89950 0.45830 0.02700
H 	H 	0.48640 0.40920 0.19060 0.01500
H 	H 	0.51820 0.60370 0.30120 0.02000
H 	H 	0.70360 0.86450 0.32870 0.04100
H 	H 	0.12520 0.33150 0.63020 0.01400
H 	H 	0.93530 0.16990 0.42160 0.08300
H 	H 	0.81290 0.95870 0.40060 0.06800
H 	H 	0.78530 0.76810 0.22070 0.04300
H 	H 	0.96050 0.28720 0.46480 -0.00100
C 	C 	0.72434 0.52966 0.57820 -0.15300
C 	C 	0.70370 0.14550 0.13490 -0.09400
C 	C 	0.64884 0.13545 0.07831 0.03300
C 	C 	0.57396 0.05752 0.94912 -0.10700
C 	C 	0.52188 0.75561 0.94215 0.05900
C 	C 	0.59288 0.00607 0.02695 -0.10900
C 	C 	0.60351 0.06492 0.01687 0.04700
C 	C 	0.43729 0.92696 0.77085 -0.15000
C 	C 	0.50094 0.98191 0.81965 0.07400
C 	C 	0.53235 0.99242 0.89353 0.03000
C 	C 	0.65913 0.51262 0.46305 -0.15400
C 	C 	0.54646 0.87720 0.04714 -0.12500
C 	C 	0.78045 0.33762 0.25483 0.31200
C 	C 	0.52190 0.93356 0.90554 -0.10200
C 	C 	0.54367 0.87643 0.98404 0.05200
C 	C 	0.55286 0.93981 0.97243 0.04000
C 	C 	0.53046 0.81483 0.93141 -0.12200
C 	C 	0.81761 0.48328 0.47005 0.42100
C 	C 	0.53818 0.81848 0.05774 0.05800
C 	C 	0.52476 0.75694 0.00472 -0.14400
C 	C 	0.51638 0.69383 0.01729 0.43400
C 	C 	0.77174 0.51329 0.55857 0.07800
C 	C 	0.61996 0.55330 0.55382 -0.05200
C 	C 	0.70588 0.49471 0.44213 0.07800
C 	C 	0.59780 0.59733 0.53162 0.01600
C 	C 	0.66798 0.53092 0.53076 0.10100
C 	C 	0.76338 0.49625 0.49058 -0.15100
C 	C 	0.45065 0.95469 0.68026 -0.18000
C 	C 	0.73265 0.26721 0.19244 -0.08000
C 	C 	0.67922 0.25851 0.13607 0.01800
C 	C 	0.41234 0.91274 0.70112 0.09000
C 	C 	0.53682 0.02541 0.79787 -0.15200
C 	C 	0.63641 0.19276 0.07903 -0.09500
C 	C 	0.74440 0.20970 0.19290 0.01400
C 	C 	0.51049 0.01026 0.72715 0.09900
C 	C 	0.42391 0.93309 0.60170 0.47100
C 	C 	0.57820 0.72434 0.52966 -0.15300
C 	C 	0.13490 0.70370 0.14550 -0.09400
C 	C 	0.07831 0.64884 0.13545 0.03300
C 	C 	0.94912 0.57396 0.05752 -0.10700
C 	C 	0.94215 0.52188 0.75561 0.05900
C 	C 	0.02695 0.59288 0.00607 -0.10900
C 	C 	0.01687 0.60351 0.06492 0.04700
C 	C 	0.77085 0.43729 0.92696 -0.15000
C 	C 	0.81965 0.50094 0.98191 0.07400
C 	C 	0.89353 0.53235 0.99242 0.03000
C 	C 	0.46305 0.65913 0.51262 -0.15400
C 	C 	0.04714 0.54646 0.87720 -0.12500
C 	C 	0.25483 0.78045 0.33762 0.31200
C 	C 	0.90554 0.52190 0.93356 -0.10200
C 	C 	0.98404 0.54367 0.87643 0.05200
C 	C 	0.97243 0.55286 0.93981 0.04000
C 	C 	0.93141 0.53046 0.81483 -0.12200
C 	C 	0.47005 0.81761 0.48328 0.42100
C 	C 	0.05774 0.53818 0.81848 0.05800
C 	C 	0.00472 0.52476 0.75694 -0.14400
C 	C 	0.01729 0.51638 0.69383 0.43400
C 	C 	0.55857 0.77174 0.51329 0.07800
C 	C 	0.55382 0.61996 0.55330 -0.05200
C 	C 	0.44213 0.70588 0.49471 0.07800
C 	C 	0.53162 0.59780 0.59733 0.01600
C 	C 	0.53076 0.66798 0.53092 0.10100
C 	C 	0.49058 0.76338 0.49625 -0.15100
C 	C 	0.68026 0.45065 0.95469 -0.18000
C 	C 	0.19244 0.73265 0.26721 -0.08000
C 	C 	0.13607 0.67922 0.25851 0.01800
C 	C 	0.70112 0.41234 0.91274 0.09000
C 	C 	0.79787 0.53682 0.02541 -0.15200
C 	C 	0.07903 0.63641 0.19276 -0.09500
C 	C 	0.19290 0.74440 0.20970 0.01400
C 	C 	0.72715 0.51049 0.01026 0.09900
C 	C 	0.60170 0.42391 0.93309 0.47100
C 	C 	0.52966 0.57820 0.72434 -0.15300
C 	C 	0.14550 0.13490 0.70370 -0.09400
C 	C 	0.13545 0.07831 0.64884 0.03300
C 	C 	0.05752 0.94912 0.57396 -0.10700
C 	C 	0.75561 0.94215 0.52188 0.05900
C 	C 	0.00607 0.02695 0.59288 -0.10900
C 	C 	0.06492 0.01687 0.60351 0.04700
C 	C 	0.92696 0.77085 0.43729 -0.15000
C 	C 	0.98191 0.81965 0.50094 0.07400
C 	C 	0.99242 0.89353 0.53235 0.03000
C 	C 	0.51262 0.46305 0.65913 -0.15400
C 	C 	0.87720 0.04714 0.54646 -0.12500
C 	C 	0.33762 0.25483 0.78045 0.31200
C 	C 	0.93356 0.90554 0.52190 -0.10200
C 	C 	0.87643 0.98404 0.54367 0.05200
C 	C 	0.93981 0.97243 0.55286 0.04000
C 	C 	0.81483 0.93141 0.53046 -0.12200
C 	C 	0.48328 0.47005 0.81761 0.42100
C 	C 	0.81848 0.05774 0.53818 0.05800
C 	C 	0.75694 0.00472 0.52476 -0.14400
C 	C 	0.69383 0.01729 0.51638 0.43400
C 	C 	0.51329 0.55857 0.77174 0.07800
C 	C 	0.55330 0.55382 0.61996 -0.05200
C 	C 	0.49471 0.44213 0.70588 0.07800
C 	C 	0.59733 0.53162 0.59780 0.01600
C 	C 	0.53092 0.53076 0.66798 0.10100
C 	C 	0.49625 0.49058 0.76338 -0.15100
C 	C 	0.95469 0.68026 0.45065 -0.18000
C 	C 	0.26721 0.19244 0.73265 -0.08000
C 	C 	0.25851 0.13607 0.67922 0.01800
C 	C 	0.91274 0.70112 0.41234 0.09000
C 	C 	0.02541 0.79787 0.53682 -0.15200
C 	C 	0.19276 0.07903 0.63641 -0.09500
C 	C 	0.20970 0.19290 0.74440 0.01400
C 	C 	0.01026 0.72715 0.51049 0.09900
C 	C 	0.93309 0.60170 0.42391 0.47100
C 	C 	0.27566 0.47034 0.42180 -0.15300
C 	C 	0.29630 0.85450 0.86510 -0.09400
C 	C 	0.35116 0.86455 0.92169 0.03300
C 	C 	0.42604 0.94248 0.05088 -0.10700
C 	C 	0.47812 0.24439 0.05785 0.05900
C 	C 	0.40712 0.99393 0.97305 -0.10900
C 	C 	0.39649 0.93508 0.98313 0.04700
C 	C 	0.56271 0.07304 0.22915 -0.15000
C 	C 	0.49906 0.01809 0.18035 0.07400
C 	C 	0.46765 0.00758 0.10647 0.03000
C 	C 	0.34087 0.48738 0.53695 -0.15400
C 	C 	0.45354 0.12280 0.95286 -0.12500
C 	C 	0.21955 0.66238 0.74517 0.31200
C 	C 	0.47810 0.06644 0.09446 -0.10200
C 	C 	0.45633 0.12357 0.01596 0.05200
C 	C 	0.44714 0.06019 0.02757 0.04000
C 	C 	0.46954 0.18517 0.06859 -0.12200
C 	C 	0.18239 0.51672 0.52995 0.42100
C 	C 	0.46182 0.18152 0.94226 0.05800
C 	C 	0.47524 0.24306 0.99528 -0.14400
C 	C 	0.48362 0.30617 0.98271 0.43400
C 	C 	0.22826 0.48671 0.44143 0.07800
C 	C 	0.38004 0.44670 0.44618 -0.05200
C 	C 	0.29412 0.50529 0.55787 0.07800
C 	C 	0.40220 0.40267 0.46838 0.01600
C 	C 	0.33202 0.46908 0.46924 0.10100
C 	C 	0.23662 0.50375 0.50942 -0.15100
C 	C 	0.54935 0.04531 0.31974 -0.18000
C 	C 	0.26735 0.73279 0.80756 -0.08000
C 	C 	0.32078 0.74149 0.86393 0.01800
C 	C 	0.58766 0.08726 0.29888 0.09000
C 	C 	0.46318 0.97459 0.20213 -0.15200
C 	C 	0.36359 0.80724 0.92097 -0.09500
C 	C 	0.25560 0.79030 0.80710 0.01400
C 	C 	0.48951 0.98974 0.27285 0.09900
C 	C 	0.57609 0.06691 0.39830 0.47100
C 	C 	0.42180 0.27566 0.47034 -0.15300
C 	C 	0.86510 0.29630 0.85450 -0.09400
C 	C 	0.92169 0.35116 0.86455 0.03300
C 	C 	0.05088 0.42604 0.94248 -0.10700
C 	C 	0.05785 0.47812 0.24439 0.05900
C 	C 	0.97305 0.40712 0.99393 -0.10900
C 	C 	0.98313 0.39649 0.93508 0.04700
C 	C 	0.22915 0.56271 0.07304 -0.15000
C 	C 	0.18035 0.49906 0.01809 0.07400
C 	C 	0.10647 0.46765 0.00758 0.03000
C 	C 	0.53695 0.34087 0.48738 -0.15400
C 	C 	0.95286 0.45354 0.12280 -0.12500
C 	C 	0.74517 0.21955 0.66238 0.31200
C 	C 	0.09446 0.47810 0.06644 -0.10200
C 	C 	0.01596 0.45633 0.12357 0.05200
C 	C 	0.02757 0.44714 0.06019 0.04000
C 	C 	0.06859 0.46954 0.18517 -0.12200
C 	C 	0.52995 0.18239 0.51672 0.42100
C 	C 	0.94226 0.46182 0.18152 0.05800
C 	C 	0.99528 0.47524 0.24306 -0.14400
C 	C 	0.98271 0.48362 0.30617 0.43400
C 	C 	0.44143 0.22826 0.48671 0.07800
C 	C 	0.44618 0.38004 0.44670 -0.05200
C 	C 	0.55787 0.29412 0.50529 0.07800
C 	C 	0.46838 0.40220 0.40267 0.01600
C 	C 	0.46924 0.33202 0.46908 0.10100
C 	C 	0.50942 0.23662 0.50375 -0.15100
C 	C 	0.31974 0.54935 0.04531 -0.18000
C 	C 	0.80756 0.26735 0.73279 -0.08000
C 	C 	0.86393 0.32078 0.74149 0.01800
C 	C 	0.29888 0.58766 0.08726 0.09000
C 	C 	0.20213 0.46318 0.97459 -0.15200
C 	C 	0.92097 0.36359 0.80724 -0.09500
C 	C 	0.80710 0.25560 0.79030 0.01400
C 	C 	0.27285 0.48951 0.98974 0.09900
C 	C 	0.39830 0.57609 0.06691 0.47100
C 	C 	0.47034 0.42180 0.27566 -0.15300
C 	C 	0.85450 0.86510 0.29630 -0.09400
C 	C 	0.86455 0.92169 0.35116 0.03300
C 	C 	0.94248 0.05088 0.42604 -0.10700
C 	C 	0.24439 0.05785 0.47812 0.05900
C 	C 	0.99393 0.97305 0.40712 -0.10900
C 	C 	0.93508 0.98313 0.39649 0.04700
C 	C 	0.07304 0.22915 0.56271 -0.15000
C 	C 	0.01809 0.18035 0.49906 0.07400
C 	C 	0.00758 0.10647 0.46765 0.03000
C 	C 	0.48738 0.53695 0.34087 -0.15400
C 	C 	0.12280 0.95286 0.45354 -0.12500
C 	C 	0.66238 0.74517 0.21955 0.31200
C 	C 	0.06644 0.09446 0.47810 -0.10200
C 	C 	0.12357 0.01596 0.45633 0.05200
C 	C 	0.06019 0.02757 0.44714 0.04000
C 	C 	0.18517 0.06859 0.46954 -0.12200
C 	C 	0.51672 0.52995 0.18239 0.42100
C 	C 	0.18152 0.94226 0.46182 0.05800
C 	C 	0.24306 0.99528 0.47524 -0.14400
C 	C 	0.30617 0.98271 0.48362 0.43400
C 	C 	0.48671 0.44143 0.22826 0.07800
C 	C 	0.44670 0.44618 0.38004 -0.05200
C 	C 	0.50529 0.55787 0.29412 0.07800
C 	C 	0.40267 0.46838 0.40220 0.01600
C 	C 	0.46908 0.46924 0.33202 0.10100
C 	C 	0.50375 0.50942 0.23662 -0.15100
C 	C 	0.04531 0.31974 0.54935 -0.18000
C 	C 	0.73279 0.80756 0.26735 -0.08000
C 	C 	0.74149 0.86393 0.32078 0.01800
C 	C 	0.08726 0.29888 0.58766 0.09000
C 	C 	0.97459 0.20213 0.46318 -0.15200
C 	C 	0.80724 0.92097 0.36359 -0.09500
C 	C 	0.79030 0.80710 0.25560 0.01400
C 	C 	0.98974 0.27285 0.48951 0.09900
C 	C 	0.06691 0.39830 0.57609 0.47100
O 	O 	0.87656 0.50528 0.51792 -0.49800
O 	O 	0.49457 0.63743 0.96587 -0.48200
O 	O 	0.82891 0.34096 0.30437 -0.46100
O 	O 	0.77173 0.38943 0.25539 -0.43700
O 	O 	0.53135 0.70363 0.07916 -0.55100
O 	O 	0.79940 0.45300 0.40634 -0.56600
O 	O 	0.94980 0.44834 0.43259 -0.70900
O 	O 	0.45397 0.97853 0.58650 -0.55700
O 	O 	0.37727 0.87782 0.55901 -0.56900
O 	O 	0.51792 0.87656 0.50528 -0.49800
O 	O 	0.96587 0.49457 0.63743 -0.48200
O 	O 	0.30437 0.82891 0.34096 -0.46100
O 	O 	0.25539 0.77173 0.38943 -0.43700
O 	O 	0.07916 0.53135 0.70363 -0.55100
O 	O 	0.40634 0.79940 0.45300 -0.56600
O 	O 	0.43259 0.94980 0.44834 -0.70900
O 	O 	0.58650 0.45397 0.97853 -0.55700
O 	O 	0.55901 0.37727 0.87782 -0.56900
O 	O 	0.50528 0.51792 0.87656 -0.49800
O 	O 	0.63743 0.96587 0.49457 -0.48200
O 	O 	0.34096 0.30437 0.82891 -0.46100
O 	O 	0.38943 0.25539 0.77173 -0.43700
O 	O 	0.70363 0.07916 0.53135 -0.55100
O 	O 	0.45300 0.40634 0.79940 -0.56600
O 	O 	0.44834 0.43259 0.94980 -0.70900
O 	O 	0.97853 0.58650 0.45397 -0.55700
O 	O 	0.87782 0.55901 0.37727 -0.56900
O 	O 	0.12344 0.49472 0.48208 -0.49800
O 	O 	0.50543 0.36257 0.03413 -0.48200
O 	O 	0.17109 0.65904 0.69563 -0.46100
O 	O 	0.22827 0.61057 0.74461 -0.43700
O 	O 	0.46865 0.29637 0.92084 -0.55100
O 	O 	0.20060 0.54700 0.59366 -0.56600
O 	O 	0.05020 0.55166 0.56741 -0.70900
O 	O 	0.54603 0.02147 0.41350 -0.55700
O 	O 	0.62273 0.12218 0.44099 -0.56900
O 	O 	0.48208 0.12344 0.49472 -0.49800
O 	O 	0.03413 0.50543 0.36257 -0.48200
O 	O 	0.69563 0.17109 0.65904 -0.46100
O 	O 	0.74461 0.22827 0.61057 -0.43700
O 	O 	0.92084 0.46865 0.29637 -0.55100
O 	O 	0.59366 0.20060 0.54700 -0.56600
O 	O 	0.56741 0.05020 0.55166 -0.70900
O 	O 	0.41350 0.54603 0.02147 -0.55700
O 	O 	0.44099 0.62273 0.12218 -0.56900
O 	O 	0.49472 0.48208 0.12344 -0.49800
O 	O 	0.36257 0.03413 0.50543 -0.48200
O 	O 	0.65904 0.69563 0.17109 -0.46100
O 	O 	0.61057 0.74461 0.22827 -0.43700
O 	O 	0.29637 0.92084 0.46865 -0.55100
O 	O 	0.54700 0.59366 0.20060 -0.56600
O 	O 	0.55166 0.56741 0.05020 -0.70900
O 	O 	0.02147 0.41350 0.54603 -0.55700
O 	O 	0.12218 0.44099 0.62273 -0.56900
