data_crystal

_cell_length_a 6.78300
_cell_length_b 18.97400
_cell_length_c 9.39400
_cell_angle_alpha 90.00000
_cell_angle_beta  90.00000
_cell_angle_gamma 90.00000

_symmetry_space_group_name_	'P 1'
_symmetry_space_group_name_H-M	'P 1'

loop_
_symmetry_equiv_pos_as_xyz
  x,y,z

loop_
_atom_site_label
_atom_site_type_symbol
_atom_site_fract_x
_atom_site_fract_y
_atom_site_fract_z
_atom_site_charge
Ba	Ba	0.75000 0.75000 0.97294 1.84800
Ba	Ba	0.25000 0.25000 0.52706 1.55400
Ba	Ba	0.25000 0.25000 0.02706 1.25600
Ba	Ba	0.75000 0.75000 0.47294 1.58400
Co	Co	0.50000 0.50000 -0.00000 1.15300
Co	Co	-0.00000 0.00000 -0.00000 1.06300
Co	Co	-0.00000 0.50000 0.50000 1.16700
Co	Co	0.50000 -0.00000 0.50000 1.15600
H 	H 	0.64540 0.58450 0.40010 0.21500
H 	H 	0.43620 0.56970 0.33800 0.23000
H 	H 	0.85460 0.91550 0.40010 0.12400
H 	H 	0.06380 0.93030 0.33800 0.08100
H 	H 	0.14540 0.41550 0.09990 0.23600
H 	H 	0.93620 0.43030 0.16200 0.33900
H 	H 	0.35460 0.08450 0.09990 0.21800
H 	H 	0.56380 0.06970 0.16200 0.25600
H 	H 	0.35460 0.41550 0.59990 0.20700
H 	H 	0.56380 0.43030 0.66200 0.23900
H 	H 	0.14540 0.08450 0.59990 0.28700
H 	H 	0.93620 0.06970 0.66200 0.37800
H 	H 	0.85460 0.58450 0.90010 0.19300
H 	H 	0.06380 0.56970 0.83800 0.14600
H 	H 	0.64540 0.91550 0.90010 0.20600
H 	H 	0.43620 0.93030 0.83800 0.21600
C 	C 	0.61870 0.61570 0.19450 0.58100
C 	C 	0.57600 0.56650 0.31740 -0.75800
C 	C 	0.62670 0.48970 0.30320 0.55200
C 	C 	0.88130 0.88430 0.19450 0.47200
C 	C 	0.92400 0.93350 0.31740 -0.36600
C 	C 	0.87330 0.01030 0.30320 0.35000
C 	C 	0.11870 0.38430 0.30550 0.60700
C 	C 	0.07600 0.43350 0.18260 -0.95300
C 	C 	0.12670 0.51030 0.19680 0.59500
C 	C 	0.38130 0.11570 0.30550 0.59200
C 	C 	0.42400 0.06650 0.18260 -0.90900
C 	C 	0.37330 0.98970 0.19680 0.67700
C 	C 	0.38130 0.38430 0.80550 0.54300
C 	C 	0.42400 0.43350 0.68260 -0.73400
C 	C 	0.37330 0.51030 0.69680 0.53400
C 	C 	0.11870 0.11570 0.80550 0.63800
C 	C 	0.07600 0.06650 0.68260 -1.09100
C 	C 	0.12670 0.98970 0.69680 0.71900
C 	C 	0.88130 0.61570 0.69450 0.52600
C 	C 	0.92400 0.56650 0.81740 -0.56900
C 	C 	0.87330 0.48970 0.80320 0.49900
C 	C 	0.61870 0.88430 0.69450 0.53500
C 	C 	0.57600 0.93350 0.81740 -0.59200
C 	C 	0.62670 0.01030 0.80320 0.41600
O 	O 	0.61570 0.59368 0.06620 -0.63100
O 	O 	0.65080 0.67884 0.22330 -0.70200
O 	O 	0.57140 0.45585 0.19380 -0.51100
O 	O 	0.71970 0.46084 0.40220 -0.44900
O 	O 	0.88430 0.90632 0.06620 -0.53700
O 	O 	0.84920 0.82116 0.22330 -0.65400
O 	O 	0.92860 0.04415 0.19380 -0.44900
O 	O 	0.78030 0.03916 0.40220 -0.43600
O 	O 	0.11570 0.40632 0.43380 -0.59500
O 	O 	0.15080 0.32116 0.27670 -0.65800
O 	O 	0.07140 0.54415 0.30620 -0.55900
O 	O 	0.21970 0.53916 0.09780 -0.55200
O 	O 	0.38430 0.09368 0.43380 -0.59700
O 	O 	0.34920 0.17884 0.27670 -0.64000
O 	O 	0.42860 0.95585 0.30620 -0.50300
O 	O 	0.28030 0.96084 0.09780 -0.52700
O 	O 	0.38430 0.40632 0.93380 -0.47800
O 	O 	0.34920 0.32116 0.77670 -0.58500
O 	O 	0.42860 0.54415 0.80620 -0.47200
O 	O 	0.28030 0.53916 0.59780 -0.49000
O 	O 	0.11570 0.09368 0.93380 -0.53500
O 	O 	0.15080 0.17884 0.77670 -0.62900
O 	O 	0.07140 0.95585 0.80620 -0.50400
O 	O 	0.21970 0.96084 0.59780 -0.49600
O 	O 	0.88430 0.59368 0.56620 -0.52900
O 	O 	0.84920 0.67884 0.72330 -0.63800
O 	O 	0.92860 0.45585 0.69380 -0.43300
O 	O 	0.78030 0.46084 0.90220 -0.38800
O 	O 	0.61570 0.90632 0.56620 -0.52200
O 	O 	0.65080 0.82116 0.72330 -0.65200
O 	O 	0.57140 0.04415 0.69380 -0.48000
O 	O 	0.71970 0.03916 0.90220 -0.38500
