data_crystal

_cell_length_a 16.93810
_cell_length_b 16.93810
_cell_length_c 32.59800
_cell_angle_alpha 87.77340
_cell_angle_beta  87.77340
_cell_angle_gamma 70.32820

_symmetry_space_group_name_	'P 1'
_symmetry_space_group_name_H-M	'P 1'

loop_
_symmetry_equiv_pos_as_xyz
  x,y,z

loop_
_atom_site_label
_atom_site_type_symbol
_atom_site_fract_x
_atom_site_fract_y
_atom_site_fract_z
_atom_site_charge
Zn	Zn	0.31359 0.85593 0.44289 1.16400
Zn	Zn	0.85126 0.79706 0.19473 1.24800
Zn	Zn	0.85593 0.31359 0.94289 1.16400
Zn	Zn	0.79706 0.85126 0.69473 1.24800
H 	H 	0.29280 0.78320 0.29290 0.06500
H 	H 	0.43440 0.78420 0.29640 0.07000
H 	H 	0.62550 0.82370 0.41740 0.06100
H 	H 	0.60390 0.84630 0.49130 0.06000
H 	H 	0.34620 0.88680 0.59530 0.06700
H 	H 	0.20310 0.88570 0.59260 0.06300
H 	H 	0.01900 0.83900 0.47560 0.06000
H 	H 	0.04400 0.80880 0.40160 0.06500
H 	H 	0.07800 0.91180 0.32160 0.11000
H 	H 	0.99640 0.87960 0.27310 0.01200
H 	H 	0.12620 0.63860 0.28600 0.01300
H 	H 	0.20590 0.66770 0.33590 0.09900
H 	H 	0.99860 0.67240 0.20460 0.18500
H 	H 	0.50500 0.90620 0.31230 0.15000
H 	H 	0.61420 0.88540 0.26550 -0.02800
H 	H 	0.74290 0.67310 0.32220 0.00200
H 	H 	0.62980 0.69180 0.36870 0.10700
H 	H 	0.70770 0.87810 0.23620 0.22300
H 	H 	0.43910 0.99470 0.56040 0.10000
H 	H 	0.51700 0.00980 0.61690 0.00700
H 	H 	0.64750 0.76550 0.61330 0.00100
H 	H 	0.56880 0.75140 0.55970 0.10900
H 	H 	0.02430 0.98910 0.53890 0.10500
H 	H 	0.91760 0.99600 0.58530 -0.01200
H 	H 	0.01970 0.75450 0.61120 0.01100
H 	H 	0.12640 0.74260 0.56180 0.09900
H 	H 	0.78320 0.29280 0.79290 0.06500
H 	H 	0.78420 0.43440 0.79640 0.07000
H 	H 	0.82370 0.62550 0.91740 0.06100
H 	H 	0.84630 0.60390 0.99130 0.05900
H 	H 	0.88680 0.34620 0.09530 0.06700
H 	H 	0.88570 0.20310 0.09260 0.06300
H 	H 	0.83900 0.01900 0.97560 0.06000
H 	H 	0.80880 0.04400 0.90160 0.06500
H 	H 	0.91180 0.07800 0.82160 0.11000
H 	H 	0.87960 0.99640 0.77310 0.01200
H 	H 	0.63860 0.12620 0.78600 0.01300
H 	H 	0.66770 0.20590 0.83590 0.09900
H 	H 	0.67240 0.99860 0.70460 0.18400
H 	H 	0.90620 0.50500 0.81230 0.15000
H 	H 	0.88540 0.61420 0.76550 -0.02800
H 	H 	0.67310 0.74290 0.82220 0.00200
H 	H 	0.69180 0.62980 0.86870 0.10700
H 	H 	0.87810 0.70770 0.73620 0.22300
H 	H 	0.99470 0.43910 0.06040 0.10100
H 	H 	0.00980 0.51700 0.11690 0.00600
H 	H 	0.76550 0.64750 0.11330 0.00100
H 	H 	0.75140 0.56880 0.05970 0.10900
H 	H 	0.98910 0.02430 0.03890 0.10500
H 	H 	0.99600 0.91760 0.08530 -0.01200
H 	H 	0.75450 0.01970 0.11120 0.01100
H 	H 	0.74260 0.12640 0.06180 0.09900
C 	C 	0.16136 0.82396 0.40680 0.10500
C 	C 	0.19901 0.81001 0.36784 -0.15900
C 	C 	0.27920 0.80680 0.35672 0.10700
C 	C 	0.31800 0.79200 0.31635 -0.07800
C 	C 	0.39560 0.79280 0.31820 -0.07800
C 	C 	0.40960 0.80920 0.36017 0.11300
C 	C 	0.48418 0.81198 0.37437 -0.17100
C 	C 	0.49996 0.82276 0.41644 0.09700
C 	C 	0.57655 0.82835 0.43258 -0.08400
C 	C 	0.56480 0.84140 0.47321 -0.08900
C 	C 	0.48053 0.84613 0.48306 0.10000
C 	C 	0.44143 0.86143 0.52207 -0.16600
C 	C 	0.35977 0.86677 0.53181 0.10700
C 	C 	0.32040 0.87960 0.57177 -0.08900
C 	C 	0.24170 0.87950 0.57078 -0.08100
C 	C 	0.23003 0.86763 0.52818 0.10200
C 	C 	0.15586 0.85966 0.51408 -0.16300
C 	C 	0.14164 0.84544 0.47362 0.10100
C 	C 	0.06714 0.83554 0.45996 -0.08800
C 	C 	0.08106 0.82006 0.41886 -0.08700
C 	C 	0.14593 0.79493 0.33456 0.16000
C 	C 	0.08750 0.85610 0.31532 -0.20500
C 	C 	0.03980 0.83680 0.28526 0.10300
C 	C 	0.05625 0.75665 0.27384 -0.16100
C 	C 	0.11630 0.69390 0.29310 0.10500
C 	C 	0.16350 0.71090 0.32330 -0.19400
C 	C 	0.00100 0.74180 0.24136 0.39200
C 	C 	0.55370 0.80130 0.34513 0.19700
C 	C 	0.55190 0.85810 0.31460 -0.25800
C 	C 	0.61840 0.84600 0.28674 0.16400
C 	C 	0.68876 0.77916 0.28953 -0.19800
C 	C 	0.69480 0.72000 0.31992 0.12700
C 	C 	0.62640 0.73180 0.34782 -0.22000
C 	C 	0.76410 0.76370 0.25995 0.37400
C 	C 	0.49692 0.86952 0.55622 0.17000
C 	C 	0.48050 0.94850 0.57161 -0.20000
C 	C 	0.52855 0.95775 0.60514 0.09500
C 	C 	0.59280 0.88820 0.62007 -0.18100
C 	C 	0.60560 0.81260 0.60312 0.12700
C 	C 	0.55790 0.80370 0.57094 -0.22700
C 	C 	0.64380 0.90080 0.65337 0.40200
C 	C 	0.08516 0.86756 0.54452 0.16000
C 	C 	0.02370 0.94030 0.55283 -0.22200
C 	C 	0.95990 0.94490 0.58115 0.12400
C 	C 	0.95837 0.87597 0.60302 -0.17400
C 	C 	0.02030 0.80190 0.59598 0.10200
C 	C 	0.08510 0.79410 0.56658 -0.19300
C 	C 	0.89220 0.87780 0.63455 0.34900
C 	C 	0.82396 0.16136 0.90680 0.10500
C 	C 	0.81001 0.19901 0.86784 -0.15900
C 	C 	0.80680 0.27920 0.85672 0.10700
C 	C 	0.79200 0.31800 0.81635 -0.07800
C 	C 	0.79280 0.39560 0.81820 -0.07800
C 	C 	0.80920 0.40960 0.86017 0.11300
C 	C 	0.81198 0.48418 0.87437 -0.17100
C 	C 	0.82276 0.49996 0.91644 0.09700
C 	C 	0.82835 0.57655 0.93258 -0.08400
C 	C 	0.84140 0.56480 0.97321 -0.08900
C 	C 	0.84613 0.48053 0.98306 0.09900
C 	C 	0.86143 0.44143 0.02207 -0.16500
C 	C 	0.86677 0.35977 0.03181 0.10700
C 	C 	0.87960 0.32040 0.07177 -0.08900
C 	C 	0.87950 0.24170 0.07078 -0.08100
C 	C 	0.86763 0.23003 0.02818 0.10200
C 	C 	0.85966 0.15586 0.01408 -0.16200
C 	C 	0.84544 0.14164 0.97362 0.10100
C 	C 	0.83554 0.06714 0.95996 -0.08700
C 	C 	0.82006 0.08106 0.91886 -0.08700
C 	C 	0.79493 0.14593 0.83456 0.16000
C 	C 	0.85610 0.08750 0.81532 -0.20600
C 	C 	0.83680 0.03980 0.78526 0.10300
C 	C 	0.75665 0.05625 0.77384 -0.16100
C 	C 	0.69390 0.11630 0.79310 0.10500
C 	C 	0.71090 0.16350 0.82330 -0.19400
C 	C 	0.74180 0.00100 0.74136 0.39200
C 	C 	0.80130 0.55370 0.84513 0.19700
C 	C 	0.85810 0.55190 0.81460 -0.25800
C 	C 	0.84600 0.61840 0.78674 0.16400
C 	C 	0.77916 0.68876 0.78953 -0.19800
C 	C 	0.72000 0.69480 0.81992 0.12700
C 	C 	0.73180 0.62640 0.84782 -0.22000
C 	C 	0.76370 0.76410 0.75995 0.37400
C 	C 	0.86952 0.49692 0.05622 0.17000
C 	C 	0.94850 0.48050 0.07161 -0.20100
C 	C 	0.95775 0.52855 0.10514 0.09600
C 	C 	0.88820 0.59280 0.12007 -0.18200
C 	C 	0.81260 0.60560 0.10312 0.12700
C 	C 	0.80370 0.55790 0.07094 -0.22700
C 	C 	0.90080 0.64380 0.15337 0.40200
C 	C 	0.86756 0.08516 0.04452 0.15900
C 	C 	0.94030 0.02370 0.05283 -0.22200
C 	C 	0.94490 0.95990 0.08115 0.12300
C 	C 	0.87597 0.95837 0.10302 -0.17400
C 	C 	0.80190 0.02030 0.09598 0.10200
C 	C 	0.79410 0.08510 0.06658 -0.19300
C 	C 	0.87780 0.89220 0.13455 0.34900
N 	N 	0.33656 0.81896 0.38293 -0.28400
N 	N 	0.44031 0.83531 0.44826 -0.28200
N 	N 	0.30127 0.86087 0.50547 -0.29200
N 	N 	0.20024 0.83704 0.44140 -0.28500
N 	N 	0.81896 0.33656 0.88293 -0.28400
N 	N 	0.83531 0.44031 0.94826 -0.28200
N 	N 	0.86087 0.30127 0.00547 -0.29100
N 	N 	0.83704 0.20024 0.94140 -0.28500
O 	O 	0.02017 0.66377 0.23243 -0.37200
O 	O 	0.94520 0.80100 0.22627 -0.47000
O 	O 	0.82601 0.70121 0.26108 -0.31100
O 	O 	0.75372 0.82712 0.23240 -0.57400
O 	O 	0.70775 0.84215 0.66137 -0.46500
O 	O 	0.61970 0.96990 0.67102 -0.32300
O 	O 	0.90117 0.82097 0.66098 -0.43700
O 	O 	0.82278 0.93978 0.63240 -0.33700
O 	O 	0.66377 0.02017 0.73243 -0.37200
O 	O 	0.80100 0.94520 0.72627 -0.47000
O 	O 	0.70121 0.82601 0.76108 -0.31100
O 	O 	0.82712 0.75372 0.73240 -0.57400
O 	O 	0.84215 0.70775 0.16137 -0.46600
O 	O 	0.96990 0.61970 0.17102 -0.32300
O 	O 	0.82097 0.90117 0.16098 -0.43700
O 	O 	0.93978 0.82278 0.13240 -0.33700
Zn	Zn	0.14407 0.68641 0.05711 1.16500
Zn	Zn	0.20294 0.14874 0.30527 1.24900
Zn	Zn	0.68641 0.14407 0.55711 1.16500
Zn	Zn	0.14874 0.20294 0.80527 1.24900
H 	H 	0.21680 0.70720 0.20710 0.06500
H 	H 	0.21580 0.56560 0.20360 0.07000
H 	H 	0.17630 0.37450 0.08260 0.06100
H 	H 	0.15370 0.39610 0.00870 0.05900
H 	H 	0.11320 0.65380 0.90470 0.06700
H 	H 	0.11430 0.79690 0.90740 0.06300
H 	H 	0.16100 0.98100 0.02440 0.06000
H 	H 	0.19120 0.95600 0.09840 0.06500
H 	H 	0.08820 0.92200 0.17840 0.11000
H 	H 	0.12040 0.00360 0.22690 0.01200
H 	H 	0.36140 0.87380 0.21400 0.01300
H 	H 	0.33230 0.79410 0.16410 0.09900
H 	H 	0.32760 0.00140 0.29540 0.18400
H 	H 	0.09380 0.49500 0.18770 0.15000
H 	H 	0.11460 0.38580 0.23450 -0.02800
H 	H 	0.32690 0.25710 0.17780 0.00200
H 	H 	0.30820 0.37020 0.13130 0.10700
H 	H 	0.12190 0.29230 0.26380 0.22300
H 	H 	0.00530 0.56090 0.93960 0.10100
H 	H 	0.99020 0.48300 0.88310 0.00600
H 	H 	0.23450 0.35250 0.88670 0.00100
H 	H 	0.24860 0.43120 0.94030 0.10900
H 	H 	0.01090 0.97570 0.96110 0.10500
H 	H 	0.00400 0.08240 0.91470 -0.01200
H 	H 	0.24550 0.98030 0.88880 0.01100
H 	H 	0.25740 0.87360 0.93820 0.09900
H 	H 	0.70720 0.21680 0.70710 0.06500
H 	H 	0.56560 0.21580 0.70360 0.07000
H 	H 	0.37450 0.17630 0.58260 0.06100
H 	H 	0.39610 0.15370 0.50870 0.06000
H 	H 	0.65380 0.11320 0.40470 0.06700
H 	H 	0.79690 0.11430 0.40740 0.06300
H 	H 	0.98100 0.16100 0.52440 0.06000
H 	H 	0.95600 0.19120 0.59840 0.06500
H 	H 	0.92200 0.08820 0.67840 0.11000
H 	H 	0.00360 0.12040 0.72690 0.01200
H 	H 	0.87380 0.36140 0.71400 0.01300
H 	H 	0.79410 0.33230 0.66410 0.09900
H 	H 	0.00140 0.32760 0.79540 0.18500
H 	H 	0.49500 0.09380 0.68770 0.15000
H 	H 	0.38580 0.11460 0.73450 -0.02800
H 	H 	0.25710 0.32690 0.67780 0.00200
H 	H 	0.37020 0.30820 0.63130 0.10700
H 	H 	0.29230 0.12190 0.76380 0.22300
H 	H 	0.56090 0.00530 0.43960 0.10000
H 	H 	0.48300 0.99020 0.38310 0.00700
H 	H 	0.35250 0.23450 0.38670 0.00100
H 	H 	0.43120 0.24860 0.44030 0.10900
H 	H 	0.97570 0.01090 0.46110 0.10500
H 	H 	0.08240 0.00400 0.41470 -0.01200
H 	H 	0.98030 0.24550 0.38880 0.01100
H 	H 	0.87360 0.25740 0.43820 0.09900
C 	C 	0.17604 0.83864 0.09320 0.10500
C 	C 	0.18999 0.80099 0.13216 -0.15900
C 	C 	0.19320 0.72080 0.14328 0.10700
C 	C 	0.20800 0.68200 0.18365 -0.07800
C 	C 	0.20720 0.60440 0.18180 -0.07800
C 	C 	0.19080 0.59040 0.13983 0.11300
C 	C 	0.18802 0.51582 0.12563 -0.17100
C 	C 	0.17724 0.50004 0.08356 0.09700
C 	C 	0.17165 0.42345 0.06742 -0.08400
C 	C 	0.15860 0.43520 0.02679 -0.08900
C 	C 	0.15387 0.51947 0.01694 0.09900
C 	C 	0.13857 0.55857 0.97793 -0.16500
C 	C 	0.13323 0.64023 0.96819 0.10700
C 	C 	0.12040 0.67960 0.92823 -0.08900
C 	C 	0.12050 0.75830 0.92922 -0.08100
C 	C 	0.13237 0.76997 0.97182 0.10200
C 	C 	0.14034 0.84414 0.98592 -0.16200
C 	C 	0.15456 0.85836 0.02638 0.10100
C 	C 	0.16446 0.93286 0.04004 -0.08700
C 	C 	0.17994 0.91894 0.08114 -0.08700
C 	C 	0.20507 0.85407 0.16544 0.16000
C 	C 	0.14390 0.91250 0.18468 -0.20600
C 	C 	0.16320 0.96020 0.21474 0.10300
C 	C 	0.24335 0.94375 0.22616 -0.16100
C 	C 	0.30610 0.88370 0.20690 0.10500
C 	C 	0.28910 0.83650 0.17670 -0.19400
C 	C 	0.25820 0.99900 0.25864 0.39200
C 	C 	0.19870 0.44630 0.15487 0.19700
C 	C 	0.14190 0.44810 0.18540 -0.25800
C 	C 	0.15400 0.38160 0.21326 0.16400
C 	C 	0.22084 0.31124 0.21047 -0.19800
C 	C 	0.28000 0.30520 0.18008 0.12700
C 	C 	0.26820 0.37360 0.15218 -0.22000
C 	C 	0.23630 0.23590 0.24005 0.37400
C 	C 	0.13048 0.50308 0.94378 0.17000
C 	C 	0.05150 0.51950 0.92839 -0.20100
C 	C 	0.04225 0.47145 0.89486 0.09600
C 	C 	0.11180 0.40720 0.87993 -0.18200
C 	C 	0.18740 0.39440 0.89688 0.12700
C 	C 	0.19630 0.44210 0.92906 -0.22700
C 	C 	0.09920 0.35620 0.84663 0.40200
C 	C 	0.13244 0.91484 0.95548 0.15900
C 	C 	0.05970 0.97630 0.94717 -0.22200
C 	C 	0.05510 0.04010 0.91885 0.12300
C 	C 	0.12403 0.04163 0.89698 -0.17400
C 	C 	0.19810 0.97970 0.90402 0.10200
C 	C 	0.20590 0.91490 0.93342 -0.19300
C 	C 	0.12220 0.10780 0.86545 0.34900
C 	C 	0.83864 0.17604 0.59320 0.10500
C 	C 	0.80099 0.18999 0.63216 -0.15900
C 	C 	0.72080 0.19320 0.64328 0.10700
C 	C 	0.68200 0.20800 0.68365 -0.07800
C 	C 	0.60440 0.20720 0.68180 -0.07800
C 	C 	0.59040 0.19080 0.63983 0.11300
C 	C 	0.51582 0.18802 0.62563 -0.17100
C 	C 	0.50004 0.17724 0.58356 0.09700
C 	C 	0.42345 0.17165 0.56742 -0.08400
C 	C 	0.43520 0.15860 0.52679 -0.08900
C 	C 	0.51947 0.15387 0.51694 0.10000
C 	C 	0.55857 0.13857 0.47793 -0.16600
C 	C 	0.64023 0.13323 0.46819 0.10700
C 	C 	0.67960 0.12040 0.42823 -0.08900
C 	C 	0.75830 0.12050 0.42922 -0.08100
C 	C 	0.76997 0.13237 0.47182 0.10200
C 	C 	0.84414 0.14034 0.48592 -0.16300
C 	C 	0.85836 0.15456 0.52638 0.10100
C 	C 	0.93286 0.16446 0.54004 -0.08800
C 	C 	0.91894 0.17994 0.58114 -0.08700
C 	C 	0.85407 0.20507 0.66544 0.16000
C 	C 	0.91250 0.14390 0.68468 -0.20500
C 	C 	0.96020 0.16320 0.71474 0.10300
C 	C 	0.94375 0.24335 0.72616 -0.16100
C 	C 	0.88370 0.30610 0.70690 0.10500
C 	C 	0.83650 0.28910 0.67670 -0.19400
C 	C 	0.99900 0.25820 0.75864 0.39200
C 	C 	0.44630 0.19870 0.65487 0.19700
C 	C 	0.44810 0.14190 0.68540 -0.25800
C 	C 	0.38160 0.15400 0.71326 0.16400
C 	C 	0.31124 0.22084 0.71047 -0.19800
C 	C 	0.30520 0.28000 0.68008 0.12700
C 	C 	0.37360 0.26820 0.65218 -0.22000
C 	C 	0.23590 0.23630 0.74005 0.37400
C 	C 	0.50308 0.13048 0.44378 0.17000
C 	C 	0.51950 0.05150 0.42839 -0.20000
C 	C 	0.47145 0.04225 0.39486 0.09500
C 	C 	0.40720 0.11180 0.37993 -0.18100
C 	C 	0.39440 0.18740 0.39688 0.12700
C 	C 	0.44210 0.19630 0.42906 -0.22700
C 	C 	0.35620 0.09920 0.34663 0.40200
C 	C 	0.91484 0.13244 0.45548 0.16000
C 	C 	0.97630 0.05970 0.44717 -0.22200
C 	C 	0.04010 0.05510 0.41885 0.12400
C 	C 	0.04163 0.12403 0.39698 -0.17400
C 	C 	0.97970 0.19810 0.40402 0.10200
C 	C 	0.91490 0.20590 0.43342 -0.19300
C 	C 	0.10780 0.12220 0.36545 0.34900
N 	N 	0.18104 0.66344 0.11707 -0.28400
N 	N 	0.16469 0.55969 0.05174 -0.28200
N 	N 	0.13913 0.69873 0.99453 -0.29100
N 	N 	0.16296 0.79976 0.05860 -0.28500
N 	N 	0.66344 0.18104 0.61707 -0.28400
N 	N 	0.55969 0.16469 0.55174 -0.28200
N 	N 	0.69873 0.13913 0.49453 -0.29200
N 	N 	0.79976 0.16296 0.55860 -0.28500
O 	O 	0.33623 0.97983 0.26757 -0.37200
O 	O 	0.19900 0.05480 0.27373 -0.47000
O 	O 	0.29879 0.17399 0.23892 -0.31100
O 	O 	0.17288 0.24628 0.26760 -0.57400
O 	O 	0.15785 0.29225 0.83863 -0.46600
O 	O 	0.03010 0.38030 0.82898 -0.32300
O 	O 	0.17903 0.09883 0.83902 -0.43700
O 	O 	0.06022 0.17722 0.86760 -0.33700
O 	O 	0.97983 0.33623 0.76757 -0.37200
O 	O 	0.05480 0.19900 0.77373 -0.47000
O 	O 	0.17399 0.29879 0.73892 -0.31100
O 	O 	0.24628 0.17288 0.76760 -0.57400
O 	O 	0.29225 0.15785 0.33863 -0.46500
O 	O 	0.38030 0.03010 0.32898 -0.32300
O 	O 	0.09883 0.17903 0.33902 -0.43700
O 	O 	0.17722 0.06022 0.36760 -0.33700
