data_crystal

_cell_length_a 11.21700
_cell_length_b 11.21700
_cell_length_c 11.21700
_cell_angle_alpha 90.00000
_cell_angle_beta  90.00000
_cell_angle_gamma 90.00000

_symmetry_space_group_name_	'P 1'
_symmetry_space_group_name_H-M	'P 1'

loop_
_symmetry_equiv_pos_as_xyz
  x,y,z

loop_
_atom_site_label
_atom_site_type_symbol
_atom_site_fract_x
_atom_site_fract_y
_atom_site_fract_z
_atom_site_charge
Co	Co	0.50000 0.50000 -0.00000 1.14100
Co	Co	0.00000 0.50000 0.50000 1.14200
Co	Co	0.50000 0.00000 0.50000 1.14200
Co	Co	-0.00000 0.00000 -0.00000 1.09500
Sr	Sr	0.50000 0.00000 -0.00000 1.46500
Sr	Sr	0.50000 0.50000 0.50000 1.49500
Sr	Sr	-0.00000 0.50000 -0.00000 1.46500
Sr	Sr	0.00000 0.00000 0.50000 1.46500
C 	C 	0.50000 0.66850 -0.00000 -0.24000
N 	N 	0.50000 0.76980 -0.00000 -0.17500
C 	C 	0.50000 0.16850 0.50000 -0.20700
N 	N 	0.50000 0.26980 0.50000 -0.19900
C 	C 	0.50000 0.33150 -0.00000 -0.26300
N 	N 	0.50000 0.23020 -0.00000 -0.22500
C 	C 	0.50000 0.83150 0.50000 -0.07600
N 	N 	0.50000 0.73020 0.50000 -0.20600
C 	C 	0.00000 0.33150 0.50000 -0.26300
N 	N 	0.00000 0.23020 0.50000 -0.22500
C 	C 	-0.00000 0.16850 -0.00000 -0.31100
N 	N 	-0.00000 0.26980 -0.00000 -0.24200
C 	C 	0.00000 0.50000 0.66850 -0.24000
N 	N 	-0.00000 0.50000 0.76980 -0.17500
C 	C 	0.00000 -0.00000 0.16850 -0.31100
N 	N 	-0.00000 -0.00000 0.26980 -0.24200
C 	C 	0.00000 0.50000 0.33150 -0.26300
N 	N 	0.00000 0.50000 0.23020 -0.22500
C 	C 	0.00000 0.00000 0.83150 -0.17400
N 	N 	-0.00000 -0.00000 0.73020 -0.24900
C 	C 	0.50000 0.00000 0.33150 -0.26300
N 	N 	0.50000 0.00000 0.23020 -0.22500
C 	C 	0.50000 0.50000 0.83150 -0.07600
N 	N 	0.50000 0.50000 0.73020 -0.20600
C 	C 	0.66850 0.00000 0.50000 -0.24000
N 	N 	0.76980 0.00000 0.50000 -0.17500
C 	C 	0.16850 0.00000 -0.00000 -0.31100
N 	N 	0.26980 0.00000 -0.00000 -0.24200
C 	C 	0.16850 0.50000 0.50000 -0.20700
N 	N 	0.26980 0.50000 0.50000 -0.19900
C 	C 	0.33150 0.00000 0.50000 -0.26300
N 	N 	0.23020 0.00000 0.50000 -0.22500
C 	C 	0.83150 0.00000 -0.00000 -0.17400
N 	N 	0.73020 0.00000 -0.00000 -0.24900
C 	C 	0.66850 0.50000 -0.00000 -0.24000
N 	N 	0.76980 0.50000 -0.00000 -0.17500
C 	C 	0.33150 0.50000 -0.00000 -0.26300
N 	N 	0.23020 0.50000 -0.00000 -0.22500
C 	C 	0.83150 0.50000 0.50000 -0.07600
N 	N 	0.73020 0.50000 0.50000 -0.20600
C 	C 	0.50000 0.00000 0.66850 -0.24000
N 	N 	0.50000 -0.00000 0.76980 -0.17500
C 	C 	0.50000 0.50000 0.16850 -0.20700
N 	N 	0.50000 0.50000 0.26980 -0.19900
C 	C 	0.00000 0.66850 0.50000 -0.24000
N 	N 	-0.00000 0.76980 0.50000 -0.17500
C 	C 	-0.00000 0.83150 -0.00000 -0.17400
N 	N 	-0.00000 0.73020 -0.00000 -0.24900
