data_crystal

_cell_length_a 7.71580
_cell_length_b 16.21800
_cell_length_c 11.26600
_cell_angle_alpha 90.00000
_cell_angle_beta  90.72000
_cell_angle_gamma 90.00000

_symmetry_space_group_name_	'P 1'
_symmetry_space_group_name_H-M	'P 1'

loop_
_symmetry_equiv_pos_as_xyz
  x,y,z

loop_
_atom_site_label
_atom_site_type_symbol
_atom_site_fract_x
_atom_site_fract_y
_atom_site_fract_z
_atom_site_charge
C 	C 	0.60170 0.55080 0.29150 -0.24900
C 	C 	0.55190 0.07290 0.20780 -0.24900
C 	C 	0.74660 0.13740 0.03360 -0.20900
C 	C 	0.94110 0.21610 0.20270 -0.23300
C 	C 	0.75200 0.14980 0.37030 -0.26400
C 	C 	0.59700 0.23630 0.19930 -0.22700
Co	Co	0.74800 0.14366 0.20326 1.16200
N 	N 	0.51020 0.49520 0.28870 -0.19700
N 	N 	0.43340 0.03010 0.21020 -0.20100
N 	N 	0.74730 0.13250 0.93410 -0.19300
N 	N 	0.05680 0.26010 0.20580 -0.19700
N 	N 	0.75320 0.15460 0.47250 -0.21100
N 	N 	0.50490 0.29160 0.20030 -0.20500
Sr	Sr	0.24772 0.40085 0.19784 1.47100
C 	C 	0.89830 0.05080 0.20850 -0.25000
C 	C 	0.94810 0.57290 0.29220 -0.24700
C 	C 	0.75340 0.63740 0.46640 -0.21300
C 	C 	0.55890 0.71610 0.29730 -0.23500
C 	C 	0.74800 0.64980 0.12970 -0.26300
C 	C 	0.90300 0.73630 0.30070 -0.22700
Co	Co	0.75200 0.64366 0.29674 1.16200
N 	N 	0.98980 0.99520 0.21130 -0.19400
N 	N 	0.06660 0.53010 0.28980 -0.20300
N 	N 	0.75270 0.63250 0.56590 -0.18900
N 	N 	0.44320 0.76010 0.29420 -0.19600
N 	N 	0.74680 0.65460 0.02750 -0.21000
N 	N 	0.99510 0.79160 0.29970 -0.20300
Sr	Sr	0.25228 0.90085 0.30216 1.47000
C 	C 	0.39830 0.44920 0.70850 -0.24900
C 	C 	0.44810 0.92710 0.79220 -0.24900
C 	C 	0.25340 0.86260 0.96640 -0.20900
C 	C 	0.05890 0.78390 0.79730 -0.23300
C 	C 	0.24800 0.85020 0.62970 -0.26400
C 	C 	0.40300 0.76370 0.80070 -0.22700
Co	Co	0.25200 0.85634 0.79674 1.16200
N 	N 	0.48980 0.50480 0.71130 -0.19700
N 	N 	0.56660 0.96990 0.78980 -0.20100
N 	N 	0.25270 0.86750 0.06590 -0.19300
N 	N 	0.94320 0.73990 0.79420 -0.19700
N 	N 	0.24680 0.84540 0.52750 -0.21100
N 	N 	0.49510 0.70840 0.79970 -0.20500
Sr	Sr	0.75228 0.59915 0.80216 1.47100
C 	C 	0.10170 0.94920 0.79150 -0.25000
C 	C 	0.05190 0.42710 0.70780 -0.24700
C 	C 	0.24660 0.36260 0.53360 -0.21300
C 	C 	0.44110 0.28390 0.70270 -0.23500
C 	C 	0.25200 0.35020 0.87030 -0.26300
C 	C 	0.09700 0.26370 0.69930 -0.22700
Co	Co	0.24800 0.35634 0.70326 1.16200
N 	N 	0.01020 0.00480 0.78870 -0.19400
N 	N 	0.93340 0.46990 0.71020 -0.20300
N 	N 	0.24730 0.36750 0.43410 -0.18900
N 	N 	0.55680 0.23990 0.70580 -0.19600
N 	N 	0.25320 0.34540 0.97250 -0.21000
N 	N 	0.00490 0.20840 0.70030 -0.20300
Sr	Sr	0.74772 0.09915 0.69784 1.47000
