data_crystal

_cell_length_a 8.66310
_cell_length_b 14.24220
_cell_length_c 14.54970
_cell_angle_alpha 113.51300
_cell_angle_beta  107.32000
_cell_angle_gamma 90.00000

_symmetry_space_group_name_	'P 1'
_symmetry_space_group_name_H-M	'P 1'

loop_
_symmetry_equiv_pos_as_xyz
  x,y,z

loop_
_atom_site_label
_atom_site_type_symbol
_atom_site_fract_x
_atom_site_fract_y
_atom_site_fract_z
_atom_site_charge
Nd	Nd	0.11549 0.00502 0.54716 2.25100
Nd	Nd	0.56833 0.99498 0.45284 2.30900
H 	H 	0.11030 0.29280 0.48700 -0.00200
H 	H 	0.09510 0.44910 0.47320 0.10600
H 	H 	0.61690 0.36550 0.31340 0.09500
H 	H 	0.62830 0.21210 0.33280 -0.03500
H 	H 	0.02770 0.60960 0.52140 -0.00000
H 	H 	0.99530 0.77020 0.52160 -0.00300
H 	H 	0.62290 0.64200 0.24960 0.03100
H 	H 	0.65590 0.47980 0.24700 0.04800
H 	H 	0.35260 0.71290 0.22440 0.01300
H 	H 	0.27660 0.55720 0.07580 0.05300
H 	H 	0.81010 0.57530 0.05740 0.04900
H 	H 	0.88610 0.73090 0.20540 0.01200
H 	H 	0.62330 0.70720 0.51300 -0.00100
H 	H 	0.62190 0.55090 0.52680 0.08700
H 	H 	0.30350 0.63450 0.68660 0.07600
H 	H 	0.29550 0.78790 0.66720 -0.03500
H 	H 	0.50630 0.39040 0.47860 0.07800
H 	H 	0.47370 0.22980 0.47840 -0.04900
H 	H 	0.37330 0.35800 0.75040 0.01000
H 	H 	0.40890 0.52020 0.75300 0.06800
H 	H 	0.12820 0.28710 0.77560 0.00000
H 	H 	0.20080 0.44280 0.92420 0.09900
H 	H 	0.75270 0.42470 0.94260 0.09500
H 	H 	0.68070 0.26910 0.79460 -0.00200
C 	C 	0.87754 0.13850 0.42788 0.58700
C 	C 	0.86982 0.23740 0.41364 -0.20700
C 	C 	0.01040 0.30820 0.45400 0.09200
C 	C 	0.00110 0.40180 0.44460 -0.23600
C 	C 	0.85313 0.42580 0.39326 0.15900
C 	C 	0.71570 0.35220 0.35020 -0.20800
C 	C 	0.72232 0.25930 0.36084 0.14000
C 	C 	0.84020 0.52740 0.38680 -0.03300
C 	C 	0.94440 0.61590 0.46740 -0.00400
C 	C 	0.92490 0.71240 0.46760 0.01400
C 	C 	0.80158 0.72360 0.38816 -0.11400
C 	C 	0.70289 0.63550 0.30498 0.01300
C 	C 	0.72200 0.53790 0.30360 -0.06500
C 	C 	0.76098 0.82820 0.39576 0.38700
C 	C 	0.17835 0.83880 0.32530 0.52100
C 	C 	0.12640 0.73850 0.22900 -0.23000
C 	C 	0.24290 0.68600 0.19040 0.06600
C 	C 	0.19650 0.59230 0.10040 -0.08900
C 	C 	0.03370 0.55050 0.04660 -0.06100
C 	C 	0.91970 0.60300 0.08940 -0.05400
C 	C 	0.96550 0.69660 0.17920 0.10200
C 	C 	0.44966 0.86150 0.57212 0.53800
C 	C 	0.45618 0.76260 0.58636 -0.22600
C 	C 	0.55640 0.69180 0.54600 0.10800
C 	C 	0.55650 0.59820 0.55540 -0.15800
C 	C 	0.45987 0.57420 0.60674 0.06800
C 	C 	0.36550 0.64780 0.64980 -0.16800
C 	C 	0.36148 0.74070 0.63916 0.11500
C 	C 	0.45340 0.47260 0.61320 0.04900
C 	C 	0.47700 0.38410 0.53260 -0.15300
C 	C 	0.45730 0.28760 0.53240 0.10700
C 	C 	0.41342 0.27640 0.61184 -0.17300
C 	C 	0.39791 0.36450 0.69502 0.06900
C 	C 	0.41840 0.46210 0.69640 -0.13300
C 	C 	0.36522 0.17180 0.60424 0.40700
C 	C 	0.85305 0.16120 0.67470 0.51100
C 	C 	0.89740 0.26150 0.77100 -0.18200
C 	C 	0.05250 0.31400 0.80960 0.07500
C 	C 	0.09610 0.40770 0.89960 -0.23700
C 	C 	0.98710 0.44950 0.95340 0.17900
C 	C 	0.83030 0.39700 0.91060 -0.20000
C 	C 	0.78630 0.30340 0.82080 0.12200
O 	O 	0.01385 0.10810 0.44950 -0.58700
O 	O 	0.74555 0.09320 0.41790 -0.62100
O 	O 	0.84184 0.90910 0.47908 -0.61300
O 	O 	0.64095 0.83530 0.32710 -0.47600
O 	O 	0.07418 0.87790 0.36936 -0.56500
O 	O 	0.32473 0.87760 0.35786 -0.60200
O 	O 	0.56435 0.89190 0.55050 -0.54900
O 	O 	0.32765 0.90680 0.58210 -0.61700
O 	O 	0.36276 0.09090 0.52092 -0.62600
O 	O 	0.31385 0.16470 0.67290 -0.48300
O 	O 	0.70482 0.12210 0.63064 -0.54600
O 	O 	0.96687 0.12240 0.64214 -0.56600
