data_crystal

_cell_length_a 6.56030
_cell_length_b 15.98460
_cell_length_c 13.44410
_cell_angle_alpha 90.00000
_cell_angle_beta  90.00000
_cell_angle_gamma 90.00000

_symmetry_space_group_name_	'P 1'
_symmetry_space_group_name_H-M	'P 1'

loop_
_symmetry_equiv_pos_as_xyz
  x,y,z

loop_
_atom_site_label
_atom_site_type_symbol
_atom_site_fract_x
_atom_site_fract_y
_atom_site_fract_z
_atom_site_charge
O 	O 	0.67103 0.92167 0.32894 -0.56900
O 	O 	0.32415 0.58019 0.65930 -0.67400
C 	C 	0.31443 0.78080 0.45533 0.01100
C 	C 	0.31412 0.71188 0.51963 0.02400
H 	H 	0.17045 0.80599 0.43035 0.06100
H 	H 	0.17014 0.68583 0.54288 0.04600
O 	O 	0.17001 0.42137 0.82924 -0.68200
O 	O 	0.82478 0.08084 0.15944 -0.72300
C 	C 	0.81389 0.28106 0.95609 0.00800
C 	C 	0.81433 0.21211 0.02018 0.00600
H 	H 	0.66997 0.30625 0.93116 0.04100
H 	H 	0.67067 0.18595 0.04338 0.03500
O 	O 	0.32219 0.08221 0.33171 -0.72100
O 	O 	0.66786 0.42340 0.66193 -0.68200
C 	C 	0.67963 0.22083 0.46092 0.00700
C 	C 	0.67966 0.28995 0.52495 0.00800
H 	H 	0.82387 0.19573 0.43623 0.03700
H 	H 	0.82375 0.31627 0.54840 0.04000
O 	O 	0.82201 0.58251 0.83135 -0.67500
O 	O 	0.16814 0.92345 0.16185 -0.57100
C 	C 	0.17957 0.72140 0.96020 0.01600
C 	C 	0.17980 0.79032 0.02447 0.01900
H 	H 	0.32367 0.69653 0.93516 0.04900
H 	H 	0.32384 0.81644 0.04830 0.06200
O 	O 	0.66783 0.08220 0.33109 -0.72300
O 	O 	0.32280 0.42401 0.66023 -0.67900
C 	C 	0.31128 0.22104 0.46067 0.00700
C 	C 	0.31109 0.29015 0.52475 0.00800
H 	H 	0.16702 0.19604 0.43588 0.03700
H 	H 	0.16690 0.31670 0.54784 0.04100
O 	O 	0.16857 0.58292 0.82988 -0.67900
O 	O 	0.82210 0.92390 0.16063 -0.56700
C 	C 	0.81110 0.72149 0.96003 0.01800
C 	C 	0.81118 0.79041 0.02433 0.02000
H 	H 	0.66679 0.69667 0.93499 0.04800
H 	H 	0.66716 0.81668 0.04790 0.06200
O 	O 	0.32503 0.92179 0.32948 -0.56400
O 	O 	0.67036 0.58076 0.65937 -0.67600
C 	C 	0.68293 0.78079 0.45556 0.01100
C 	C 	0.68242 0.71173 0.51994 0.02500
H 	H 	0.82749 0.80599 0.43057 0.06200
H 	H 	0.82673 0.68567 0.54345 0.04600
O 	O 	0.82455 0.42236 0.82992 -0.67900
O 	O 	0.17042 0.08071 0.15975 -0.72700
C 	C 	0.18257 0.28125 0.95596 0.00700
C 	C 	0.18273 0.21216 0.02013 0.00700
H 	H 	0.32689 0.30655 0.93093 0.04100
H 	H 	0.32701 0.18606 0.04347 0.03500
Al	Al	0.74492 0.00313 0.24597 2.40700
Al	Al	0.24402 0.50270 0.74610 2.41700
Al	Al	0.24461 0.00306 0.24645 2.40700
Al	Al	0.74482 0.50292 0.74655 2.41700
O 	O 	-0.00514 0.00467 0.29987 -1.27300
O 	O 	0.49404 0.50392 0.79971 -1.17300
O 	O 	0.49525 0.00479 0.19327 -1.27500
O 	O 	-0.00607 0.50371 0.69305 -1.17700
C 	C 	0.49777 0.67774 0.55476 -0.12800
C 	C 	0.49868 0.81729 0.42412 -0.09600
C 	C 	0.49711 0.60849 0.62870 0.53900
C 	C 	0.49825 0.89157 0.35713 0.51800
C 	C 	-0.00154 0.17810 0.05512 -0.14300
C 	C 	-0.00222 0.31763 0.92475 -0.13100
C 	C 	-0.00213 0.10874 0.12894 0.53300
C 	C 	-0.00289 0.39186 0.85769 0.53200
C 	C 	0.49553 0.32474 0.55871 -0.13400
C 	C 	0.49552 0.18493 0.42861 -0.14100
C 	C 	0.49571 0.39517 0.63091 0.53800
C 	C 	0.49518 0.11172 0.36008 0.53000
C 	C 	-0.00440 0.82489 0.05855 -0.10200
C 	C 	-0.00453 0.68558 0.92769 -0.12300
C 	C 	-0.00471 0.89519 0.13114 0.52100
C 	C 	-0.00434 0.61228 0.85908 0.53300
H 	H 	-0.00724 0.50377 0.62882 0.43300
H 	H 	0.49297 0.50424 0.86374 0.43100
H 	H 	0.49552 0.00573 0.12915 0.39400
H 	H 	-0.00516 0.00542 0.36402 0.39200
