data_crystal

_cell_length_a 6.67200
_cell_length_b 16.93600
_cell_length_c 12.80700
_cell_angle_alpha 90.00000
_cell_angle_beta  90.00000
_cell_angle_gamma 90.00000

_symmetry_space_group_name_	'P 1'
_symmetry_space_group_name_H-M	'P 1'

loop_
_symmetry_equiv_pos_as_xyz
  x,y,z

loop_
_atom_site_label
_atom_site_type_symbol
_atom_site_fract_x
_atom_site_fract_y
_atom_site_fract_z
_atom_site_charge
O 	O 	0.17409 0.82909 0.16125 -0.67000
C 	C 	0.82311 0.96743 0.03091 -0.03600
H 	H 	0.68092 0.94214 0.05367 0.05000
O 	O 	0.67417 0.32902 0.66113 -0.67200
C 	C 	0.32314 0.46722 0.53056 0.01000
H 	H 	0.18097 0.44186 0.55321 0.05600
O 	O 	0.83273 0.67555 0.16129 -0.71100
C 	C 	0.18376 0.53711 0.03118 0.00500
H 	H 	0.32593 0.56241 0.05397 0.04400
O 	O 	0.33284 0.17548 0.66140 -0.65700
C 	C 	0.68378 0.03698 0.53137 0.00400
H 	H 	0.82596 0.06227 0.55413 0.03000
O 	O 	0.83284 0.32909 0.83997 -0.71100
C 	C 	0.18378 0.46735 0.97046 0.00500
H 	H 	0.32596 0.44203 0.94777 0.04300
O 	O 	0.33275 0.82901 0.34008 -0.65700
C 	C 	0.68376 0.96721 0.47065 0.00400
H 	H 	0.82593 0.94189 0.44793 0.03000
O 	O 	0.17418 0.17556 0.83997 -0.67100
C 	C 	0.82313 0.03719 0.97017 -0.03700
H 	H 	0.68096 0.06251 0.94744 0.04900
O 	O 	0.67410 0.67553 0.33993 -0.67300
C 	C 	0.32311 0.53699 0.46985 0.00900
H 	H 	0.18093 0.56226 0.44704 0.05600
O 	O 	0.83285 0.17556 0.83993 -0.71100
C 	C 	0.18383 0.03712 0.97006 0.00500
H 	H 	0.32601 0.06238 0.94724 0.04400
O 	O 	0.33278 0.67549 0.33985 -0.65700
C 	C 	0.68381 0.53705 0.46994 0.00400
H 	H 	0.82597 0.56237 0.44721 0.03000
O 	O 	0.17415 0.32909 0.84000 -0.67100
C 	C 	0.82309 0.46734 0.97044 -0.03700
H 	H 	0.68092 0.44201 0.94772 0.04900
O 	O 	0.67405 0.82902 0.34009 -0.67300
C 	C 	0.32307 0.96721 0.47070 0.00900
H 	H 	0.18089 0.94188 0.44801 0.05600
O 	O 	0.17406 0.67554 0.16127 -0.67100
C 	C 	0.82307 0.53710 0.03116 -0.03700
H 	H 	0.68089 0.56239 0.05393 0.04900
O 	O 	0.67416 0.17548 0.66136 -0.67300
C 	C 	0.32309 0.03697 0.53142 0.00900
H 	H 	0.18092 0.06226 0.55422 0.05600
O 	O 	0.83279 0.82913 0.16133 -0.71100
C 	C 	0.18380 0.96736 0.03080 0.00500
H 	H 	0.32596 0.94201 0.05347 0.04300
O 	O 	0.33286 0.32903 0.66116 -0.65700
C 	C 	0.68383 0.46728 0.53065 0.00400
H 	H 	0.82600 0.44198 0.55338 0.03000
Al	Al	0.25350 0.75232 0.25059 2.41200
Al	Al	0.75348 0.75233 0.25064 2.41100
Al	Al	0.75360 0.25233 0.75058 2.41100
Al	Al	0.25360 0.25233 0.75064 2.41200
O 	O 	0.00350 0.75236 0.30670 -1.07400
O 	O 	0.50362 0.25242 0.80671 -1.15900
O 	O 	0.00362 0.25238 0.69450 -1.07400
O 	O 	0.50350 0.75240 0.19450 -1.15900
C 	C 	0.00345 0.93095 0.06246 -0.07200
C 	C 	0.00344 0.85815 0.13181 0.55400
C 	C 	0.50349 0.43080 0.56221 -0.11400
C 	C 	0.50351 0.35804 0.63162 0.50700
C 	C 	0.00340 0.57361 0.06268 -0.07200
C 	C 	0.00339 0.64648 0.13186 0.55400
C 	C 	0.50345 0.07348 0.56288 -0.11400
C 	C 	0.50348 0.14639 0.63199 0.50700
C 	C 	0.00345 0.43090 0.93884 -0.07200
C 	C 	0.00348 0.35812 0.86948 0.55400
C 	C 	0.50340 0.93077 0.43905 -0.11400
C 	C 	0.50339 0.85803 0.36962 0.50700
C 	C 	0.00349 0.07364 0.93860 -0.07200
C 	C 	0.00351 0.14650 0.86938 0.55400
C 	C 	0.50345 0.57353 0.43842 -0.11400
C 	C 	0.50344 0.64643 0.36929 0.50700
H 	H 	0.50364 0.25253 0.87402 0.41600
H 	H 	1.00364 0.25243 0.62719 0.34700
H 	H 	1.00351 0.75239 0.37402 0.34700
H 	H 	0.50351 0.75249 0.12718 0.41500
