data_crystal

_cell_length_a 16.78070
_cell_length_b 6.61250
_cell_length_c 12.71430
_cell_angle_alpha 90.00000
_cell_angle_beta  90.00000
_cell_angle_gamma 90.00000

_symmetry_space_group_name_	'P 1'
_symmetry_space_group_name_H-M	'P 1'

loop_
_symmetry_equiv_pos_as_xyz
  x,y,z

loop_
_atom_site_label
_atom_site_type_symbol
_atom_site_fract_x
_atom_site_fract_y
_atom_site_fract_z
_atom_site_charge
C 	C 	0.29530 0.19800 0.98650 0.00800
C 	C 	0.21810 0.19820 0.04760 0.00400
O 	O 	0.42380 0.84860 0.84780 -0.62100
O 	O 	0.58820 0.33770 0.66520 -0.64400
H 	H 	0.32449 0.34723 0.96344 0.03100
H 	H 	0.18901 0.34758 0.07062 0.03100
H 	H 	0.50000 0.50000 0.88655 0.26900
H 	H 	0.50000 0.00000 0.61405 0.25200
C 	C 	0.79530 0.69800 0.48650 0.01000
C 	C 	0.71810 0.69820 0.54760 0.02200
O 	O 	0.92380 0.34860 0.34780 -0.50600
O 	O 	0.08820 0.83770 0.16520 -0.68900
H 	H 	0.82449 0.84723 0.46344 0.04900
H 	H 	0.68901 0.84758 0.57062 0.03500
H 	H 	0.00000 0.00000 0.38655 0.22500
H 	H 	-0.00000 0.50000 0.11405 0.20400
C 	C 	0.70470 0.80200 0.98650 0.00600
C 	C 	0.78190 0.80180 0.04760 0.00800
O 	O 	0.57620 0.15140 0.84780 -0.60900
O 	O 	0.41180 0.66230 0.66520 -0.65000
H 	H 	0.67551 0.65277 0.96344 0.03600
H 	H 	0.81099 0.65242 0.07062 0.05400
C 	C 	0.20470 0.30200 0.48650 0.00500
C 	C 	0.28190 0.30180 0.54760 0.01000
O 	O 	0.07620 0.65140 0.34780 -0.65500
O 	O 	0.91180 0.16230 0.16520 -0.55200
H 	H 	0.17551 0.15277 0.46344 0.02700
H 	H 	0.31099 0.15242 0.57062 0.03700
C 	C 	0.29530 0.80200 0.98650 -0.00100
C 	C 	0.21810 0.80180 0.04760 -0.00500
O 	O 	0.42380 0.15140 0.84780 -0.61100
O 	O 	0.58820 0.66230 0.66520 -0.64700
H 	H 	0.32449 0.65277 0.96344 0.03200
H 	H 	0.18901 0.65242 0.07062 0.03200
C 	C 	0.79530 0.30200 0.48650 0.01200
C 	C 	0.71810 0.30180 0.54760 0.02300
O 	O 	0.92380 0.65140 0.34780 -0.50800
O 	O 	0.08820 0.16230 0.16520 -0.67800
H 	H 	0.82449 0.15277 0.46344 0.05500
H 	H 	0.68901 0.15242 0.57062 0.04100
C 	C 	0.70470 0.19800 0.98650 0.01300
C 	C 	0.78190 0.19820 0.04760 0.01600
O 	O 	0.57620 0.84860 0.84780 -0.61800
O 	O 	0.41180 0.33770 0.66520 -0.64700
H 	H 	0.67551 0.34723 0.96344 0.03500
H 	H 	0.81099 0.34758 0.07062 0.05300
C 	C 	0.20470 0.69800 0.48650 0.00400
C 	C 	0.28190 0.69820 0.54760 0.00800
O 	O 	0.07620 0.34860 0.34780 -0.65100
O 	O 	0.91180 0.83770 0.16520 -0.56000
H 	H 	0.17551 0.84723 0.46344 0.02000
H 	H 	0.31099 0.84758 0.57062 0.03100
Al	Al	0.50000 0.75000 0.75000 2.40400
Al	Al	0.00000 0.25000 0.25000 2.39500
Al	Al	0.50000 0.25000 0.75000 2.40400
Al	Al	0.00000 0.75000 0.25000 2.39500
C 	C 	0.19460 0.00000 0.06620 -0.13600
C 	C 	0.31860 0.00000 0.96800 -0.13000
C 	C 	0.38600 0.00000 0.89180 0.50000
C 	C 	0.69460 0.50000 0.56620 -0.13900
C 	C 	0.81860 0.50000 0.46800 -0.10500
C 	C 	0.88600 0.50000 0.39180 0.47200
C 	C 	0.80540 0.00000 0.06620 -0.10600
C 	C 	0.68140 0.00000 0.96800 -0.12800
C 	C 	0.61400 0.00000 0.89180 0.50500
C 	C 	0.30540 0.50000 0.56620 -0.14100
C 	C 	0.18140 0.50000 0.46800 -0.15200
C 	C 	0.11400 0.50000 0.39180 0.49100
C 	C 	0.62110 0.50000 0.63120 0.51700
C 	C 	0.12110 0.00000 0.13120 0.52100
C 	C 	0.37890 0.50000 0.63120 0.51200
C 	C 	0.87890 0.00000 0.13120 0.50600
O 	O 	0.50000 0.50000 0.80790 -1.07000
O 	O 	-0.00000 0.00000 0.30790 -1.15500
O 	O 	0.50000 0.00000 0.69270 -1.05400
O 	O 	-0.00000 0.50000 0.19270 -1.15200
