data_crystal

_cell_length_a 7.20940
_cell_length_b 22.65200
_cell_length_c 10.65530
_cell_angle_alpha 90.00000
_cell_angle_beta  90.55400
_cell_angle_gamma 90.00000

_symmetry_space_group_name_	'P 1'
_symmetry_space_group_name_H-M	'P 1'

loop_
_symmetry_equiv_pos_as_xyz
  x,y,z

loop_
_atom_site_label
_atom_site_type_symbol
_atom_site_fract_x
_atom_site_fract_y
_atom_site_fract_z
_atom_site_charge
Sm	Sm	0.26141 0.25076 0.85258 1.67300
Sb	Sb	0.45956 0.98823 0.12384 0.55400
Sb	Sb	0.56900 0.48338 0.60413 0.55500
N 	N 	0.19890 0.04779 0.12010 -0.06000
N 	N 	0.22100 0.92110 0.15420 -0.05500
N 	N 	0.80520 0.41621 0.63690 -0.05500
N 	N 	0.83160 0.54247 0.60270 -0.04000
O 	O 	0.38160 0.00311 0.32110 -0.29900
O 	O 	0.26450 0.06937 0.45300 -0.28000
O 	O 	0.52330 0.08573 0.02170 -0.29100
O 	O 	0.38800 0.16009 0.92060 -0.51600
O 	O 	0.57650 0.88709 0.18180 -0.32900
O 	O 	0.50320 0.80759 0.29450 -0.51600
O 	O 	0.35710 0.97058 0.94060 -0.30000
O 	O 	0.20480 0.90840 0.81390 -0.26900
O 	O 	0.44970 0.38274 0.66260 -0.32800
O 	O 	0.51940 0.30662 0.78720 -0.52400
O 	O 	0.67340 0.46581 0.42130 -0.30400
O 	O 	0.82180 0.40410 0.29640 -0.29100
O 	O 	0.64690 0.50063 0.80240 -0.31000
O 	O 	0.76420 0.56742 0.93240 -0.30600
O 	O 	0.50720 0.57926 0.50250 -0.30400
O 	O 	0.63770 0.65490 0.40240 -0.50900
C 	C 	0.21030 0.08470 0.23620 -0.25700
H 	H 	0.28970 0.11950 0.21980 0.10600
H 	H 	0.08470 0.09920 0.25670 0.13000
C 	C 	0.28850 0.05120 0.34800 0.36900
C 	C 	0.19430 0.08730 0.00880 -0.25000
H 	H 	0.15140 0.06460 0.93470 0.12100
H 	H 	0.10430 0.11950 0.02340 0.10000
C 	C 	0.38180 0.11360 0.98220 0.40300
C 	C 	0.03090 0.00920 0.11700 -0.02000
H 	H 	0.00460 0.99750 0.02910 0.08400
H 	H 	0.92330 0.03210 0.14730 0.03300
C 	C 	0.05120 0.95530 0.19430 -0.03400
H 	H 	0.06340 0.96630 0.28390 0.07900
H 	H 	0.93950 0.93030 0.18430 0.03200
C 	C 	0.26830 0.87750 0.25310 -0.29800
H 	H 	0.25440 0.89610 0.33660 0.14200
H 	H 	0.18100 0.84380 0.24790 0.11600
C 	C 	0.46290 0.85520 0.23980 0.43100
C 	C 	0.19240 0.88960 0.03230 -0.24500
H 	H 	0.26320 0.85220 0.03450 0.10300
H 	H 	0.05940 0.87960 0.02310 0.12700
C 	C 	0.25140 0.92480 0.91860 0.34900
C 	C 	0.75900 0.37270 0.73570 -0.28600
H 	H 	0.78090 0.39080 0.81910 0.12500
H 	H 	0.84220 0.33820 0.72830 0.09200
C 	C 	0.56050 0.35230 0.72640 0.42900
C 	C 	0.83250 0.38460 0.51500 -0.25300
H 	H 	0.76030 0.34740 0.51610 0.09800
H 	H 	0.96520 0.37400 0.50720 0.10000
C 	C 	0.77460 0.42020 0.40190 0.35700
C 	C 	0.97630 0.44890 0.67680 -0.07700
H 	H 	0.08620 0.42320 0.66650 0.08700
H 	H 	0.96750 0.45960 0.76660 0.06800
C 	C 	0.99910 0.50480 0.59800 -0.18600
H 	H 	0.10740 0.52740 0.62960 0.12400
H 	H 	0.02340 0.49360 0.50980 0.13900
C 	C 	0.82350 0.58010 0.71800 -0.26300
H 	H 	0.74670 0.61540 0.70010 0.10100
H 	H 	0.95030 0.59370 0.73990 0.11000
C 	C 	0.74340 0.54740 0.82830 0.37800
C 	C 	0.83600 0.58180 0.49170 -0.28700
H 	H 	0.87810 0.55910 0.41790 0.12400
H 	H 	0.92610 0.61400 0.50700 0.08600
C 	C 	0.64780 0.60800 0.46380 0.42200
Sm	Sm	0.76141 0.74924 0.35258 1.64100
Sb	Sb	0.95956 0.01177 0.62384 0.50800
Sb	Sb	0.06900 0.51662 0.10413 0.58900
N 	N 	0.69890 0.95221 0.62010 -0.05300
N 	N 	0.72100 0.07890 0.65420 -0.05800
N 	N 	0.30520 0.58379 0.13690 -0.05100
N 	N 	0.33160 0.45753 0.10270 -0.04400
O 	O 	0.88160 0.99689 0.82110 -0.31100
O 	O 	0.76450 0.93063 0.95300 -0.30300
O 	O 	0.02330 0.91427 0.52170 -0.26400
O 	O 	0.88800 0.83991 0.42060 -0.52000
O 	O 	0.07650 0.11291 0.68180 -0.27100
O 	O 	0.00320 0.19241 0.79450 -0.46700
O 	O 	0.85710 0.02942 0.44060 -0.30700
O 	O 	0.70480 0.09160 0.31390 -0.28600
O 	O 	0.94970 0.61726 0.16260 -0.37000
O 	O 	0.01940 0.69338 0.28720 -0.50900
O 	O 	0.17340 0.53419 0.92130 -0.30000
O 	O 	0.32180 0.59590 0.79640 -0.27400
O 	O 	0.14690 0.49937 0.30240 -0.30200
O 	O 	0.26420 0.43258 0.43240 -0.28600
O 	O 	0.00720 0.42074 0.00250 -0.28000
O 	O 	0.13770 0.34510 0.90240 -0.50300
C 	C 	0.71030 0.91530 0.73620 -0.25400
H 	H 	0.78970 0.88050 0.71980 0.09500
H 	H 	0.58470 0.90080 0.75670 0.11600
C 	C 	0.78850 0.94880 0.84800 0.36200
C 	C 	0.69430 0.91270 0.50880 -0.28100
H 	H 	0.65140 0.93540 0.43470 0.13000
H 	H 	0.60430 0.88050 0.52340 0.09600
C 	C 	0.88180 0.88640 0.48220 0.39400
C 	C 	0.53090 0.99080 0.61700 -0.07600
H 	H 	0.50460 0.00250 0.52910 0.08500
H 	H 	0.42330 0.96790 0.64730 0.07600
C 	C 	0.55120 0.04470 0.69430 -0.06800
H 	H 	0.56340 0.03370 0.78390 0.07800
H 	H 	0.43950 0.06970 0.68430 0.06700
C 	C 	0.76830 0.12250 0.75310 -0.25100
H 	H 	0.75440 0.10390 0.83660 0.11700
H 	H 	0.68100 0.15620 0.74790 0.09100
C 	C 	0.96290 0.14480 0.73980 0.32900
C 	C 	0.69240 0.11040 0.53230 -0.25100
H 	H 	0.76320 0.14780 0.53450 0.09500
H 	H 	0.55940 0.12040 0.52310 0.11400
C 	C 	0.75140 0.07520 0.41860 0.35300
C 	C 	0.25900 0.62730 0.23570 -0.30900
H 	H 	0.28090 0.60920 0.31910 0.14300
H 	H 	0.34220 0.66180 0.22830 0.11000
C 	C 	0.06050 0.64770 0.22640 0.47600
C 	C 	0.33250 0.61540 0.01500 -0.24400
H 	H 	0.26030 0.65260 0.01610 0.10500
H 	H 	0.46520 0.62600 0.00720 0.11200
C 	C 	0.27460 0.57980 0.90190 0.35200
C 	C 	0.47630 0.55110 0.17680 -0.06900
H 	H 	0.58620 0.57680 0.16650 0.06500
H 	H 	0.46750 0.54040 0.26660 0.07700
C 	C 	0.49910 0.49520 0.09800 -0.07700
H 	H 	0.60740 0.47260 0.12960 0.07000
H 	H 	0.52340 0.50640 0.00980 0.08900
C 	C 	0.32350 0.41990 0.21800 -0.26600
H 	H 	0.24670 0.38460 0.20010 0.11000
H 	H 	0.45030 0.40630 0.23990 0.12200
C 	C 	0.24340 0.45260 0.32830 0.38100
C 	C 	0.33600 0.41820 0.99170 -0.32200
H 	H 	0.37810 0.44090 0.91790 0.14100
H 	H 	0.42610 0.38600 0.00700 0.11400
C 	C 	0.14780 0.39200 0.96380 0.41900
