data_crystal

_cell_length_a 13.15900
_cell_length_b 14.04000
_cell_length_c 16.00700
_cell_angle_alpha 90.00000
_cell_angle_beta  108.23400
_cell_angle_gamma 90.00000

_symmetry_space_group_name_	'P 1'
_symmetry_space_group_name_H-M	'P 1'

loop_
_symmetry_equiv_pos_as_xyz
  x,y,z

loop_
_atom_site_label
_atom_site_type_symbol
_atom_site_fract_x
_atom_site_fract_y
_atom_site_fract_z
_atom_site_charge
Ce	Ce	0.38626 0.02145 0.08447 2.07800
Ce	Ce	0.11374 0.52145 0.41553 2.08000
Ce	Ce	0.61374 0.97855 0.91553 2.07700
Ce	Ce	0.88626 0.47855 0.58447 2.07900
B 	B 	0.13630 0.88010 0.76090 0.20000
B 	B 	0.22600 0.89770 0.70600 0.21300
B 	B 	0.32290 0.81200 0.73780 0.27300
B 	B 	0.29500 0.73650 0.81550 0.18900
B 	B 	0.17720 0.77940 0.82940 0.30100
B 	B 	0.07500 0.76700 0.73090 0.24600
B 	B 	0.10700 0.84140 0.65210 0.28100
B 	B 	0.22300 0.79960 0.63850 0.18300
B 	B 	0.26370 0.70030 0.70650 0.26500
B 	B 	0.17800 0.68020 0.76340 0.18800
B 	B 	0.37720 0.04650 0.44720 0.21000
B 	B 	0.39550 0.92880 0.47390 0.23000
B 	B 	0.52410 0.88990 0.47010 0.25500
B 	B 	0.58710 0.99180 0.44150 0.22200
B 	B 	0.49720 0.08800 0.42810 0.23100
B 	B 	0.36370 0.38010 0.73910 0.20100
B 	B 	0.27400 0.39770 0.79400 0.21200
B 	B 	0.17710 0.31200 0.76220 0.27500
B 	B 	0.20500 0.23650 0.68450 0.18900
B 	B 	0.32280 0.27940 0.67060 0.30100
B 	B 	0.42500 0.26700 0.76910 0.24500
B 	B 	0.39300 0.34140 0.84790 0.28100
B 	B 	0.27700 0.29960 0.86150 0.18300
B 	B 	0.23630 0.20030 0.79350 0.26500
B 	B 	0.32200 0.18020 0.73660 0.18900
B 	B 	0.12280 0.54650 0.05280 0.21200
B 	B 	0.10450 0.42880 0.02610 0.22700
B 	B 	0.97590 0.38990 0.02990 0.25400
B 	B 	0.91290 0.49180 0.05850 0.22300
B 	B 	0.00280 0.58800 0.07190 0.23300
B 	B 	0.86370 0.11990 0.23910 0.20000
B 	B 	0.77400 0.10230 0.29400 0.21300
B 	B 	0.67710 0.18800 0.26220 0.27300
B 	B 	0.70500 0.26350 0.18450 0.18900
B 	B 	0.82280 0.22060 0.17060 0.30100
B 	B 	0.92500 0.23300 0.26910 0.24600
B 	B 	0.89300 0.15860 0.34790 0.28100
B 	B 	0.77700 0.20040 0.36150 0.18300
B 	B 	0.73630 0.29970 0.29350 0.26500
B 	B 	0.82200 0.31980 0.23660 0.18800
B 	B 	0.62280 0.95350 0.55280 0.21000
B 	B 	0.60450 0.07120 0.52610 0.23000
B 	B 	0.47590 0.11010 0.52990 0.25500
B 	B 	0.41290 0.00820 0.55850 0.22200
B 	B 	0.50280 0.91200 0.57190 0.23100
B 	B 	0.63630 0.61990 0.26090 0.20100
B 	B 	0.72600 0.60230 0.20600 0.21200
B 	B 	0.82290 0.68800 0.23780 0.27500
B 	B 	0.79500 0.76350 0.31550 0.18900
B 	B 	0.67720 0.72060 0.32940 0.30100
B 	B 	0.57500 0.73300 0.23090 0.24500
B 	B 	0.60700 0.65860 0.15210 0.28100
B 	B 	0.72300 0.70040 0.13850 0.18300
B 	B 	0.76370 0.79970 0.20650 0.26500
B 	B 	0.67800 0.81980 0.26340 0.18900
B 	B 	0.87720 0.45350 0.94720 0.21200
B 	B 	0.89550 0.57120 0.97390 0.22700
B 	B 	0.02410 0.61010 0.97010 0.25400
B 	B 	0.08710 0.50820 0.94150 0.22300
B 	B 	0.99720 0.41200 0.92810 0.23300
H 	H 	0.09360 0.94190 0.77900 -0.12800
H 	H 	0.24420 0.97150 0.68820 -0.12500
H 	H 	0.40710 0.82890 0.74060 -0.15400
H 	H 	0.35920 0.70220 0.87040 -0.12400
H 	H 	0.16080 0.77410 0.89380 -0.15100
H 	H 	0.99090 0.75050 0.72870 -0.12200
H 	H 	0.04430 0.87540 0.59600 -0.14800
H 	H 	0.23840 0.80490 0.57380 -0.12700
H 	H 	0.30620 0.63960 0.68650 -0.14600
H 	H 	0.16270 0.60590 0.78230 -0.10900
H 	H 	0.29670 0.07680 0.41120 -0.13300
H 	H 	0.32400 0.88070 0.45480 -0.13300
H 	H 	0.53890 0.81640 0.44950 -0.14500
H 	H 	0.64300 0.98680 0.40130 -0.12900
H 	H 	0.49470 0.14660 0.38000 -0.14000
H 	H 	0.40640 0.44190 0.72100 -0.12700
H 	H 	0.25580 0.47150 0.81180 -0.12400
H 	H 	0.09290 0.32890 0.75940 -0.15400
H 	H 	0.14080 0.20220 0.62960 -0.12300
H 	H 	0.33920 0.27410 0.60620 -0.15100
H 	H 	0.50910 0.25050 0.77130 -0.12100
H 	H 	0.45570 0.37540 0.90400 -0.14800
H 	H 	0.26160 0.30490 0.92620 -0.12600
H 	H 	0.19380 0.13960 0.81350 -0.14400
H 	H 	0.33730 0.10590 0.71770 -0.10800
H 	H 	0.20330 0.57680 0.08880 -0.13300
H 	H 	0.17600 0.38070 0.04520 -0.13300
H 	H 	0.96110 0.31640 0.05050 -0.14500
H 	H 	0.85700 0.48680 0.09870 -0.13000
H 	H 	0.00530 0.64660 0.12000 -0.14000
H 	H 	0.90640 0.05810 0.22100 -0.12800
H 	H 	0.75580 0.02850 0.31180 -0.12500
H 	H 	0.59290 0.17110 0.25940 -0.15400
H 	H 	0.64080 0.29780 0.12960 -0.12400
H 	H 	0.83920 0.22590 0.10620 -0.15100
H 	H 	0.00910 0.24950 0.27130 -0.12200
H 	H 	0.95570 0.12460 0.40400 -0.14800
H 	H 	0.76160 0.19510 0.42620 -0.12700
H 	H 	0.69380 0.36040 0.31350 -0.14600
H 	H 	0.83730 0.39410 0.21770 -0.10900
H 	H 	0.70330 0.92320 0.58880 -0.13300
H 	H 	0.67600 0.11930 0.54520 -0.13300
H 	H 	0.46110 0.18360 0.55050 -0.14500
H 	H 	0.35700 0.01320 0.59870 -0.12900
H 	H 	0.50530 0.85340 0.62000 -0.14000
H 	H 	0.59360 0.55810 0.27900 -0.12700
H 	H 	0.74420 0.52850 0.18820 -0.12400
H 	H 	0.90710 0.67110 0.24060 -0.15400
H 	H 	0.85920 0.79780 0.37040 -0.12300
H 	H 	0.66080 0.72590 0.39380 -0.15100
H 	H 	0.49090 0.74950 0.22870 -0.12100
H 	H 	0.54430 0.62460 0.09600 -0.14800
H 	H 	0.73840 0.69510 0.07380 -0.12600
H 	H 	0.80620 0.86040 0.18650 -0.14400
H 	H 	0.66270 0.89410 0.28230 -0.10800
H 	H 	0.79670 0.42320 0.91120 -0.13300
H 	H 	0.82400 0.61930 0.95480 -0.13300
H 	H 	0.03890 0.68360 0.94950 -0.14500
H 	H 	0.14300 0.51320 0.90130 -0.13000
H 	H 	0.99470 0.35340 0.88000 -0.14000
C 	C 	0.26600 0.85370 0.80980 -0.62000
C 	C 	0.13260 0.72460 0.65920 -0.61800
C 	C 	0.33420 0.91870 0.88450 0.57100
C 	C 	0.06630 0.65730 0.58620 0.60000
C 	C 	0.45130 0.97430 0.40140 -0.58300
C 	C 	0.40300 0.94910 0.30300 0.49900
C 	C 	0.23400 0.35370 0.69020 -0.62000
C 	C 	0.36740 0.22460 0.84080 -0.61700
C 	C 	0.16580 0.41870 0.61550 0.57100
C 	C 	0.43370 0.15730 0.91380 0.60000
C 	C 	0.04870 0.47430 0.09860 -0.58400
C 	C 	0.09700 0.44910 0.19700 0.49500
C 	C 	0.73400 0.14630 0.19020 -0.62000
C 	C 	0.86740 0.27540 0.34080 -0.61800
C 	C 	0.66580 0.08130 0.11550 0.57100
C 	C 	0.93370 0.34270 0.41380 0.60000
C 	C 	0.54870 0.02570 0.59860 -0.58300
C 	C 	0.59700 0.05090 0.69700 0.49900
C 	C 	0.76600 0.64630 0.30980 -0.62000
C 	C 	0.63260 0.77540 0.15920 -0.61700
C 	C 	0.83420 0.58130 0.38450 0.57100
C 	C 	0.56630 0.84270 0.08620 0.60000
C 	C 	0.95130 0.52570 0.90140 -0.58400
C 	C 	0.90300 0.55090 0.80300 0.49500
O 	O 	0.29200 0.94310 0.94140 -0.59500
O 	O 	0.42530 0.94050 0.88210 -0.61300
O 	O 	0.98070 0.62880 0.59310 -0.60400
O 	O 	0.10730 0.63820 0.52780 -0.62100
O 	O 	0.42560 0.00110 0.24830 -0.58100
O 	O 	0.34610 0.87630 0.28740 -0.39600
O 	O 	0.20800 0.44310 0.55860 -0.59300
O 	O 	0.07470 0.44050 0.61790 -0.61100
O 	O 	0.51930 0.12880 0.90690 -0.60100
O 	O 	0.39270 0.13820 0.97220 -0.61800
O 	O 	0.07440 0.50110 0.25170 -0.57800
O 	O 	0.15390 0.37630 0.21260 -0.39600
O 	O 	0.70800 0.05690 0.05860 -0.59500
O 	O 	0.57470 0.05950 0.11790 -0.61300
O 	O 	0.01930 0.37120 0.40690 -0.60400
O 	O 	0.89270 0.36180 0.47220 -0.62100
O 	O 	0.57440 0.99890 0.75170 -0.58100
O 	O 	0.65390 0.12370 0.71260 -0.39600
O 	O 	0.79200 0.55690 0.44140 -0.59300
O 	O 	0.92530 0.55950 0.38210 -0.61100
O 	O 	0.48070 0.87120 0.09310 -0.60100
O 	O 	0.60730 0.86180 0.02780 -0.61800
O 	O 	0.92560 0.49890 0.74830 -0.57800
O 	O 	0.84610 0.62370 0.78740 -0.39600
