data_crystal

_cell_length_a 49.59000
_cell_length_b 49.59000
_cell_length_c 9.91680
_cell_angle_alpha 90.00000
_cell_angle_beta  90.00000
_cell_angle_gamma 120.00000

_symmetry_space_group_name_	'P 1'
_symmetry_space_group_name_H-M	'P 1'

loop_
_symmetry_equiv_pos_as_xyz
  x,y,z

loop_
_atom_site_label
_atom_site_type_symbol
_atom_site_fract_x
_atom_site_fract_y
_atom_site_fract_z
_atom_site_charge
In	In	0.20666 0.79351 0.49976 1.98600
In	In	0.16499 0.58257 0.50060 1.92200
Ni	Ni	0.06598 0.82059 0.17760 1.02400
Ni	Ni	0.06543 0.82072 0.82260 1.00700
O 	O 	0.18720 0.81550 0.63890 -0.39600
O 	O 	0.21090 0.79070 0.75160 -0.39300
O 	O 	0.20980 0.78990 0.25410 -0.47600
O 	O 	0.15510 0.57620 0.72500 -0.39000
O 	O 	0.18610 0.81430 0.36080 -0.40600
O 	O 	0.12270 0.58760 0.49810 -0.47000
O 	O 	0.41170 0.87770 0.49450 -0.49300
O 	O 	0.19700 0.74390 0.49670 -0.42800
O 	O 	0.24550 0.84480 0.50100 -0.39300
O 	O 	0.15580 0.75530 0.49760 -0.38700
O 	O 	0.25690 0.80510 0.49860 -0.44000
O 	O 	0.37780 0.96630 0.49580 -0.53300
O 	O 	0.36830 0.83290 0.49830 -0.40400
O 	O 	0.33210 0.94880 0.50770 -0.54400
O 	O 	0.21160 0.60450 0.66100 -0.39200
O 	O 	0.05940 0.83560 0.01100 -0.53100
O 	O 	0.10490 0.82430 0.90800 -0.43200
O 	O 	0.10500 0.82450 0.08700 -0.41100
C 	C 	0.18800 0.59300 0.72000 0.08000
C 	C 	0.13520 0.64760 0.50100 -0.12800
C 	C 	0.34120 0.90830 0.49600 -0.18300
C 	C 	0.14460 0.69980 0.49900 -0.07500
C 	C 	0.19750 0.80040 0.25500 0.34100
C 	C 	0.19690 0.80180 0.74200 0.24600
C 	C 	0.30060 0.85630 0.49900 -0.09500
C 	C 	0.09070 0.65710 0.50100 -0.10400
C 	C 	0.35990 0.89440 0.50400 0.10500
C 	C 	0.35420 0.86450 0.50200 -0.14600
C 	C 	0.10240 0.63780 0.49900 0.08400
C 	C 	0.35410 0.94590 0.49760 0.54900
C 	C 	0.32410 0.84420 0.50350 0.11200
C 	C 	0.15610 0.67800 0.49820 0.04500
C 	C 	0.12790 0.61260 0.49500 0.13600
C 	C 	0.16900 0.73450 0.49900 0.20600
C 	C 	0.38660 0.87130 0.49800 0.32700
C 	C 	0.26420 0.83210 0.49760 0.25400
C 	C 	0.31330 0.88970 0.49400 0.14600
C 	C 	0.11150 0.68610 0.50200 0.09900
C 	C 	0.19390 0.80680 0.99600 0.08000
C 	C 	0.18850 0.81670 0.86700 -0.07200
C 	C 	0.18670 0.81400 0.12800 -0.10100
C 	C 	0.15500 0.80740 0.10900 0.06900
C 	C 	0.19020 0.84460 0.11400 0.04500
C 	C 	0.15790 0.81380 0.87300 0.06100
C 	C 	0.19040 0.84680 0.87800 0.03600
C 	C 	0.12640 0.83380 0.99100 0.36000
C 	C 	0.14620 0.82000 0.99600 -0.13800
C 	C 	0.18500 0.85970 -0.00000 -0.03700
In	In	0.20649 0.41315 0.49976 1.98500
In	In	0.41743 0.58242 0.50060 1.92100
Ni	Ni	0.17941 0.24539 0.17760 1.02300
Ni	Ni	0.17928 0.24471 0.82260 1.00600
O 	O 	0.18450 0.37170 0.63890 -0.39700
O 	O 	0.20930 0.42020 0.75160 -0.39400
O 	O 	0.21010 0.41990 0.25410 -0.47700
O 	O 	0.42380 0.57890 0.72500 -0.39100
O 	O 	0.18570 0.37180 0.36080 -0.40700
O 	O 	0.41240 0.53510 0.49810 -0.47100
O 	O 	0.12230 0.53400 0.49450 -0.49300
O 	O 	0.25610 0.45310 0.49670 -0.42800
O 	O 	0.15520 0.40070 0.50100 -0.39300
O 	O 	0.24470 0.40050 0.49760 -0.38700
O 	O 	0.19490 0.45180 0.49860 -0.44000
O 	O 	0.03370 0.41150 0.49580 -0.53300
O 	O 	0.16710 0.53540 0.49830 -0.40400
O 	O 	0.05120 0.38330 0.50770 -0.54400
O 	O 	0.39550 0.60710 0.66100 -0.39200
O 	O 	0.16440 0.22380 0.01100 -0.53100
O 	O 	0.17570 0.28060 0.90800 -0.43200
O 	O 	0.17550 0.28050 0.08700 -0.41100
C 	C 	0.40700 0.59500 0.72000 0.08000
C 	C 	0.35240 0.48760 0.50100 -0.12800
C 	C 	0.09170 0.43290 0.49600 -0.18300
C 	C 	0.30020 0.44480 0.49900 -0.07500
C 	C 	0.19960 0.39710 0.25500 0.34100
C 	C 	0.19820 0.39510 0.74200 0.24600
C 	C 	0.14370 0.44430 0.49900 -0.09500
C 	C 	0.34290 0.43360 0.50100 -0.10400
C 	C 	0.10560 0.46550 0.50400 0.10500
C 	C 	0.13550 0.48970 0.50200 -0.14600
C 	C 	0.36220 0.46460 0.49900 0.08400
C 	C 	0.05410 0.40820 0.49760 0.54900
C 	C 	0.15580 0.47990 0.50350 0.11200
C 	C 	0.32200 0.47810 0.49820 0.04500
C 	C 	0.38740 0.51530 0.49500 0.13600
C 	C 	0.26550 0.43450 0.49900 0.20600
C 	C 	0.12870 0.51530 0.49800 0.32700
C 	C 	0.16790 0.43210 0.49760 0.25400
C 	C 	0.11030 0.42360 0.49400 0.14600
C 	C 	0.31390 0.42540 0.50200 0.09900
C 	C 	0.19320 0.38710 0.99600 0.08000
C 	C 	0.18330 0.37180 0.86700 -0.07200
C 	C 	0.18600 0.37270 0.12800 -0.10100
C 	C 	0.19260 0.34760 0.10900 0.06900
C 	C 	0.15540 0.34560 0.11400 0.04500
C 	C 	0.18620 0.34410 0.87300 0.06100
C 	C 	0.15320 0.34360 0.87800 0.03600
C 	C 	0.16620 0.29260 0.99100 0.36000
C 	C 	0.18000 0.32620 0.99600 -0.13800
C 	C 	0.14030 0.32530 -0.00000 -0.03700
In	In	0.58685 0.79334 0.49976 1.98500
In	In	0.41758 0.83501 0.50060 1.92100
Ni	Ni	0.75461 0.93402 0.17760 1.02300
Ni	Ni	0.75529 0.93457 0.82260 1.00600
O 	O 	0.62830 0.81280 0.63890 -0.39700
O 	O 	0.57980 0.78910 0.75160 -0.39400
O 	O 	0.58010 0.79020 0.25410 -0.47700
O 	O 	0.42110 0.84490 0.72500 -0.39100
O 	O 	0.62820 0.81390 0.36080 -0.40700
O 	O 	0.46490 0.87730 0.49810 -0.47100
O 	O 	0.46600 0.58830 0.49450 -0.49300
O 	O 	0.54690 0.80300 0.49670 -0.42800
O 	O 	0.59930 0.75450 0.50100 -0.39300
O 	O 	0.59950 0.84420 0.49760 -0.38700
O 	O 	0.54820 0.74310 0.49860 -0.44000
O 	O 	0.58850 0.62220 0.49580 -0.53300
O 	O 	0.46460 0.63170 0.49830 -0.40400
O 	O 	0.61670 0.66790 0.50770 -0.54400
O 	O 	0.39290 0.78840 0.66100 -0.39200
O 	O 	0.77620 0.94060 0.01100 -0.53100
O 	O 	0.71940 0.89510 0.90800 -0.43200
O 	O 	0.71950 0.89500 0.08700 -0.41100
C 	C 	0.40500 0.81200 0.72000 0.08000
C 	C 	0.51240 0.86480 0.50100 -0.12800
C 	C 	0.56710 0.65880 0.49600 -0.18300
C 	C 	0.55520 0.85540 0.49900 -0.07500
C 	C 	0.60290 0.80250 0.25500 0.34100
C 	C 	0.60490 0.80310 0.74200 0.24600
C 	C 	0.55570 0.69940 0.49900 -0.09500
C 	C 	0.56640 0.90930 0.50100 -0.10400
C 	C 	0.53450 0.64010 0.50400 0.10500
C 	C 	0.51030 0.64580 0.50200 -0.14600
C 	C 	0.53540 0.89760 0.49900 0.08400
C 	C 	0.59180 0.64590 0.49760 0.54900
C 	C 	0.52010 0.67590 0.50350 0.11200
C 	C 	0.52190 0.84390 0.49820 0.04500
C 	C 	0.48470 0.87210 0.49500 0.13600
C 	C 	0.56550 0.83100 0.49900 0.20600
C 	C 	0.48470 0.61340 0.49800 0.32700
C 	C 	0.56790 0.73580 0.49760 0.25400
C 	C 	0.57640 0.68670 0.49400 0.14600
C 	C 	0.57460 0.88850 0.50200 0.09900
C 	C 	0.61290 0.80610 0.99600 0.08000
C 	C 	0.62820 0.81150 0.86700 -0.07200
C 	C 	0.62730 0.81330 0.12800 -0.10100
C 	C 	0.65240 0.84500 0.10900 0.06900
C 	C 	0.65440 0.80980 0.11400 0.04500
C 	C 	0.65590 0.84210 0.87300 0.06100
C 	C 	0.65640 0.80960 0.87800 0.03600
C 	C 	0.70740 0.87360 0.99100 0.36000
C 	C 	0.67380 0.85380 0.99600 -0.13800
C 	C 	0.67470 0.81500 -0.00000 -0.03700
In	In	0.99995 0.35912 0.49990 1.99600
O 	O 	0.00070 0.36630 0.73720 -0.38100
O 	O 	0.99990 0.32440 0.64560 -0.43100
O 	O 	0.00040 0.36500 0.26060 -0.39200
O 	O 	0.96620 0.37920 0.50230 -0.43800
O 	O 	0.94800 0.32960 0.50200 -0.49400
O 	O 	0.99910 0.32300 0.35550 -0.42800
O 	O 	0.96240 0.22720 0.90100 -0.60300
O 	O 	0.96280 0.22830 0.09700 -0.49000
O 	O 	0.03620 0.26410 0.09700 -0.25700
O 	O 	0.03680 0.26390 0.90400 -0.24500
C 	C 	0.99980 0.33980 0.74500 0.27600
C 	C 	0.94730 0.35260 0.50270 0.38200
C 	C 	0.99850 0.33880 0.25900 0.27900
C 	C 	0.99950 0.34240 -0.00000 0.10400
C 	C 	0.02390 0.34140 0.90300 0.01300
C 	C 	0.99410 0.32400 0.89100 -0.09200
C 	C 	0.01680 0.30610 0.86300 0.03300
C 	C 	0.98650 0.29070 0.87800 0.07300
C 	C 	0.02160 0.34310 0.09000 0.00300
C 	C 	0.99280 0.32580 0.10700 -0.09300
C 	C 	0.98390 0.29130 0.12600 0.08300
C 	C 	0.01890 0.31020 0.12400 0.03700
C 	C 	0.03800 0.27980 0.00200 0.33400
C 	C 	0.95990 0.23710 0.98600 0.67200
C 	C 	0.03020 0.30540 0.99800 -0.09100
C 	C 	0.96620 0.27180 0.00400 -0.16300
In	In	0.64088 0.64083 0.49990 1.99600
O 	O 	0.63370 0.63440 0.73720 -0.38100
O 	O 	0.67560 0.67550 0.64560 -0.43100
O 	O 	0.63500 0.63540 0.26060 -0.39200
O 	O 	0.62080 0.58700 0.50230 -0.43800
O 	O 	0.67040 0.61840 0.50200 -0.49400
O 	O 	0.67700 0.67610 0.35550 -0.42800
O 	O 	0.77280 0.73520 0.90100 -0.60300
O 	O 	0.77170 0.73450 0.09700 -0.49000
O 	O 	0.73590 0.77210 0.09700 -0.25700
O 	O 	0.73610 0.77290 0.90400 -0.24500
C 	C 	0.66020 0.66000 0.74500 0.27600
C 	C 	0.64740 0.59470 0.50270 0.38200
C 	C 	0.66120 0.65970 0.25900 0.27900
C 	C 	0.65760 0.65710 -0.00000 0.10400
C 	C 	0.65860 0.68250 0.90300 0.01300
C 	C 	0.67600 0.67010 0.89100 -0.09200
C 	C 	0.69390 0.71070 0.86300 0.03300
C 	C 	0.70930 0.69580 0.87800 0.07300
C 	C 	0.65690 0.67850 0.09000 0.00400
C 	C 	0.67420 0.66700 0.10700 -0.09300
C 	C 	0.70870 0.69260 0.12600 0.08300
C 	C 	0.68980 0.70870 0.12400 0.03700
C 	C 	0.72020 0.75820 0.00200 0.33400
C 	C 	0.76290 0.72280 0.98600 0.67200
C 	C 	0.69460 0.72480 0.99800 -0.09100
C 	C 	0.72820 0.69440 0.00400 -0.16300
In	In	0.35917 0.00005 0.49990 1.99600
O 	O 	0.36560 0.99930 0.73720 -0.38100
O 	O 	0.32450 0.00010 0.64560 -0.43100
O 	O 	0.36460 0.99960 0.26060 -0.39200
O 	O 	0.41300 0.03380 0.50230 -0.43800
O 	O 	0.38160 0.05200 0.50200 -0.49400
O 	O 	0.32390 0.00090 0.35550 -0.42800
O 	O 	0.26480 0.03760 0.90100 -0.60300
O 	O 	0.26550 0.03720 0.09700 -0.49000
O 	O 	0.22790 0.96380 0.09700 -0.25700
O 	O 	0.22710 0.96320 0.90400 -0.24500
C 	C 	0.34000 0.00020 0.74500 0.27600
C 	C 	0.40530 0.05270 0.50270 0.38200
C 	C 	0.34030 0.00150 0.25900 0.27900
C 	C 	0.34290 0.00050 -0.00000 0.10400
C 	C 	0.31750 0.97610 0.90300 0.01300
C 	C 	0.32990 0.00590 0.89100 -0.09200
C 	C 	0.28930 0.98320 0.86300 0.03300
C 	C 	0.30420 0.01350 0.87800 0.07300
C 	C 	0.32150 0.97840 0.09000 0.00400
C 	C 	0.33300 0.00720 0.10700 -0.09300
C 	C 	0.30740 0.01610 0.12600 0.08300
C 	C 	0.29130 0.98110 0.12400 0.03700
C 	C 	0.24180 0.96200 0.00200 0.33400
C 	C 	0.27720 0.04010 0.98600 0.67200
C 	C 	0.27520 0.96980 0.99800 -0.09100
C 	C 	0.30560 0.03380 0.00400 -0.16300
In	In	0.00005 0.64088 0.50010 1.99600
O 	O 	0.99930 0.63370 0.26280 -0.38200
O 	O 	0.00010 0.67560 0.35440 -0.43100
O 	O 	0.99960 0.63500 0.73940 -0.39100
O 	O 	0.03380 0.62080 0.49770 -0.43800
O 	O 	0.05200 0.67040 0.49800 -0.49400
O 	O 	0.00090 0.67700 0.64450 -0.42700
O 	O 	0.03760 0.77280 0.09900 -0.60000
O 	O 	0.03720 0.77170 0.90300 -0.48500
O 	O 	0.96380 0.73590 0.90300 -0.25900
O 	O 	0.96320 0.73610 0.09600 -0.25000
C 	C 	0.00020 0.66020 0.25500 0.27600
C 	C 	0.05270 0.64740 0.49730 0.38100
C 	C 	0.00150 0.66120 0.74100 0.27900
C 	C 	0.00050 0.65760 -0.00000 0.10300
C 	C 	0.97610 0.65860 0.09700 0.01100
C 	C 	0.00590 0.67600 0.10900 -0.09200
C 	C 	0.98320 0.69390 0.13700 0.03700
C 	C 	0.01350 0.70930 0.12200 0.06800
C 	C 	0.97840 0.65690 0.91000 0.00500
C 	C 	0.00720 0.67420 0.89300 -0.09200
C 	C 	0.01610 0.70870 0.87400 0.08000
C 	C 	0.98110 0.68980 0.87600 0.04200
C 	C 	0.96200 0.72020 0.99800 0.34400
C 	C 	0.04010 0.76290 0.01400 0.66100
C 	C 	0.96980 0.69460 0.00200 -0.10000
C 	C 	0.03380 0.72820 0.99600 -0.15500
In	In	0.35912 0.35917 0.50010 1.99600
O 	O 	0.36630 0.36560 0.26280 -0.38200
O 	O 	0.32440 0.32450 0.35440 -0.43100
O 	O 	0.36500 0.36460 0.73940 -0.39100
O 	O 	0.37920 0.41300 0.49770 -0.43800
O 	O 	0.32960 0.38160 0.49800 -0.49400
O 	O 	0.32300 0.32390 0.64450 -0.42700
O 	O 	0.22720 0.26480 0.09900 -0.60000
O 	O 	0.22830 0.26550 0.90300 -0.48500
O 	O 	0.26410 0.22790 0.90300 -0.25900
O 	O 	0.26390 0.22710 0.09600 -0.25000
C 	C 	0.33980 0.34000 0.25500 0.27600
C 	C 	0.35260 0.40530 0.49730 0.38100
C 	C 	0.33880 0.34030 0.74100 0.27900
C 	C 	0.34240 0.34290 -0.00000 0.10300
C 	C 	0.34140 0.31750 0.09700 0.01100
C 	C 	0.32400 0.32990 0.10900 -0.09200
C 	C 	0.30610 0.28930 0.13700 0.03700
C 	C 	0.29070 0.30420 0.12200 0.06800
C 	C 	0.34310 0.32150 0.91000 0.00500
C 	C 	0.32580 0.33300 0.89300 -0.09200
C 	C 	0.29130 0.30740 0.87400 0.08000
C 	C 	0.31020 0.29130 0.87600 0.04200
C 	C 	0.27980 0.24180 0.99800 0.34400
C 	C 	0.23710 0.27720 0.01400 0.66100
C 	C 	0.30540 0.27520 0.00200 -0.10000
C 	C 	0.27180 0.30560 0.99600 -0.15500
In	In	0.64083 0.99995 0.50010 1.99600
O 	O 	0.63440 0.00070 0.26280 -0.38200
O 	O 	0.67550 0.99990 0.35440 -0.43100
O 	O 	0.63540 0.00040 0.73940 -0.39100
O 	O 	0.58700 0.96620 0.49770 -0.43800
O 	O 	0.61840 0.94800 0.49800 -0.49400
O 	O 	0.67610 0.99910 0.64450 -0.42700
O 	O 	0.73520 0.96240 0.09900 -0.60000
O 	O 	0.73450 0.96280 0.90300 -0.48500
O 	O 	0.77210 0.03620 0.90300 -0.25900
O 	O 	0.77290 0.03680 0.09600 -0.25000
C 	C 	0.66000 0.99980 0.25500 0.27600
C 	C 	0.59470 0.94730 0.49730 0.38100
C 	C 	0.65970 0.99850 0.74100 0.27900
C 	C 	0.65710 0.99950 -0.00000 0.10300
C 	C 	0.68250 0.02390 0.09700 0.01100
C 	C 	0.67010 0.99410 0.10900 -0.09200
C 	C 	0.71070 0.01680 0.13700 0.03700
C 	C 	0.69580 0.98650 0.12200 0.06800
C 	C 	0.67850 0.02160 0.91000 0.00500
C 	C 	0.66700 0.99280 0.89300 -0.09200
C 	C 	0.69260 0.98390 0.87400 0.08000
C 	C 	0.70870 0.01890 0.87600 0.04200
C 	C 	0.75820 0.03800 0.99800 0.34400
C 	C 	0.72280 0.95990 0.01400 0.66100
C 	C 	0.72480 0.03020 0.00200 -0.10000
C 	C 	0.69440 0.96620 0.99600 -0.15500
In	In	0.79334 0.20649 0.50024 1.98500
In	In	0.83501 0.41743 0.49940 1.92100
Ni	Ni	0.93402 0.17941 0.82240 1.02300
Ni	Ni	0.93457 0.17928 0.17740 1.00500
O 	O 	0.81280 0.18450 0.36110 -0.39700
O 	O 	0.78910 0.20930 0.24840 -0.39500
O 	O 	0.79020 0.21010 0.74590 -0.47600
O 	O 	0.84490 0.42380 0.27500 -0.39100
O 	O 	0.81390 0.18570 0.63920 -0.40700
O 	O 	0.87730 0.41240 0.50190 -0.47100
O 	O 	0.58830 0.12230 0.50550 -0.49300
O 	O 	0.80300 0.25610 0.50330 -0.42800
O 	O 	0.75450 0.15520 0.49900 -0.39300
O 	O 	0.84420 0.24470 0.50240 -0.38700
O 	O 	0.74310 0.19490 0.50140 -0.44000
O 	O 	0.62220 0.03370 0.50420 -0.53300
O 	O 	0.63170 0.16710 0.50170 -0.40300
O 	O 	0.66790 0.05120 0.49230 -0.54400
O 	O 	0.78840 0.39550 0.33900 -0.39200
O 	O 	0.94060 0.16440 0.98900 -0.52900
O 	O 	0.89510 0.17570 0.09200 -0.43200
O 	O 	0.89500 0.17550 0.91300 -0.40800
C 	C 	0.81200 0.40700 0.28000 0.07900
C 	C 	0.86480 0.35240 0.49900 -0.12800
C 	C 	0.65880 0.09170 0.50400 -0.18300
C 	C 	0.85540 0.30020 0.50100 -0.07500
C 	C 	0.80250 0.19960 0.74500 0.34000
C 	C 	0.80310 0.19820 0.25800 0.24500
C 	C 	0.69940 0.14370 0.50100 -0.09500
C 	C 	0.90930 0.34290 0.49900 -0.10400
C 	C 	0.64010 0.10560 0.49600 0.10500
C 	C 	0.64580 0.13550 0.49800 -0.14600
C 	C 	0.89760 0.36220 0.50100 0.08400
C 	C 	0.64590 0.05410 0.50240 0.54900
C 	C 	0.67590 0.15580 0.49650 0.11200
C 	C 	0.84390 0.32200 0.50180 0.04500
C 	C 	0.87210 0.38740 0.50500 0.13600
C 	C 	0.83100 0.26550 0.50100 0.20600
C 	C 	0.61340 0.12870 0.50200 0.32700
C 	C 	0.73580 0.16790 0.50240 0.25400
C 	C 	0.68670 0.11030 0.50600 0.14600
C 	C 	0.88850 0.31390 0.49800 0.09900
C 	C 	0.80610 0.19320 0.00400 0.07500
C 	C 	0.81150 0.18330 0.13300 -0.07100
C 	C 	0.81330 0.18600 0.87200 -0.09800
C 	C 	0.84500 0.19260 0.89100 0.07200
C 	C 	0.80980 0.15540 0.88600 0.04500
C 	C 	0.84210 0.18620 0.12700 0.06100
C 	C 	0.80960 0.15320 0.12200 0.03300
C 	C 	0.87360 0.16620 0.00900 0.35700
C 	C 	0.85380 0.18000 0.00400 -0.14200
C 	C 	0.81500 0.14030 -0.00000 -0.03300
In	In	0.79351 0.58685 0.50024 1.98500
In	In	0.58257 0.41758 0.49940 1.92100
Ni	Ni	0.82059 0.75461 0.82240 1.02300
Ni	Ni	0.82072 0.75529 0.17740 1.00500
O 	O 	0.81550 0.62830 0.36110 -0.39700
O 	O 	0.79070 0.57980 0.24840 -0.39500
O 	O 	0.78990 0.58010 0.74590 -0.47600
O 	O 	0.57620 0.42110 0.27500 -0.39100
O 	O 	0.81430 0.62820 0.63920 -0.40700
O 	O 	0.58760 0.46490 0.50190 -0.47100
O 	O 	0.87770 0.46600 0.50550 -0.49300
O 	O 	0.74390 0.54690 0.50330 -0.42800
O 	O 	0.84480 0.59930 0.49900 -0.39300
O 	O 	0.75530 0.59950 0.50240 -0.38700
O 	O 	0.80510 0.54820 0.50140 -0.44000
O 	O 	0.96630 0.58850 0.50420 -0.53300
O 	O 	0.83290 0.46460 0.50170 -0.40300
O 	O 	0.94880 0.61670 0.49230 -0.54400
O 	O 	0.60450 0.39290 0.33900 -0.39200
O 	O 	0.83560 0.77620 0.98900 -0.52900
O 	O 	0.82430 0.71940 0.09200 -0.43200
O 	O 	0.82450 0.71950 0.91300 -0.40800
C 	C 	0.59300 0.40500 0.28000 0.07900
C 	C 	0.64760 0.51240 0.49900 -0.12800
C 	C 	0.90830 0.56710 0.50400 -0.18300
C 	C 	0.69980 0.55520 0.50100 -0.07500
C 	C 	0.80040 0.60290 0.74500 0.34000
C 	C 	0.80180 0.60490 0.25800 0.24500
C 	C 	0.85630 0.55570 0.50100 -0.09500
C 	C 	0.65710 0.56640 0.49900 -0.10400
C 	C 	0.89440 0.53450 0.49600 0.10500
C 	C 	0.86450 0.51030 0.49800 -0.14600
C 	C 	0.63780 0.53540 0.50100 0.08400
C 	C 	0.94590 0.59180 0.50240 0.54900
C 	C 	0.84420 0.52010 0.49650 0.11200
C 	C 	0.67800 0.52190 0.50180 0.04500
C 	C 	0.61260 0.48470 0.50500 0.13600
C 	C 	0.73450 0.56550 0.50100 0.20600
C 	C 	0.87130 0.48470 0.50200 0.32700
C 	C 	0.83210 0.56790 0.50240 0.25400
C 	C 	0.88970 0.57640 0.50600 0.14600
C 	C 	0.68610 0.57460 0.49800 0.09900
C 	C 	0.80680 0.61290 0.00400 0.07500
C 	C 	0.81670 0.62820 0.13300 -0.07100
C 	C 	0.81400 0.62730 0.87200 -0.09800
C 	C 	0.80740 0.65240 0.89100 0.07200
C 	C 	0.84460 0.65440 0.88600 0.04500
C 	C 	0.81380 0.65590 0.12700 0.06100
C 	C 	0.84680 0.65640 0.12200 0.03300
C 	C 	0.83380 0.70740 0.00900 0.35700
C 	C 	0.82000 0.67380 0.00400 -0.14200
C 	C 	0.85970 0.67470 -0.00000 -0.03300
In	In	0.41315 0.20666 0.50024 1.98500
In	In	0.58242 0.16499 0.49940 1.92100
Ni	Ni	0.24539 0.06598 0.82240 1.02300
Ni	Ni	0.24471 0.06543 0.17740 1.00500
O 	O 	0.37170 0.18720 0.36110 -0.39700
O 	O 	0.42020 0.21090 0.24840 -0.39500
O 	O 	0.41990 0.20980 0.74590 -0.47600
O 	O 	0.57890 0.15510 0.27500 -0.39100
O 	O 	0.37180 0.18610 0.63920 -0.40700
O 	O 	0.53510 0.12270 0.50190 -0.47100
O 	O 	0.53400 0.41170 0.50550 -0.49300
O 	O 	0.45310 0.19700 0.50330 -0.42800
O 	O 	0.40070 0.24550 0.49900 -0.39300
O 	O 	0.40050 0.15580 0.50240 -0.38700
O 	O 	0.45180 0.25690 0.50140 -0.44000
O 	O 	0.41150 0.37780 0.50420 -0.53300
O 	O 	0.53540 0.36830 0.50170 -0.40300
O 	O 	0.38330 0.33210 0.49230 -0.54400
O 	O 	0.60710 0.21160 0.33900 -0.39200
O 	O 	0.22380 0.05940 0.98900 -0.52900
O 	O 	0.28060 0.10490 0.09200 -0.43200
O 	O 	0.28050 0.10500 0.91300 -0.40800
C 	C 	0.59500 0.18800 0.28000 0.07900
C 	C 	0.48760 0.13520 0.49900 -0.12800
C 	C 	0.43290 0.34120 0.50400 -0.18300
C 	C 	0.44480 0.14460 0.50100 -0.07500
C 	C 	0.39710 0.19750 0.74500 0.34000
C 	C 	0.39510 0.19690 0.25800 0.24500
C 	C 	0.44430 0.30060 0.50100 -0.09500
C 	C 	0.43360 0.09070 0.49900 -0.10400
C 	C 	0.46550 0.35990 0.49600 0.10500
C 	C 	0.48970 0.35420 0.49800 -0.14600
C 	C 	0.46460 0.10240 0.50100 0.08400
C 	C 	0.40820 0.35410 0.50240 0.54900
C 	C 	0.47990 0.32410 0.49650 0.11200
C 	C 	0.47810 0.15610 0.50180 0.04500
C 	C 	0.51530 0.12790 0.50500 0.13600
C 	C 	0.43450 0.16900 0.50100 0.20600
C 	C 	0.51530 0.38660 0.50200 0.32700
C 	C 	0.43210 0.26420 0.50240 0.25400
C 	C 	0.42360 0.31330 0.50600 0.14600
C 	C 	0.42540 0.11150 0.49800 0.09900
C 	C 	0.38710 0.19390 0.00400 0.07500
C 	C 	0.37180 0.18850 0.13300 -0.07100
C 	C 	0.37270 0.18670 0.87200 -0.09800
C 	C 	0.34760 0.15500 0.89100 0.07200
C 	C 	0.34560 0.19020 0.88600 0.04500
C 	C 	0.34410 0.15790 0.12700 0.06100
C 	C 	0.34360 0.19040 0.12200 0.03300
C 	C 	0.29260 0.12640 0.00900 0.35700
C 	C 	0.32620 0.14620 0.00400 -0.14200
C 	C 	0.32530 0.18500 -0.00000 -0.03300
