data_crystal

_cell_length_a 12.04950
_cell_length_b 12.27730
_cell_length_c 19.10280
_cell_angle_alpha 91.66900
_cell_angle_beta  96.85000
_cell_angle_gamma 117.94500

_symmetry_space_group_name_	'P 1'
_symmetry_space_group_name_H-M	'P 1'

loop_
_symmetry_equiv_pos_as_xyz
  x,y,z

loop_
_atom_site_label
_atom_site_type_symbol
_atom_site_fract_x
_atom_site_fract_y
_atom_site_fract_z
_atom_site_charge
Cd	Cd	0.76911 0.50233 0.77854 1.20700
Cd	Cd	0.58859 0.66969 0.69812 1.22900
Cd	Cd	0.42655 0.32177 0.80199 1.22700
Cd	Cd	0.23089 0.49767 0.22146 1.20600
Cd	Cd	0.41141 0.33031 0.30188 1.22800
Cd	Cd	0.57345 0.67823 0.19801 1.22700
H 	H 	0.71310 0.54280 0.97320 0.02500
H 	H 	0.70180 0.57540 0.09500 0.02400
H 	H 	0.08530 0.33050 0.77740 0.04400
H 	H 	0.21390 0.64730 0.68320 0.04800
H 	H 	0.72210 0.14440 0.68860 0.05600
H 	H 	0.45740 0.98150 0.81440 0.05000
H 	H 	0.45370 0.79370 0.78620 0.01900
H 	H 	0.71460 0.95930 0.66030 0.01800
H 	H 	0.89570 0.33470 0.78050 0.00700
H 	H 	0.02810 0.65170 0.69220 0.02000
H 	H 	0.96680 0.00440 0.67070 0.05600
H 	H 	0.09790 0.85890 0.82750 0.04600
H 	H 	0.15660 0.18250 0.69500 0.01000
H 	H 	0.28200 0.04820 0.85020 0.01200
H 	H 	0.30490 0.24230 0.55900 0.05100
H 	H 	0.68220 0.47450 0.55760 0.04100
H 	H 	0.63600 0.44280 0.43340 0.02300
H 	H 	0.27160 0.22870 0.43720 0.02200
H 	H 	0.54500 0.75510 0.92770 0.04800
H 	H 	0.53210 0.77840 0.04720 0.01100
H 	H 	0.28690 0.45720 0.02680 0.02500
H 	H 	0.29820 0.42460 0.90500 0.02400
H 	H 	0.91470 0.66950 0.22260 0.04400
H 	H 	0.78610 0.35270 0.31680 0.04800
H 	H 	0.27790 0.85560 0.31140 0.05600
H 	H 	0.54260 0.01850 0.18560 0.05000
H 	H 	0.54630 0.20630 0.21380 0.01900
H 	H 	0.28540 0.04070 0.33970 0.01800
H 	H 	0.10430 0.66530 0.21950 0.00700
H 	H 	0.97190 0.34830 0.30780 0.02000
H 	H 	0.03320 0.99560 0.32930 0.05600
H 	H 	0.90210 0.14110 0.17250 0.04600
H 	H 	0.84340 0.81750 0.30500 0.01000
H 	H 	0.71800 0.95180 0.14980 0.01200
H 	H 	0.69510 0.75770 0.44100 0.05100
H 	H 	0.31780 0.52550 0.44240 0.04100
H 	H 	0.36400 0.55720 0.56660 0.02300
H 	H 	0.72840 0.77130 0.56280 0.02200
H 	H 	0.45500 0.24490 0.07230 0.04800
H 	H 	0.46790 0.22160 0.95280 0.01100
C 	C 	0.17700 0.49440 0.73440 -0.08100
C 	C 	0.30100 0.49540 0.73750 0.37600
C 	C 	0.67300 0.58870 0.98750 -0.02800
C 	C 	0.61790 0.63820 0.93700 -0.08200
C 	C 	0.61840 0.60850 0.86020 0.36000
C 	C 	0.88220 0.79020 0.73530 0.38900
C 	C 	0.51680 0.38880 0.65330 0.40000
C 	C 	0.66680 0.60940 0.06050 0.00800
C 	C 	0.07600 0.39820 0.76040 -0.03300
C 	C 	0.00780 0.91070 0.74790 -0.06400
C 	C 	0.59530 0.20310 0.77550 0.35500
C 	C 	0.15150 0.58440 0.70590 -0.03000
C 	C 	0.59160 0.08390 0.75740 -0.06800
C 	C 	0.66680 0.07320 0.70940 -0.03900
C 	C 	0.51230 0.97880 0.78330 -0.03500
C 	C 	0.50870 0.86510 0.76550 0.02200
C 	C 	0.66130 0.96240 0.69230 0.02200
C 	C 	0.96170 0.40090 0.76170 0.00700
C 	C 	0.03910 0.58510 0.70960 0.01000
C 	C 	0.02980 0.01010 0.70790 -0.05200
C 	C 	0.10670 0.92550 0.80050 -0.04100
C 	C 	0.14390 0.11620 0.72310 0.04400
C 	C 	0.21750 0.03790 0.81280 0.02000
C 	C 	0.49660 0.36550 0.57310 -0.08400
C 	C 	0.37440 0.28720 0.53440 -0.03000
C 	C 	0.59770 0.42330 0.53450 -0.03100
C 	C 	0.56880 0.40220 0.46020 0.02200
C 	C 	0.35550 0.27550 0.46200 0.01600
C 	C 	0.57310 0.71320 0.96040 -0.03100
C 	C 	0.56810 0.72890 0.03250 0.01900
C 	C 	0.82300 0.50560 0.26560 -0.08100
C 	C 	0.69900 0.50460 0.26250 0.37600
C 	C 	0.32700 0.41130 0.01250 -0.02800
C 	C 	0.38210 0.36180 0.06300 -0.08200
C 	C 	0.38160 0.39150 0.13980 0.36000
C 	C 	0.11780 0.20980 0.26470 0.38900
C 	C 	0.48320 0.61120 0.34670 0.40000
C 	C 	0.33320 0.39060 0.93950 0.00800
C 	C 	0.92400 0.60180 0.23960 -0.03300
C 	C 	0.99220 0.08930 0.25210 -0.06400
C 	C 	0.40470 0.79690 0.22450 0.35500
C 	C 	0.84850 0.41560 0.29410 -0.03000
C 	C 	0.40840 0.91610 0.24260 -0.06800
C 	C 	0.33320 0.92680 0.29060 -0.03900
C 	C 	0.48770 0.02120 0.21670 -0.03500
C 	C 	0.49130 0.13490 0.23450 0.02200
C 	C 	0.33870 0.03760 0.30770 0.02200
C 	C 	0.03830 0.59910 0.23830 0.00700
C 	C 	0.96090 0.41490 0.29040 0.01000
C 	C 	0.97020 0.98990 0.29210 -0.05200
C 	C 	0.89330 0.07450 0.19950 -0.04100
C 	C 	0.85610 0.88380 0.27690 0.04400
C 	C 	0.78250 0.96210 0.18720 0.02000
C 	C 	0.50340 0.63450 0.42690 -0.08400
C 	C 	0.62560 0.71280 0.46560 -0.03000
C 	C 	0.40230 0.57670 0.46550 -0.03100
C 	C 	0.43120 0.59780 0.53980 0.02200
C 	C 	0.64450 0.72450 0.53800 0.01600
C 	C 	0.42690 0.28680 0.03960 -0.03100
C 	C 	0.43190 0.27110 0.96750 0.01900
N 	N 	0.58230 0.85410 0.71910 -0.20000
N 	N 	0.94040 0.49140 0.73790 -0.21000
N 	N 	0.23740 0.13450 0.77310 -0.20600
N 	N 	0.45300 0.32890 0.42520 -0.20300
N 	N 	0.61160 0.67760 0.08160 -0.20600
N 	N 	0.41770 0.14590 0.28090 -0.20000
N 	N 	0.05960 0.50860 0.26210 -0.21000
N 	N 	0.76260 0.86550 0.22690 -0.20600
N 	N 	0.54700 0.67110 0.57480 -0.20300
N 	N 	0.38840 0.32240 0.91840 -0.20600
O 	O 	0.61700 0.68640 0.82000 -0.42400
O 	O 	0.61330 0.48910 0.68030 -0.53200
O 	O 	0.37430 0.56310 0.69380 -0.41900
O 	O 	0.61860 0.50830 0.84220 -0.55200
O 	O 	0.52550 0.20530 0.81810 -0.43900
O 	O 	0.32430 0.43590 0.78110 -0.44400
O 	O 	0.79730 0.78790 0.69340 -0.44800
O 	O 	0.43990 0.31390 0.68410 -0.45000
O 	O 	0.87810 0.70670 0.77390 -0.46400
O 	O 	0.67350 0.29450 0.74750 -0.43700
O 	O 	0.38300 0.31360 0.18000 -0.42400
O 	O 	0.38670 0.51090 0.31970 -0.53200
O 	O 	0.62570 0.43690 0.30620 -0.41900
O 	O 	0.38140 0.49170 0.15780 -0.55200
O 	O 	0.47450 0.79470 0.18190 -0.43900
O 	O 	0.67570 0.56410 0.21890 -0.44400
O 	O 	0.20270 0.21210 0.30660 -0.44800
O 	O 	0.56010 0.68610 0.31590 -0.45000
O 	O 	0.12190 0.29330 0.22610 -0.46400
O 	O 	0.32650 0.70550 0.25250 -0.43700
