data_crystal

_cell_length_a 9.88000
_cell_length_b 9.88000
_cell_length_c 13.33300
_cell_angle_alpha 90.00000
_cell_angle_beta  90.00000
_cell_angle_gamma 90.00000

_symmetry_space_group_name_	'P 1'
_symmetry_space_group_name_H-M	'P 1'

loop_
_symmetry_equiv_pos_as_xyz
  x,y,z

loop_
_atom_site_label
_atom_site_type_symbol
_atom_site_fract_x
_atom_site_fract_y
_atom_site_fract_z
_atom_site_charge
Co	Co	0.89604 0.14064 0.69823 1.19500
P 	P 	0.67284 0.38461 0.67912 0.52800
O 	O 	0.88580 0.05880 0.56480 -0.37000
O 	O 	0.81010 0.31650 0.67880 -0.37100
O 	O 	0.58300 0.32350 0.76200 -0.44600
O 	O 	0.69500 0.53660 0.69880 -0.42800
O 	O 	0.60690 0.36680 0.57530 -0.42200
Co	Co	0.10396 0.85936 0.69823 1.16600
P 	P 	0.32716 0.61539 0.67912 0.52900
O 	O 	0.11420 0.94120 0.56480 -0.35100
O 	O 	0.18990 0.68350 0.67880 -0.40700
O 	O 	0.41700 0.67650 0.76200 -0.43500
O 	O 	0.30500 0.46340 0.69880 -0.45100
O 	O 	0.39310 0.63320 0.57530 -0.41700
Co	Co	0.14064 0.10396 0.30177 1.14400
P 	P 	0.38461 0.32716 0.32088 0.52800
O 	O 	0.05880 0.11420 0.43520 -0.44100
O 	O 	0.31650 0.18990 0.32120 -0.42400
O 	O 	0.32350 0.41700 0.23800 -0.47100
O 	O 	0.53660 0.30500 0.30120 -0.45400
O 	O 	0.36680 0.39310 0.42470 -0.42900
Co	Co	0.85936 0.89604 0.30177 1.20600
P 	P 	0.61539 0.67284 0.32088 0.52800
O 	O 	0.94120 0.88580 0.43520 -0.29000
O 	O 	0.68350 0.81010 0.32120 -0.37700
O 	O 	0.67650 0.58300 0.23800 -0.45000
O 	O 	0.46340 0.69500 0.30120 -0.43800
O 	O 	0.63320 0.60690 0.42470 -0.41000
Co	Co	0.60396 0.64064 0.80177 1.18400
P 	P 	0.82716 0.88461 0.82088 0.58000
O 	O 	0.61420 0.55880 0.93520 -0.32300
O 	O 	0.68990 0.81650 0.82120 -0.36600
O 	O 	0.91700 0.82350 0.73800 -0.40100
O 	O 	0.80500 0.03660 0.80120 -0.46800
O 	O 	0.89310 0.86680 0.92470 -0.30500
Co	Co	0.39604 0.35936 0.80177 1.17800
P 	P 	0.17284 0.11539 0.82088 0.46700
O 	O 	0.38580 0.44120 0.93520 -0.33700
O 	O 	0.31010 0.18350 0.82120 -0.39200
O 	O 	0.08300 0.17650 0.73800 -0.49200
O 	O 	0.19500 0.96340 0.80120 -0.37500
O 	O 	0.10690 0.13320 0.92470 -0.39500
Co	Co	0.35936 0.60396 0.19823 1.17300
P 	P 	0.11539 0.82716 0.17912 0.47100
O 	O 	0.44120 0.61420 0.06480 -0.43300
O 	O 	0.18350 0.68990 0.17880 -0.41900
O 	O 	0.17650 0.91700 0.26200 -0.42100
O 	O 	0.96340 0.80500 0.19880 -0.37900
O 	O 	0.13320 0.89310 0.07530 -0.42700
Co	Co	0.64064 0.39604 0.19823 1.17400
P 	P 	0.88461 0.17284 0.17912 0.58900
O 	O 	0.55880 0.38580 0.06480 -0.44100
O 	O 	0.81650 0.31010 0.17880 -0.40000
O 	O 	0.82350 0.08300 0.26200 -0.48200
O 	O 	0.03660 0.19500 0.19880 -0.53200
O 	O 	0.86680 0.10690 0.07530 -0.45400
Co	Co	0.50000 0.50000 0.50000 1.17900
Co	Co	-0.00000 0.00000 -0.00000 1.05200
P 	P 	-0.00000 -0.00000 0.50000 0.28500
P 	P 	0.50000 0.50000 -0.00000 0.36800
