data_crystal

_cell_length_a 13.36100
_cell_length_b 13.78900
_cell_length_c 14.01700
_cell_angle_alpha 90.00000
_cell_angle_beta  90.00000
_cell_angle_gamma 90.00000

_symmetry_space_group_name_	'P 1'
_symmetry_space_group_name_H-M	'P 1'

loop_
_symmetry_equiv_pos_as_xyz
  x,y,z

loop_
_atom_site_label
_atom_site_type_symbol
_atom_site_fract_x
_atom_site_fract_y
_atom_site_fract_z
_atom_site_charge
Co	Co	0.37314 0.24059 0.98491 1.18500
Co	Co	0.37204 0.27507 0.73757 1.18300
Co	Co	0.56481 0.25931 0.35827 1.18400
Co	Co	0.25806 0.37372 0.34276 1.17500
Co	Co	0.27641 0.13222 0.37807 1.17600
P 	P 	0.39280 0.23900 0.21630 0.51700
P 	P 	0.38730 0.28210 0.50650 0.53000
P 	P 	0.25663 0.11120 0.83250 0.53800
P 	P 	0.24011 0.39223 0.88420 0.52700
P 	P 	0.56951 0.25840 0.86200 0.53200
O 	O 	0.39800 0.20140 0.11330 -0.41400
O 	O 	0.38080 0.15270 0.28520 -0.46600
O 	O 	0.49040 0.29250 0.24110 -0.41700
O 	O 	0.30330 0.30810 0.22600 -0.44600
O 	O 	0.38740 0.31940 0.60780 -0.39900
O 	O 	0.30900 0.20080 0.49730 -0.44000
O 	O 	0.49300 0.24640 0.47980 -0.42100
O 	O 	0.35930 0.36740 0.44180 -0.44900
O 	O 	0.34160 0.12940 0.90240 -0.45000
O 	O 	0.26930 0.17430 0.74350 -0.43200
O 	O 	0.15550 0.13100 0.87820 -0.42900
O 	O 	0.26190 0.00600 0.79810 -0.39200
O 	O 	0.26150 0.33210 0.97490 -0.42500
O 	O 	0.32730 0.38580 0.81410 -0.44500
O 	O 	0.14290 0.35710 0.83590 -0.42700
O 	O 	0.22580 0.49730 0.91650 -0.39000
O 	O 	0.50490 0.29150 0.94430 -0.41500
O 	O 	0.50680 0.23640 0.77340 -0.42500
O 	O 	0.62760 0.16660 0.89060 -0.42700
O 	O 	0.64100 0.34170 0.83670 -0.42800
Co	Co	0.62686 0.75941 0.98491 1.18400
Co	Co	0.62796 0.72493 0.73757 1.18200
Co	Co	0.43519 0.74069 0.35827 1.18400
Co	Co	0.74194 0.62628 0.34276 1.17500
Co	Co	0.72359 0.86778 0.37807 1.17600
P 	P 	0.60720 0.76100 0.21630 0.51700
P 	P 	0.61270 0.71790 0.50650 0.53000
P 	P 	0.74337 0.88880 0.83250 0.53800
P 	P 	0.75989 0.60777 0.88420 0.52700
P 	P 	0.43049 0.74160 0.86200 0.53200
O 	O 	0.60200 0.79860 0.11330 -0.41400
O 	O 	0.61920 0.84730 0.28520 -0.46600
O 	O 	0.50960 0.70750 0.24110 -0.41700
O 	O 	0.69670 0.69190 0.22600 -0.44600
O 	O 	0.61260 0.68060 0.60780 -0.39900
O 	O 	0.69100 0.79920 0.49730 -0.44000
O 	O 	0.50700 0.75360 0.47980 -0.42100
O 	O 	0.64070 0.63260 0.44180 -0.44900
O 	O 	0.65840 0.87060 0.90240 -0.45000
O 	O 	0.73070 0.82570 0.74350 -0.43200
O 	O 	0.84450 0.86900 0.87820 -0.42900
O 	O 	0.73810 0.99400 0.79810 -0.39200
O 	O 	0.73850 0.66790 0.97490 -0.42500
O 	O 	0.67270 0.61420 0.81410 -0.44500
O 	O 	0.85710 0.64290 0.83590 -0.42700
O 	O 	0.77420 0.50270 0.91650 -0.39000
O 	O 	0.49510 0.70850 0.94430 -0.41500
O 	O 	0.49320 0.76360 0.77340 -0.42500
O 	O 	0.37240 0.83340 0.89060 -0.42700
O 	O 	0.35900 0.65830 0.83670 -0.42800
Co	Co	0.87314 0.25941 0.48491 1.18000
Co	Co	0.87204 0.22493 0.23757 1.18100
Co	Co	0.06481 0.24069 0.85827 1.18400
Co	Co	0.75806 0.12628 0.84276 1.17500
Co	Co	0.77641 0.36778 0.87807 1.17700
P 	P 	0.89280 0.26100 0.71630 0.51700
P 	P 	0.88730 0.21790 0.00650 0.49300
P 	P 	0.75663 0.38880 0.33250 0.53800
P 	P 	0.74011 0.10777 0.38420 0.52700
P 	P 	0.06951 0.24160 0.36200 0.53200
O 	O 	0.89800 0.29860 0.61330 -0.40400
O 	O 	0.88080 0.34730 0.78520 -0.46400
O 	O 	0.99040 0.20750 0.74110 -0.41400
O 	O 	0.80330 0.19190 0.72600 -0.44200
O 	O 	0.88740 0.18060 0.10780 -0.40100
O 	O 	0.80900 0.29920 0.99730 -0.42400
O 	O 	0.99300 0.25360 0.97980 -0.40600
O 	O 	0.85930 0.13260 0.94180 -0.43500
O 	O 	0.84160 0.37060 0.40240 -0.45300
O 	O 	0.76930 0.32570 0.24350 -0.43500
O 	O 	0.65550 0.36900 0.37820 -0.43100
O 	O 	0.76190 0.49400 0.29810 -0.39500
O 	O 	0.76150 0.16790 0.47490 -0.43000
O 	O 	0.82730 0.11420 0.31410 -0.44700
O 	O 	0.64290 0.14290 0.33590 -0.42900
O 	O 	0.72580 0.00270 0.41650 -0.39400
O 	O 	0.00490 0.20850 0.44430 -0.42000
O 	O 	0.00680 0.26360 0.27340 -0.42800
O 	O 	0.12760 0.33340 0.39060 -0.43000
O 	O 	0.14100 0.15830 0.33670 -0.43100
Co	Co	0.12686 0.74059 0.48491 1.18000
Co	Co	0.12796 0.77507 0.23757 1.18100
Co	Co	0.93519 0.75931 0.85827 1.18400
Co	Co	0.24194 0.87372 0.84276 1.17500
Co	Co	0.22359 0.63222 0.87807 1.17700
P 	P 	0.10720 0.73900 0.71630 0.51700
P 	P 	0.11270 0.78210 0.00650 0.49300
P 	P 	0.24337 0.61120 0.33250 0.53800
P 	P 	0.25989 0.89223 0.38420 0.52700
P 	P 	0.93049 0.75840 0.36200 0.53200
O 	O 	0.10200 0.70140 0.61330 -0.40400
O 	O 	0.11920 0.65270 0.78520 -0.46400
O 	O 	0.00960 0.79250 0.74110 -0.41400
O 	O 	0.19670 0.80810 0.72600 -0.44200
O 	O 	0.11260 0.81940 0.10780 -0.40100
O 	O 	0.19100 0.70080 0.99730 -0.42400
O 	O 	0.00700 0.74640 0.97980 -0.40600
O 	O 	0.14070 0.86740 0.94180 -0.43500
O 	O 	0.15840 0.62940 0.40240 -0.45300
O 	O 	0.23070 0.67430 0.24350 -0.43500
O 	O 	0.34450 0.63100 0.37820 -0.43100
O 	O 	0.23810 0.50600 0.29810 -0.39500
O 	O 	0.23850 0.83210 0.47490 -0.43000
O 	O 	0.17270 0.88580 0.31410 -0.44700
O 	O 	0.35710 0.85710 0.33590 -0.42900
O 	O 	0.27420 0.99730 0.41650 -0.39400
O 	O 	0.99510 0.79150 0.44430 -0.42000
O 	O 	0.99320 0.73640 0.27340 -0.42800
O 	O 	0.87240 0.66660 0.39060 -0.43000
O 	O 	0.85900 0.84170 0.33670 -0.43100
