data_crystal

_cell_length_a 9.44400
_cell_length_b 9.15600
_cell_length_c 9.75600
_cell_angle_alpha 90.00000
_cell_angle_beta  117.45900
_cell_angle_gamma 90.00000

_symmetry_space_group_name_	'P 1'
_symmetry_space_group_name_H-M	'P 1'

loop_
_symmetry_equiv_pos_as_xyz
  x,y,z

loop_
_atom_site_label
_atom_site_type_symbol
_atom_site_fract_x
_atom_site_fract_y
_atom_site_fract_z
_atom_site_charge
P 	P 	0.85350 0.34470 0.02730 0.59400
P 	P 	0.32960 0.10130 0.06240 0.56900
O 	O 	0.00080 0.41610 0.15200 -0.49100
O 	O 	0.74720 0.44930 0.90430 -0.44400
O 	O 	0.75070 0.26870 0.08870 -0.50200
O 	O 	0.24070 0.06040 0.88980 -0.45300
O 	O 	0.34240 0.96400 0.16490 -0.31600
O 	O 	0.22790 0.22010 0.08710 -0.45500
O 	O 	0.49720 0.15000 0.11270 -0.50200
O 	O 	0.91100 0.22410 0.94620 -0.47600
H 	H 	0.93780 0.16510 0.00450 0.28000
H 	H 	0.26670 0.88200 0.09510 0.18100
P 	P 	0.64650 0.34470 0.47270 0.63200
P 	P 	0.17040 0.10130 0.43760 0.58300
O 	O 	0.49920 0.41610 0.34800 -0.50300
O 	O 	0.75280 0.44930 0.59570 -0.45600
O 	O 	0.74930 0.26870 0.41130 -0.50300
O 	O 	0.25930 0.06040 0.61020 -0.46100
O 	O 	0.15760 0.96400 0.33510 -0.32500
O 	O 	0.27210 0.22010 0.41290 -0.45700
O 	O 	0.00280 0.15000 0.38730 -0.49500
O 	O 	0.58900 0.22410 0.55380 -0.53700
H 	H 	0.56220 0.16510 0.49550 0.33200
H 	H 	0.23330 0.88200 0.40490 0.17500
P 	P 	0.14650 0.65530 0.97270 0.59400
P 	P 	0.67040 0.89870 0.93760 0.56900
O 	O 	0.99920 0.58390 0.84800 -0.49100
O 	O 	0.25280 0.55070 0.09570 -0.44400
O 	O 	0.24930 0.73130 0.91130 -0.50200
O 	O 	0.75930 0.93960 0.11020 -0.45300
O 	O 	0.65760 0.03600 0.83510 -0.31600
O 	O 	0.77210 0.77990 0.91290 -0.45500
O 	O 	0.50280 0.85000 0.88730 -0.50200
O 	O 	0.08900 0.77590 0.05380 -0.47600
H 	H 	0.06220 0.83490 0.99550 0.28000
H 	H 	0.73330 0.11800 0.90490 0.18100
P 	P 	0.35350 0.65530 0.52730 0.63200
P 	P 	0.82960 0.89870 0.56240 0.58300
O 	O 	0.50080 0.58390 0.65200 -0.50300
O 	O 	0.24720 0.55070 0.40430 -0.45600
O 	O 	0.25070 0.73130 0.58870 -0.50300
O 	O 	0.74070 0.93960 0.38980 -0.46100
O 	O 	0.84240 0.03600 0.66490 -0.32500
O 	O 	0.72790 0.77990 0.58710 -0.45700
O 	O 	0.99720 0.85000 0.61270 -0.49500
O 	O 	0.41100 0.77590 0.44620 -0.53700
H 	H 	0.43780 0.83490 0.50450 0.33200
H 	H 	0.76670 0.11800 0.59510 0.17500
In	In	0.25000 0.39060 0.25000 2.02000
In	In	0.75000 0.60940 0.75000 2.02000
In	In	0.75000 0.11720 0.25000 2.01000
In	In	0.25000 0.88280 0.75000 2.01000
