data_crystal

_cell_length_a 9.45370
_cell_length_b 9.16550
_cell_length_c 9.75700
_cell_angle_alpha 90.00000
_cell_angle_beta  117.44800
_cell_angle_gamma 90.00000

_symmetry_space_group_name_	'P 1'
_symmetry_space_group_name_H-M	'P 1'

loop_
_symmetry_equiv_pos_as_xyz
  x,y,z

loop_
_atom_site_label
_atom_site_type_symbol
_atom_site_fract_x
_atom_site_fract_y
_atom_site_fract_z
_atom_site_charge
P 	P 	0.82937 0.89818 0.06219 0.61200
P 	P 	0.14603 0.65534 0.47196 0.62700
O 	O 	0.99860 0.85020 0.11350 -0.51200
O 	O 	0.24890 0.73010 0.41090 -0.49400
O 	O 	0.74350 0.93940 0.89100 -0.47100
O 	O 	0.25420 0.55010 0.59580 -0.48000
O 	O 	0.99870 0.58360 0.34690 -0.49600
O 	O 	0.72740 0.78050 0.08720 -0.43600
O 	O 	0.83970 0.03530 0.16330 -0.46200
H 	H 	0.89150 0.09950 0.14860 0.26500
O 	O 	0.08830 0.77550 0.55240 -0.47900
H 	H 	0.16610 0.81600 0.62090 0.31300
P 	P 	0.67063 0.89818 0.43781 0.61800
P 	P 	0.35397 0.65534 0.02804 0.62000
O 	O 	0.50140 0.85020 0.38650 -0.51600
O 	O 	0.25110 0.73010 0.08910 -0.49700
O 	O 	0.75650 0.93940 0.60900 -0.47600
O 	O 	0.24580 0.55010 0.90420 -0.47600
O 	O 	0.50130 0.58360 0.15310 -0.49700
O 	O 	0.77260 0.78050 0.41280 -0.43500
O 	O 	0.66030 0.03530 0.33670 -0.46700
H 	H 	0.60850 0.09950 0.35140 0.26500
O 	O 	0.41170 0.77550 0.94760 -0.47100
H 	H 	0.33390 0.81600 0.87910 0.31200
P 	P 	0.17063 0.10182 0.93781 0.61100
P 	P 	0.85397 0.34466 0.52804 0.62600
O 	O 	0.00140 0.14980 0.88650 -0.51200
O 	O 	0.75110 0.26990 0.58910 -0.49400
O 	O 	0.25650 0.06060 0.10900 -0.47100
O 	O 	0.74580 0.44990 0.40420 -0.48000
O 	O 	0.00130 0.41640 0.65310 -0.49600
O 	O 	0.27260 0.21950 0.91280 -0.43600
O 	O 	0.16030 0.96470 0.83670 -0.46200
H 	H 	0.10850 0.90050 0.85140 0.26500
O 	O 	0.91170 0.22450 0.44760 -0.47900
H 	H 	0.83390 0.18400 0.37910 0.31300
P 	P 	0.32937 0.10182 0.56219 0.61800
P 	P 	0.64603 0.34466 0.97196 0.62000
O 	O 	0.49860 0.14980 0.61350 -0.51600
O 	O 	0.74890 0.26990 0.91090 -0.49700
O 	O 	0.24350 0.06060 0.39100 -0.47600
O 	O 	0.75420 0.44990 0.09580 -0.47600
O 	O 	0.49870 0.41640 0.84690 -0.49700
O 	O 	0.22740 0.21950 0.58720 -0.43500
O 	O 	0.33970 0.96470 0.66330 -0.46700
H 	H 	0.39150 0.90050 0.64860 0.26500
O 	O 	0.58830 0.22450 0.05240 -0.47100
H 	H 	0.66610 0.18400 0.12090 0.31200
In	In	0.25000 0.88312 0.25000 2.01300
In	In	0.75000 0.11688 0.75000 2.01300
In	In	0.25000 0.39082 0.75000 2.02100
In	In	0.75000 0.60918 0.25000 2.02100
