data_crystal

_cell_length_a 9.69000
_cell_length_b 14.43310
_cell_length_c 29.84420
_cell_angle_alpha 90.00000
_cell_angle_beta  90.00000
_cell_angle_gamma 90.00000

_symmetry_space_group_name_	'P 1'
_symmetry_space_group_name_H-M	'P 1'

loop_
_symmetry_equiv_pos_as_xyz
  x,y,z

loop_
_atom_site_label
_atom_site_type_symbol
_atom_site_fract_x
_atom_site_fract_y
_atom_site_fract_z
_atom_site_charge
Mn	Mn	0.13053 0.23551 0.70051 1.31800
Mn	Mn	0.24975 0.45728 0.54606 1.31800
P 	P 	0.06314 0.29612 0.59580 0.57800
P 	P 	0.28638 0.53050 0.65278 0.62800
O 	O 	0.32540 0.50290 0.60690 -0.42600
O 	O 	0.39390 0.49025 0.68610 -0.45500
H 	H 	0.37130 0.43750 0.69320 0.32200
O 	O 	0.14270 0.49169 0.66564 -0.44800
H 	H 	0.13630 0.43790 0.65700 0.28300
O 	O 	0.28170 0.63260 0.65879 -0.40100
O 	O 	0.18810 0.32170 0.56932 -0.38200
O 	O 	0.07590 0.32026 0.64442 -0.42300
O 	O 	0.93110 0.34434 0.57759 -0.39100
H 	H 	0.95040 0.39680 0.56910 0.24900
O 	O 	0.02840 0.19072 0.58922 -0.39800
H 	H 	0.07410 0.15970 0.60680 0.27100
O 	O 	0.44610 0.39624 0.52473 -0.30600
O 	O 	0.64490 0.43180 0.49199 -0.30900
O 	O 	0.13050 0.42305 0.48493 -0.31300
O 	O 	0.93200 0.45352 0.45081 -0.33100
O 	O 	0.92710 0.17063 0.70349 -0.31000
O 	O 	0.01570 0.31810 0.75027 -0.33200
O 	O 	0.73160 0.17220 0.74166 -0.31500
O 	O 	0.82200 0.31753 0.78965 -0.36200
C 	C 	0.52600 0.45020 0.50465 0.23700
C 	C 	0.01870 0.46420 0.48163 0.21700
C 	C 	0.84890 0.20200 0.73337 0.22700
C 	C 	0.90140 0.28650 0.76006 0.24700
Mn	Mn	0.36947 0.76449 0.20051 1.32000
Mn	Mn	0.25025 0.54272 0.04606 1.31900
P 	P 	0.43686 0.70388 0.09580 0.58000
P 	P 	0.21362 0.46950 0.15278 0.62900
O 	O 	0.17460 0.49710 0.10690 -0.42500
O 	O 	0.10610 0.50975 0.18610 -0.45400
H 	H 	0.12870 0.56250 0.19320 0.32300
O 	O 	0.35730 0.50831 0.16564 -0.44700
H 	H 	0.36370 0.56210 0.15700 0.28300
O 	O 	0.21830 0.36740 0.15879 -0.40100
O 	O 	0.31190 0.67830 0.06932 -0.38200
O 	O 	0.42410 0.67974 0.14442 -0.42300
O 	O 	0.56890 0.65566 0.07759 -0.39200
H 	H 	0.54960 0.60320 0.06910 0.25000
O 	O 	0.47160 0.80928 0.08922 -0.39700
H 	H 	0.42590 0.84030 0.10680 0.27100
O 	O 	0.05390 0.60376 0.02473 -0.30600
O 	O 	0.85510 0.56820 0.99199 -0.31000
O 	O 	0.36950 0.57695 0.98493 -0.31300
O 	O 	0.56800 0.54648 0.95081 -0.33200
O 	O 	0.57290 0.82937 0.20349 -0.31100
O 	O 	0.48430 0.68190 0.25027 -0.33100
O 	O 	0.76840 0.82780 0.24166 -0.31600
O 	O 	0.67800 0.68247 0.28965 -0.36200
C 	C 	0.97400 0.54980 0.00465 0.23700
C 	C 	0.48130 0.53580 0.98163 0.21700
C 	C 	0.65110 0.79800 0.23337 0.22800
C 	C 	0.59860 0.71350 0.26006 0.24600
Mn	Mn	0.86947 0.73551 0.79949 1.32000
Mn	Mn	0.75025 0.95728 0.95394 1.31800
P 	P 	0.93686 0.79612 0.90420 0.57800
P 	P 	0.71362 0.03050 0.84722 0.63200
O 	O 	0.67460 0.00290 0.89310 -0.42500
O 	O 	0.60610 0.99025 0.81390 -0.45500
H 	H 	0.62870 0.93750 0.80680 0.32300
O 	O 	0.85730 0.99169 0.83436 -0.45000
H 	H 	0.86370 0.93790 0.84300 0.28300
O 	O 	0.71830 0.13260 0.84121 -0.40100
O 	O 	0.81190 0.82170 0.93068 -0.38300
O 	O 	0.92410 0.82026 0.85558 -0.42400
O 	O 	0.06890 0.84434 0.92241 -0.39100
H 	H 	0.04960 0.89680 0.93090 0.25000
O 	O 	0.97160 0.69072 0.91078 -0.39800
H 	H 	0.92590 0.65970 0.89320 0.27100
O 	O 	0.55390 0.89624 0.97527 -0.30600
O 	O 	0.35510 0.93180 0.00801 -0.30800
O 	O 	0.86950 0.92305 0.01507 -0.31200
O 	O 	0.06800 0.95352 0.04919 -0.32900
O 	O 	0.07290 0.67063 0.79651 -0.31000
O 	O 	0.98430 0.81810 0.74973 -0.33300
O 	O 	0.26840 0.67220 0.75834 -0.31500
O 	O 	0.17800 0.81753 0.71035 -0.36200
C 	C 	0.47400 0.95020 0.99535 0.23600
C 	C 	0.98130 0.96420 0.01837 0.21500
C 	C 	0.15110 0.70200 0.76663 0.22700
C 	C 	0.09860 0.78650 0.73994 0.24800
Mn	Mn	0.63053 0.26449 0.29949 1.32000
Mn	Mn	0.74975 0.04272 0.45394 1.31900
P 	P 	0.56314 0.20388 0.40420 0.58000
P 	P 	0.78638 0.96950 0.34722 0.62800
O 	O 	0.82540 0.99710 0.39310 -0.42600
O 	O 	0.89390 0.00975 0.31390 -0.45200
H 	H 	0.87130 0.06250 0.30680 0.32200
O 	O 	0.64270 0.00831 0.33436 -0.44600
H 	H 	0.63630 0.06210 0.34300 0.28300
O 	O 	0.78170 0.86740 0.34121 -0.40100
O 	O 	0.68810 0.17830 0.43068 -0.38200
O 	O 	0.57590 0.17974 0.35558 -0.42300
O 	O 	0.43110 0.15566 0.42241 -0.39200
H 	H 	0.45040 0.10320 0.43090 0.25000
O 	O 	0.52840 0.30928 0.41078 -0.39700
H 	H 	0.57410 0.34030 0.39320 0.27100
O 	O 	0.94610 0.10376 0.47527 -0.30400
O 	O 	0.14490 0.06820 0.50801 -0.30900
O 	O 	0.63050 0.07695 0.51507 -0.31200
O 	O 	0.43200 0.04648 0.54919 -0.33200
O 	O 	0.42710 0.32937 0.29651 -0.31100
O 	O 	0.51570 0.18190 0.24973 -0.33100
O 	O 	0.23160 0.32780 0.25834 -0.31600
O 	O 	0.32200 0.18247 0.21035 -0.36200
C 	C 	0.02600 0.04980 0.49535 0.23500
C 	C 	0.51870 0.03580 0.51837 0.21700
C 	C 	0.34890 0.29800 0.26663 0.22800
C 	C 	0.40140 0.21350 0.23994 0.24600
Mn	Mn	0.86947 0.76449 0.29949 1.31900
Mn	Mn	0.75025 0.54272 0.45394 1.31900
P 	P 	0.93686 0.70388 0.40420 0.57900
P 	P 	0.71362 0.46950 0.34722 0.62900
O 	O 	0.67460 0.49710 0.39310 -0.42500
O 	O 	0.60610 0.50975 0.31390 -0.45400
H 	H 	0.62870 0.56250 0.30680 0.32300
O 	O 	0.85730 0.50831 0.33436 -0.44700
H 	H 	0.86370 0.56210 0.34300 0.28300
O 	O 	0.71830 0.36740 0.34121 -0.40100
O 	O 	0.81190 0.67830 0.43068 -0.38200
O 	O 	0.92410 0.67974 0.35558 -0.42300
O 	O 	0.06890 0.65566 0.42241 -0.39100
H 	H 	0.04960 0.60320 0.43090 0.24900
O 	O 	0.97160 0.80928 0.41078 -0.39800
H 	H 	0.92590 0.84030 0.39320 0.27100
O 	O 	0.55390 0.60376 0.47527 -0.30600
O 	O 	0.35510 0.56820 0.50801 -0.30900
O 	O 	0.86950 0.57695 0.51507 -0.31300
O 	O 	0.06800 0.54648 0.54919 -0.33100
O 	O 	0.07290 0.82937 0.29651 -0.31000
O 	O 	0.98430 0.68190 0.24973 -0.33200
O 	O 	0.26840 0.82780 0.25834 -0.31500
O 	O 	0.17800 0.68247 0.21035 -0.36200
C 	C 	0.47400 0.54980 0.49535 0.23700
C 	C 	0.98130 0.53580 0.51837 0.21700
C 	C 	0.15110 0.79800 0.26663 0.22700
C 	C 	0.09860 0.71350 0.23994 0.24700
Mn	Mn	0.63053 0.23551 0.79949 1.32000
Mn	Mn	0.74975 0.45728 0.95394 1.31900
P 	P 	0.56314 0.29612 0.90420 0.58000
P 	P 	0.78638 0.53050 0.84722 0.62900
O 	O 	0.82540 0.50290 0.89310 -0.42500
O 	O 	0.89390 0.49025 0.81390 -0.45400
H 	H 	0.87130 0.43750 0.80680 0.32300
O 	O 	0.64270 0.49169 0.83436 -0.44700
H 	H 	0.63630 0.43790 0.84300 0.28300
O 	O 	0.78170 0.63260 0.84121 -0.40100
O 	O 	0.68810 0.32170 0.93068 -0.38200
O 	O 	0.57590 0.32026 0.85558 -0.42300
O 	O 	0.43110 0.34434 0.92241 -0.39200
H 	H 	0.45040 0.39680 0.93090 0.25000
O 	O 	0.52840 0.19072 0.91078 -0.39700
H 	H 	0.57410 0.15970 0.89320 0.27100
O 	O 	0.94610 0.39624 0.97527 -0.30600
O 	O 	0.14490 0.43180 0.00801 -0.31000
O 	O 	0.63050 0.42305 0.01507 -0.31300
O 	O 	0.43200 0.45352 0.04919 -0.33200
O 	O 	0.42710 0.17063 0.79651 -0.31100
O 	O 	0.51570 0.31810 0.74973 -0.33100
O 	O 	0.23160 0.17220 0.75834 -0.31600
O 	O 	0.32200 0.31753 0.71035 -0.36200
C 	C 	0.02600 0.45020 0.99535 0.23700
C 	C 	0.51870 0.46420 0.01837 0.21700
C 	C 	0.34890 0.20200 0.76663 0.22800
C 	C 	0.40140 0.28650 0.73994 0.24600
Mn	Mn	0.13053 0.26449 0.20051 1.32000
Mn	Mn	0.24975 0.04272 0.04606 1.31800
P 	P 	0.06314 0.20388 0.09580 0.57800
P 	P 	0.28638 0.96950 0.15278 0.63200
O 	O 	0.32540 0.99710 0.10690 -0.42500
O 	O 	0.39390 0.00975 0.18610 -0.45500
H 	H 	0.37130 0.06250 0.19320 0.32300
O 	O 	0.14270 0.00831 0.16564 -0.45000
H 	H 	0.13630 0.06210 0.15700 0.28300
O 	O 	0.28170 0.86740 0.15879 -0.40100
O 	O 	0.18810 0.17830 0.06932 -0.38300
O 	O 	0.07590 0.17974 0.14442 -0.42400
O 	O 	0.93110 0.15566 0.07759 -0.39100
H 	H 	0.95040 0.10320 0.06910 0.25000
O 	O 	0.02840 0.30928 0.08922 -0.39800
H 	H 	0.07410 0.34030 0.10680 0.27100
O 	O 	0.44610 0.10376 0.02473 -0.30600
O 	O 	0.64490 0.06820 0.99199 -0.30800
O 	O 	0.13050 0.07695 0.98493 -0.31200
O 	O 	0.93200 0.04648 0.95081 -0.32900
O 	O 	0.92710 0.32937 0.20349 -0.31000
O 	O 	0.01570 0.18190 0.25027 -0.33300
O 	O 	0.73160 0.32780 0.24166 -0.31500
O 	O 	0.82200 0.18247 0.28965 -0.36200
C 	C 	0.52600 0.04980 0.00465 0.23600
C 	C 	0.01870 0.03580 0.98163 0.21500
C 	C 	0.84890 0.29800 0.23337 0.22700
C 	C 	0.90140 0.21350 0.26006 0.24800
Mn	Mn	0.36947 0.73551 0.70051 1.32000
Mn	Mn	0.25025 0.95728 0.54606 1.31900
P 	P 	0.43686 0.79612 0.59580 0.58000
P 	P 	0.21362 0.03050 0.65278 0.62800
O 	O 	0.17460 0.00290 0.60690 -0.42600
O 	O 	0.10610 0.99025 0.68610 -0.45200
H 	H 	0.12870 0.93750 0.69320 0.32200
O 	O 	0.35730 0.99169 0.66564 -0.44600
H 	H 	0.36370 0.93790 0.65700 0.28300
O 	O 	0.21830 0.13260 0.65879 -0.40100
O 	O 	0.31190 0.82170 0.56932 -0.38200
O 	O 	0.42410 0.82026 0.64442 -0.42300
O 	O 	0.56890 0.84434 0.57759 -0.39200
H 	H 	0.54960 0.89680 0.56910 0.25000
O 	O 	0.47160 0.69072 0.58922 -0.39700
H 	H 	0.42590 0.65970 0.60680 0.27100
O 	O 	0.05390 0.89624 0.52473 -0.30400
O 	O 	0.85510 0.93180 0.49199 -0.30900
O 	O 	0.36950 0.92305 0.48493 -0.31200
O 	O 	0.56800 0.95352 0.45081 -0.33200
O 	O 	0.57290 0.67063 0.70349 -0.31100
O 	O 	0.48430 0.81810 0.75027 -0.33100
O 	O 	0.76840 0.67220 0.74166 -0.31600
O 	O 	0.67800 0.81753 0.78965 -0.36200
C 	C 	0.97400 0.95020 0.50465 0.23500
C 	C 	0.48130 0.96420 0.48163 0.21700
C 	C 	0.65110 0.70200 0.73337 0.22800
C 	C 	0.59860 0.78650 0.76006 0.24600
