data_crystal

_cell_length_a 8.38520
_cell_length_b 14.71100
_cell_length_c 15.77100
_cell_angle_alpha 90.00000
_cell_angle_beta  102.48500
_cell_angle_gamma 90.00000

_symmetry_space_group_name_	'P 1'
_symmetry_space_group_name_H-M	'P 1'

loop_
_symmetry_equiv_pos_as_xyz
  x,y,z

loop_
_atom_site_label
_atom_site_type_symbol
_atom_site_fract_x
_atom_site_fract_y
_atom_site_fract_z
_atom_site_charge
Co	Co	0.16833 0.91724 0.61030 1.15400
Co	Co	0.33167 0.41724 0.38970 1.15500
Co	Co	0.83167 0.08276 0.38970 1.15400
Co	Co	0.66833 0.58276 0.61030 1.15500
H 	H 	0.39830 0.69880 0.35630 0.01000
H 	H 	0.28390 0.94420 0.43120 0.01800
H 	H 	0.34720 0.93220 0.29370 -0.04900
H 	H 	0.51750 0.88470 0.32000 -0.04200
H 	H 	0.43370 0.76930 0.22790 0.24600
H 	H 	0.38980 0.86030 0.17640 0.24200
H 	H 	0.25350 0.80530 0.20820 0.24500
H 	H 	0.89200 0.89810 0.70480 0.00700
H 	H 	0.81610 0.93470 0.83110 0.09500
H 	H 	0.21150 0.08930 0.89420 0.08500
H 	H 	0.28080 0.04640 0.76760 -0.03000
H 	H 	0.84700 0.03540 0.95810 0.06600
H 	H 	0.00590 0.09430 0.98500 0.06800
H 	H 	0.10170 0.19880 0.64370 0.00900
H 	H 	0.21610 0.44420 0.56880 0.01800
H 	H 	0.15280 0.43220 0.70630 -0.04900
H 	H 	0.98250 0.38470 0.68000 -0.04100
H 	H 	0.06630 0.26930 0.77210 0.24500
H 	H 	0.11020 0.36030 0.82360 0.24100
H 	H 	0.24650 0.30530 0.79180 0.24400
H 	H 	0.60800 0.39810 0.29520 0.00700
H 	H 	0.68390 0.43470 0.16890 0.09400
H 	H 	0.28850 0.58930 0.10580 0.08500
H 	H 	0.21920 0.54640 0.23240 -0.02900
H 	H 	0.65300 0.53540 0.04190 0.06600
H 	H 	0.49410 0.59430 0.01500 0.06800
H 	H 	0.60170 0.30120 0.64370 0.00900
H 	H 	0.71610 0.05580 0.56880 0.01700
H 	H 	0.65280 0.06780 0.70630 -0.04900
H 	H 	0.48250 0.11530 0.68000 -0.04200
H 	H 	0.56630 0.23070 0.77210 0.24600
H 	H 	0.61020 0.13970 0.82360 0.24200
H 	H 	0.74650 0.19470 0.79180 0.24500
H 	H 	0.10800 0.10190 0.29520 0.00700
H 	H 	0.18390 0.06530 0.16890 0.09500
H 	H 	0.78850 0.91070 0.10580 0.08500
H 	H 	0.71920 0.95360 0.23240 -0.03000
H 	H 	0.15300 0.96460 0.04190 0.06600
H 	H 	0.99410 0.90570 0.01500 0.06800
H 	H 	0.89830 0.80120 0.35630 0.00900
H 	H 	0.78390 0.55580 0.43120 0.01800
H 	H 	0.84720 0.56780 0.29370 -0.04900
H 	H 	0.01750 0.61530 0.32000 -0.04100
H 	H 	0.93370 0.73070 0.22790 0.24500
H 	H 	0.88980 0.63970 0.17640 0.24100
H 	H 	0.75350 0.69470 0.20820 0.24400
H 	H 	0.39200 0.60190 0.70480 0.00700
H 	H 	0.31610 0.56530 0.83110 0.09400
H 	H 	0.71150 0.41070 0.89420 0.08500
H 	H 	0.78080 0.45360 0.76760 -0.02900
H 	H 	0.34700 0.46460 0.95810 0.06600
H 	H 	0.50590 0.40570 0.98500 0.06800
C 	C 	0.24580 0.75524 0.51901 0.01500
C 	C 	0.31000 0.69779 0.46483 -0.12000
C 	C 	0.35840 0.73612 0.39454 0.05600
C 	C 	0.34870 0.82889 0.37958 -0.12200
C 	C 	0.28920 0.88147 0.43891 0.07600
C 	C 	0.16880 0.72203 0.59166 0.27900
C 	C 	0.33620 0.59681 0.47953 0.40000
C 	C 	0.40090 0.87350 0.30383 0.26400
C 	C 	0.36650 0.82270 0.22210 -0.76200
C 	C 	0.95950 0.93600 0.74420 0.10900
C 	C 	0.91300 0.95800 0.82020 -0.19800
C 	C 	0.00800 0.01370 0.87994 0.14200
C 	C 	0.14550 0.04840 0.85740 -0.21100
C 	C 	0.18600 0.02280 0.78060 0.11100
C 	C 	0.96490 0.03440 0.96570 -0.17100
C 	C 	0.25420 0.25524 0.48099 0.01500
C 	C 	0.19000 0.19779 0.53517 -0.11900
C 	C 	0.14160 0.23612 0.60546 0.05500
C 	C 	0.15130 0.32889 0.62042 -0.12100
C 	C 	0.21080 0.38147 0.56109 0.07500
C 	C 	0.33120 0.22203 0.40834 0.27900
C 	C 	0.16380 0.09681 0.52047 0.40000
C 	C 	0.09910 0.37350 0.69617 0.26200
C 	C 	0.13350 0.32270 0.77790 -0.76000
C 	C 	0.54050 0.43600 0.25580 0.10700
C 	C 	0.58700 0.45800 0.17980 -0.19900
C 	C 	0.49200 0.51370 0.12006 0.14200
C 	C 	0.35450 0.54840 0.14260 -0.21000
C 	C 	0.31400 0.52280 0.21940 0.10900
C 	C 	0.53510 0.53440 0.03430 -0.17000
C 	C 	0.75420 0.24476 0.48099 0.01500
C 	C 	0.69000 0.30221 0.53517 -0.12000
C 	C 	0.64160 0.26388 0.60546 0.05600
C 	C 	0.65130 0.17111 0.62042 -0.12200
C 	C 	0.71080 0.11853 0.56109 0.07600
C 	C 	0.83120 0.27797 0.40834 0.27900
C 	C 	0.66380 0.40319 0.52047 0.40000
C 	C 	0.59910 0.12650 0.69617 0.26400
C 	C 	0.63350 0.17730 0.77790 -0.76200
C 	C 	0.04050 0.06400 0.25580 0.10900
C 	C 	0.08700 0.04200 0.17980 -0.19800
C 	C 	0.99200 0.98630 0.12006 0.14200
C 	C 	0.85450 0.95160 0.14260 -0.21100
C 	C 	0.81400 0.97720 0.21940 0.11100
C 	C 	0.03510 0.96560 0.03430 -0.17100
C 	C 	0.74580 0.74476 0.51901 0.01500
C 	C 	0.81000 0.80221 0.46483 -0.11900
C 	C 	0.85840 0.76388 0.39454 0.05500
C 	C 	0.84870 0.67111 0.37958 -0.12100
C 	C 	0.78920 0.61853 0.43891 0.07500
C 	C 	0.66880 0.77797 0.59166 0.27900
C 	C 	0.83620 0.90319 0.47953 0.40000
C 	C 	0.90090 0.62650 0.30383 0.26200
C 	C 	0.86650 0.67730 0.22210 -0.76000
C 	C 	0.45950 0.56400 0.74420 0.10700
C 	C 	0.41300 0.54200 0.82020 -0.19900
C 	C 	0.50800 0.48630 0.87994 0.14200
C 	C 	0.64550 0.45160 0.85740 -0.21000
C 	C 	0.68600 0.47720 0.78060 0.10900
C 	C 	0.46490 0.46560 0.96570 -0.17000
N 	N 	0.23900 0.84578 0.50680 -0.22100
N 	N 	0.09670 0.96638 0.72459 -0.24600
N 	N 	0.26100 0.34578 0.49320 -0.22000
N 	N 	0.40330 0.46638 0.27541 -0.24500
N 	N 	0.76100 0.15422 0.49320 -0.22100
N 	N 	0.90330 0.03362 0.27541 -0.24600
N 	N 	0.73900 0.65422 0.50680 -0.22000
N 	N 	0.59670 0.53362 0.72459 -0.24500
O 	O 	0.14260 0.78217 0.64524 -0.39200
O 	O 	0.13430 0.64056 0.59393 -0.24700
O 	O 	0.42740 0.56984 0.54811 -0.43900
O 	O 	0.26800 0.54697 0.41739 -0.43700
O 	O 	0.35740 0.28217 0.35476 -0.39100
O 	O 	0.36570 0.14056 0.40607 -0.24700
O 	O 	0.07260 0.06984 0.45189 -0.43800
O 	O 	0.23200 0.04697 0.58261 -0.43700
O 	O 	0.85740 0.21783 0.35476 -0.39200
O 	O 	0.86570 0.35944 0.40607 -0.24700
O 	O 	0.57260 0.43016 0.45189 -0.43900
O 	O 	0.73200 0.45303 0.58261 -0.43700
O 	O 	0.64260 0.71783 0.64524 -0.39100
O 	O 	0.63430 0.85944 0.59393 -0.24700
O 	O 	0.92740 0.93016 0.54811 -0.43800
O 	O 	0.76800 0.95303 0.41739 -0.43700
