data_crystal

_cell_length_a 8.62000
_cell_length_b 10.23800
_cell_length_c 11.07500
_cell_angle_alpha 64.03000
_cell_angle_beta  71.59000
_cell_angle_gamma 80.34000

_symmetry_space_group_name_	'P 1'
_symmetry_space_group_name_H-M	'P 1'

loop_
_symmetry_equiv_pos_as_xyz
  x,y,z

loop_
_atom_site_label
_atom_site_type_symbol
_atom_site_fract_x
_atom_site_fract_y
_atom_site_fract_z
_atom_site_charge
Eu	Eu	0.86884 0.56260 0.84495 1.68700
Eu	Eu	0.13116 0.43740 0.15505 1.68700
H 	H 	0.94790 0.76800 0.18260 0.03000
H 	H 	0.00050 0.03940 0.77520 0.04700
H 	H 	0.46050 0.65330 0.61400 0.04700
H 	H 	0.27800 0.38190 0.51650 0.05300
H 	H 	0.77420 0.94540 0.41250 0.05500
H 	H 	0.36650 0.87210 0.73680 0.03900
H 	H 	0.05210 0.23200 0.81740 0.02900
H 	H 	0.99950 0.96060 0.22480 0.04600
H 	H 	0.53950 0.34670 0.38600 0.04600
H 	H 	0.72200 0.61810 0.48350 0.05200
H 	H 	0.22580 0.05460 0.58750 0.05500
H 	H 	0.63350 0.12790 0.26320 0.03900
C 	C 	0.97000 0.88670 0.97500 -0.12600
C 	C 	0.96900 0.86190 0.10860 -0.00900
C 	C 	0.00040 0.02360 0.86640 -0.00600
C 	C 	0.93650 0.76520 0.94580 0.35900
C 	C 	0.34380 0.52020 0.57920 -0.06400
C 	C 	0.47700 0.59080 0.56770 -0.03000
C 	C 	0.36780 0.42950 0.51010 -0.03100
C 	C 	0.17820 0.54420 0.66250 0.29900
C 	C 	0.58410 0.89010 0.58720 -0.06500
C 	C 	0.66210 0.96720 0.44820 -0.02200
C 	C 	0.42080 0.92330 0.64090 -0.01600
C 	C 	0.67670 0.77000 0.67940 0.32100
C 	C 	0.03000 0.11330 0.02500 -0.12600
C 	C 	0.03100 0.13810 0.89140 -0.00900
C 	C 	0.99960 0.97640 0.13360 -0.00600
C 	C 	0.06350 0.23480 0.05420 0.35900
C 	C 	0.65620 0.47980 0.42080 -0.06400
C 	C 	0.52300 0.40920 0.43230 -0.03000
C 	C 	0.63220 0.57050 0.48990 -0.03100
C 	C 	0.82180 0.45580 0.33750 0.29900
C 	C 	0.41590 0.10990 0.41280 -0.06500
C 	C 	0.33790 0.03280 0.55180 -0.02200
C 	C 	0.57920 0.07670 0.35910 -0.01600
C 	C 	0.32330 0.23000 0.32060 0.32100
O 	O 	0.96930 0.63350 0.01780 -0.52600
O 	O 	0.87660 0.79840 0.84580 -0.41600
O 	O 	0.15880 0.62420 0.72870 -0.39000
O 	O 	0.05690 0.48400 0.66900 -0.39800
O 	O 	0.82160 0.74150 0.62570 -0.40000
O 	O 	0.60620 0.69790 0.80610 -0.43600
O 	O 	0.03070 0.36650 0.98220 -0.52600
O 	O 	0.12340 0.20160 0.15420 -0.41600
O 	O 	0.84120 0.37580 0.27130 -0.39000
O 	O 	0.94310 0.51600 0.33100 -0.39800
O 	O 	0.17840 0.25850 0.37430 -0.40000
O 	O 	0.39380 0.30210 0.19390 -0.43600
