data_crystal

_cell_length_a 8.61300
_cell_length_b 10.12200
_cell_length_c 11.09500
_cell_angle_alpha 65.20500
_cell_angle_beta  71.60900
_cell_angle_gamma 78.61700

_symmetry_space_group_name_	'P 1'
_symmetry_space_group_name_H-M	'P 1'

loop_
_symmetry_equiv_pos_as_xyz
  x,y,z

loop_
_atom_site_label
_atom_site_type_symbol
_atom_site_fract_x
_atom_site_fract_y
_atom_site_fract_z
_atom_site_charge
Eu	Eu	0.36782 0.06061 0.34674 1.72000
Eu	Eu	0.63218 0.93939 0.65326 1.72000
H 	H 	0.57590 0.71690 0.31760 0.03700
H 	H 	0.49150 0.47320 0.71700 0.04600
H 	H 	0.95770 0.14840 0.12040 0.04800
H 	H 	0.78470 0.87940 0.02000 0.05200
H 	H 	0.27050 0.43450 0.91570 0.05600
H 	H 	0.86630 0.38590 0.22900 0.04100
H 	H 	0.42410 0.28310 0.68240 0.03700
H 	H 	0.50850 0.52680 0.28300 0.04600
H 	H 	0.04230 0.85160 0.87960 0.04800
H 	H 	0.21530 0.12060 0.98000 0.05200
H 	H 	0.72950 0.56550 0.08430 0.05600
H 	H 	0.13370 0.61410 0.77100 0.04100
C 	C 	0.57140 0.73530 0.54960 0.37700
C 	C 	0.53110 0.61350 0.52400 -0.10800
C 	C 	0.54360 0.63050 0.39150 -0.02900
C 	C 	0.49310 0.48500 0.62880 -0.01300
C 	C 	0.67900 0.04110 0.16790 0.31300
C 	C 	0.84540 0.01780 0.08200 -0.07000
C 	C 	0.97490 0.08910 0.07140 -0.03700
C 	C 	0.87070 0.92820 0.01180 -0.02100
C 	C 	0.17420 0.26640 0.18260 0.32300
C 	C 	0.08200 0.38840 0.08780 -0.06300
C 	C 	0.16080 0.46080 0.94940 -0.02400
C 	C 	0.92000 0.43130 0.13660 -0.01800
C 	C 	0.42860 0.26470 0.45040 0.37700
C 	C 	0.46890 0.38650 0.47600 -0.10800
C 	C 	0.45640 0.36950 0.60850 -0.02900
C 	C 	0.50690 0.51500 0.37120 -0.01300
C 	C 	0.32100 0.95890 0.83210 0.31300
C 	C 	0.15460 0.98220 0.91800 -0.07000
C 	C 	0.02510 0.91090 0.92860 -0.03700
C 	C 	0.12930 0.07180 0.98820 -0.02100
C 	C 	0.82580 0.73360 0.81740 0.32300
C 	C 	0.91800 0.61160 0.91220 -0.06300
C 	C 	0.83920 0.53920 0.05060 -0.02400
C 	C 	0.08000 0.56870 0.86340 -0.01800
O 	O 	0.53680 0.86820 0.47800 -0.54700
O 	O 	0.63380 0.70360 0.64640 -0.42700
O 	O 	0.65570 0.12060 0.23470 -0.40200
O 	O 	0.56320 0.97520 0.17620 -0.40500
O 	O 	0.10120 0.20120 0.30410 -0.44100
O 	O 	0.32200 0.23540 0.13090 -0.40800
O 	O 	0.46320 0.13180 0.52200 -0.54700
O 	O 	0.36620 0.29640 0.35360 -0.42700
O 	O 	0.34430 0.87940 0.76530 -0.40200
O 	O 	0.43680 0.02480 0.82380 -0.40500
O 	O 	0.89880 0.79880 0.69590 -0.44100
O 	O 	0.67800 0.76460 0.86910 -0.40800
