data_crystal

_cell_length_a 21.60240
_cell_length_b 21.60240
_cell_length_c 11.38240
_cell_angle_alpha 90.00000
_cell_angle_beta  90.00000
_cell_angle_gamma 90.00000

_symmetry_space_group_name_	'P 1'
_symmetry_space_group_name_H-M	'P 1'

loop_
_symmetry_equiv_pos_as_xyz
  x,y,z

loop_
_atom_site_label
_atom_site_type_symbol
_atom_site_fract_x
_atom_site_fract_y
_atom_site_fract_z
_atom_site_charge
Eu	Eu	0.42799 0.56379 0.53109 2.16600
O 	O 	0.38052 0.46331 0.53950 -0.50500
O 	O 	0.32190 0.41881 0.39830 -0.47900
N 	N 	0.31167 0.31232 0.52140 -0.11300
O 	O 	0.14213 0.23551 0.39550 -0.40800
O 	O 	0.37479 0.24124 0.36190 -0.51700
O 	O 	0.24216 0.24466 0.36590 -0.58200
C 	C 	0.19734 0.29821 0.53350 -0.12900
C 	C 	0.24638 0.37627 0.65400 -0.04000
H 	H 	0.28160 0.40020 0.67510 0.06700
O 	O 	0.39116 0.16500 0.48980 -0.52400
C 	C 	0.25205 0.32890 0.57040 0.07400
C 	C 	0.36854 0.21613 0.46150 0.52600
C 	C 	0.36260 0.35498 0.55110 -0.34500
H 	H 	0.40240 0.33660 0.52560 0.12900
H 	H 	0.36430 0.36050 0.63740 0.13700
O 	O 	0.13906 0.44141 0.86260 -0.49800
C 	C 	0.18179 0.44016 0.79340 0.47500
C 	C 	0.18903 0.38852 0.70660 -0.10000
C 	C 	0.19337 0.25657 0.42660 0.36900
C 	C 	0.14136 0.30983 0.59090 -0.00500
H 	H 	0.10550 0.28700 0.56930 0.04100
C 	C 	0.13720 0.35400 0.67870 -0.02400
H 	H 	0.09930 0.36040 0.71920 0.05100
C 	C 	0.32997 0.24819 0.55520 -0.33700
H 	H 	0.29220 0.22350 0.57000 0.13200
H 	H 	0.35400 0.24980 0.62920 0.13500
O 	O 	0.22305 0.48413 0.78860 -0.48200
C 	C 	0.35450 0.41788 0.49280 0.49000
H 	H 	0.21000 0.51920 0.81300 0.30000
Eu	Eu	0.92799 0.06379 0.03109 2.14200
O 	O 	0.88052 0.96331 0.03950 -0.49100
O 	O 	0.82190 0.91881 0.89830 -0.47500
N 	N 	0.81167 0.81232 0.02140 -0.11300
O 	O 	0.64213 0.73551 0.89550 -0.40800
O 	O 	0.87479 0.74124 0.86190 -0.51600
O 	O 	0.74216 0.74466 0.86590 -0.58200
C 	C 	0.69734 0.79821 0.03350 -0.12300
C 	C 	0.74638 0.87627 0.15400 -0.03800
H 	H 	0.78160 0.90020 0.17510 0.06700
O 	O 	0.89116 0.66500 0.98980 -0.52400
C 	C 	0.75205 0.82890 0.07040 0.07400
C 	C 	0.86854 0.71613 0.96150 0.52100
C 	C 	0.86260 0.85498 0.05110 -0.33100
H 	H 	0.90240 0.83660 0.02560 0.12700
H 	H 	0.86430 0.86050 0.13740 0.13300
O 	O 	0.63906 0.94141 0.36260 -0.49800
C 	C 	0.68179 0.94016 0.29340 0.47400
C 	C 	0.68903 0.88852 0.20660 -0.09900
C 	C 	0.69337 0.75657 0.92660 0.36400
C 	C 	0.64136 0.80983 0.09090 -0.00700
H 	H 	0.60550 0.78700 0.06930 0.04300
C 	C 	0.63720 0.85400 0.17870 -0.02200
H 	H 	0.59930 0.86040 0.21920 0.05000
C 	C 	0.82997 0.74819 0.05520 -0.33100
H 	H 	0.79220 0.72350 0.07000 0.13100
H 	H 	0.85400 0.74980 0.12920 0.13300
O 	O 	0.72305 0.98413 0.28860 -0.47600
C 	C 	0.85450 0.91788 0.99280 0.47100
H 	H 	0.71000 0.01920 0.31300 0.29600
Eu	Eu	0.07201 0.43621 0.03109 2.16300
O 	O 	0.11948 0.53669 0.03950 -0.50400
O 	O 	0.17810 0.58119 0.89830 -0.47800
N 	N 	0.18833 0.68768 0.02140 -0.11300
O 	O 	0.35787 0.76449 0.89550 -0.40900
O 	O 	0.12521 0.75876 0.86190 -0.51600
O 	O 	0.25784 0.75534 0.86590 -0.58200
C 	C 	0.30266 0.70179 0.03350 -0.12300
C 	C 	0.25362 0.62373 0.15400 -0.03800
H 	H 	0.21840 0.59980 0.17510 0.06600
O 	O 	0.10884 0.83500 0.98980 -0.52300
C 	C 	0.24795 0.67110 0.07040 0.07300
C 	C 	0.13146 0.78387 0.96150 0.52100
C 	C 	0.13740 0.64502 0.05110 -0.34200
H 	H 	0.09760 0.66340 0.02560 0.12900
H 	H 	0.13570 0.63950 0.13740 0.13600
O 	O 	0.36094 0.55859 0.36260 -0.49900
C 	C 	0.31821 0.55984 0.29340 0.47600
C 	C 	0.31097 0.61148 0.20660 -0.10100
C 	C 	0.30663 0.74343 0.92660 0.36500
C 	C 	0.35864 0.69017 0.09090 -0.00800
H 	H 	0.39450 0.71300 0.06930 0.04300
C 	C 	0.36280 0.64600 0.17870 -0.02200
H 	H 	0.40070 0.63960 0.21920 0.05000
C 	C 	0.17003 0.75181 0.05520 -0.33100
H 	H 	0.20780 0.77650 0.07000 0.13200
H 	H 	0.14600 0.75020 0.12920 0.13300
O 	O 	0.27695 0.51587 0.28860 -0.48300
C 	C 	0.14550 0.58212 0.99280 0.48700
H 	H 	0.29000 0.48080 0.31300 0.30100
Eu	Eu	0.57201 0.93621 0.53109 2.16300
O 	O 	0.61948 0.03669 0.53950 -0.50500
O 	O 	0.67810 0.08119 0.39830 -0.47900
N 	N 	0.68833 0.18768 0.52140 -0.11300
O 	O 	0.85787 0.26449 0.39550 -0.40800
O 	O 	0.62521 0.25876 0.36190 -0.51700
O 	O 	0.75784 0.25534 0.36590 -0.58200
C 	C 	0.80266 0.20179 0.53350 -0.13000
C 	C 	0.75362 0.12373 0.65400 -0.04100
H 	H 	0.71840 0.09980 0.67510 0.06700
O 	O 	0.60884 0.33500 0.48980 -0.52400
C 	C 	0.74795 0.17110 0.57040 0.07500
C 	C 	0.63146 0.28387 0.46150 0.52700
C 	C 	0.63740 0.14502 0.55110 -0.34500
H 	H 	0.59760 0.16340 0.52560 0.12900
H 	H 	0.63570 0.13950 0.63740 0.13700
O 	O 	0.86094 0.05859 0.86260 -0.49200
C 	C 	0.81821 0.05984 0.79340 0.47100
C 	C 	0.81097 0.11148 0.70660 -0.09700
C 	C 	0.80663 0.24343 0.42660 0.36900
C 	C 	0.85864 0.19017 0.59090 -0.00400
H 	H 	0.89450 0.21300 0.56930 0.04100
C 	C 	0.86280 0.14600 0.67870 -0.02500
H 	H 	0.90070 0.13960 0.71920 0.05100
C 	C 	0.67003 0.25181 0.55520 -0.33700
H 	H 	0.70780 0.27650 0.57000 0.13200
H 	H 	0.64600 0.25020 0.62920 0.13500
O 	O 	0.77695 0.01587 0.78860 -0.47300
C 	C 	0.64550 0.08212 0.49280 0.49000
H 	H 	0.79000 0.98080 0.81300 0.29400
Eu	Eu	0.18621 0.67799 0.78109 2.16200
O 	O 	0.28669 0.63052 0.78950 -0.50600
O 	O 	0.33119 0.57190 0.64830 -0.47900
N 	N 	0.43768 0.56167 0.77140 -0.11300
O 	O 	0.51449 0.39213 0.64550 -0.40800
O 	O 	0.50876 0.62479 0.61190 -0.51700
O 	O 	0.50534 0.49216 0.61590 -0.58300
C 	C 	0.45179 0.44734 0.78350 -0.12900
C 	C 	0.37373 0.49638 0.90400 -0.04000
H 	H 	0.34980 0.53160 0.92510 0.06700
O 	O 	0.58500 0.64116 0.73980 -0.52500
C 	C 	0.42110 0.50205 0.82040 0.07500
C 	C 	0.53387 0.61854 0.71150 0.52600
C 	C 	0.39502 0.61260 0.80110 -0.34500
H 	H 	0.41340 0.65240 0.77560 0.12800
H 	H 	0.38950 0.61430 0.88740 0.13600
O 	O 	0.30859 0.38906 0.11260 -0.49900
C 	C 	0.30984 0.43179 0.04340 0.47300
C 	C 	0.36148 0.43903 0.95660 -0.09800
C 	C 	0.49343 0.44337 0.67660 0.36900
C 	C 	0.44017 0.39136 0.84090 -0.00400
H 	H 	0.46300 0.35550 0.81930 0.04100
C 	C 	0.39600 0.38720 0.92870 -0.02500
H 	H 	0.38960 0.34930 0.96920 0.05200
C 	C 	0.50181 0.57997 0.80520 -0.33700
H 	H 	0.52650 0.54220 0.82000 0.13200
H 	H 	0.50020 0.60400 0.87920 0.13400
O 	O 	0.26587 0.47305 0.03860 -0.48200
C 	C 	0.33212 0.60450 0.74280 0.49000
H 	H 	0.23080 0.46000 0.06300 0.30000
Eu	Eu	0.68621 0.17799 0.28109 2.16400
O 	O 	0.78669 0.13052 0.28950 -0.50600
O 	O 	0.83119 0.07190 0.14830 -0.47900
N 	N 	0.93768 0.06167 0.27140 -0.11200
O 	O 	0.01449 0.89213 0.14550 -0.40400
O 	O 	0.00876 0.12479 0.11190 -0.51700
O 	O 	0.00534 0.99216 0.11590 -0.57500
C 	C 	0.95179 0.94734 0.28350 -0.12100
C 	C 	0.87373 0.99638 0.40400 -0.02800
H 	H 	0.84980 0.03160 0.42510 0.06200
O 	O 	0.08500 0.14116 0.23980 -0.52400
C 	C 	0.92110 0.00205 0.32040 0.06300
C 	C 	0.03387 0.11854 0.21150 0.52500
C 	C 	0.89502 0.11260 0.30110 -0.34500
H 	H 	0.91340 0.15240 0.27560 0.12900
H 	H 	0.88950 0.11430 0.38740 0.13700
O 	O 	0.80859 0.88906 0.61260 -0.49900
C 	C 	0.80984 0.93179 0.54340 0.47700
C 	C 	0.86148 0.93903 0.45660 -0.10600
C 	C 	0.99343 0.94337 0.17660 0.36600
C 	C 	0.94017 0.89136 0.34090 -0.01100
H 	H 	0.96300 0.85550 0.31930 0.04300
C 	C 	0.89600 0.88720 0.42870 -0.01800
H 	H 	0.88960 0.84930 0.46920 0.04900
C 	C 	0.00181 0.07997 0.30520 -0.33700
H 	H 	0.02650 0.04220 0.32000 0.13100
H 	H 	0.00020 0.10400 0.37920 0.13500
O 	O 	0.76587 0.97305 0.53860 -0.48400
C 	C 	0.83212 0.10450 0.24280 0.49000
H 	H 	0.73080 0.96000 0.56300 0.30100
Eu	Eu	0.31379 0.32201 0.28109 2.16400
O 	O 	0.21331 0.36948 0.28950 -0.50600
O 	O 	0.16881 0.42810 0.14830 -0.47900
N 	N 	0.06232 0.43833 0.27140 -0.11300
O 	O 	0.98551 0.60787 0.14550 -0.40700
O 	O 	0.99124 0.37521 0.11190 -0.51800
O 	O 	0.99466 0.50784 0.11590 -0.58200
C 	C 	0.04821 0.55266 0.28350 -0.12900
C 	C 	0.12627 0.50362 0.40400 -0.03900
H 	H 	0.15020 0.46840 0.42510 0.06600
O 	O 	0.91500 0.35884 0.23980 -0.52400
C 	C 	0.07890 0.49795 0.32040 0.07400
C 	C 	0.96613 0.38146 0.21150 0.52700
C 	C 	0.10498 0.38740 0.30110 -0.34500
H 	H 	0.08660 0.34760 0.27560 0.12900
H 	H 	0.11050 0.38570 0.38740 0.13700
O 	O 	0.19141 0.61094 0.61260 -0.49900
C 	C 	0.19016 0.56821 0.54340 0.47500
C 	C 	0.13852 0.56097 0.45660 -0.10000
C 	C 	0.00657 0.55663 0.17660 0.36900
C 	C 	0.05983 0.60864 0.34090 -0.00600
H 	H 	0.03700 0.64450 0.31930 0.04100
C 	C 	0.10400 0.61280 0.42870 -0.02300
H 	H 	0.11040 0.65070 0.46920 0.05100
C 	C 	0.99819 0.42003 0.30520 -0.33800
H 	H 	0.97350 0.45780 0.32000 0.13200
H 	H 	0.99980 0.39600 0.37920 0.13500
O 	O 	0.23413 0.52695 0.53860 -0.48200
C 	C 	0.16788 0.39550 0.24280 0.49000
H 	H 	0.26920 0.54000 0.56300 0.30100
Eu	Eu	0.81379 0.82201 0.78109 2.16100
O 	O 	0.71331 0.86948 0.78950 -0.50600
O 	O 	0.66881 0.92810 0.64830 -0.47900
N 	N 	0.56232 0.93833 0.77140 -0.11100
O 	O 	0.48551 0.10787 0.64550 -0.40700
O 	O 	0.49124 0.87521 0.61190 -0.51700
O 	O 	0.49466 0.00784 0.61590 -0.58000
C 	C 	0.54821 0.05266 0.78350 -0.11600
C 	C 	0.62627 0.00362 0.90400 -0.01300
H 	H 	0.65020 0.96840 0.92510 0.05300
O 	O 	0.41500 0.85884 0.73980 -0.52500
C 	C 	0.57890 0.99795 0.82040 0.05400
C 	C 	0.46613 0.88146 0.71150 0.52600
C 	C 	0.60498 0.88740 0.80110 -0.34500
H 	H 	0.58660 0.84760 0.77560 0.12800
H 	H 	0.61050 0.88570 0.88740 0.13600
O 	O 	0.69141 0.11094 0.11260 -0.49900
C 	C 	0.69016 0.06821 0.04340 0.47100
C 	C 	0.63852 0.06097 0.95660 -0.10300
C 	C 	0.50657 0.05663 0.67660 0.36600
C 	C 	0.55983 0.10864 0.84090 -0.01300
H 	H 	0.53700 0.14450 0.81930 0.04400
C 	C 	0.60400 0.11280 0.92870 -0.01600
H 	H 	0.61040 0.15070 0.96920 0.05100
C 	C 	0.49819 0.92003 0.80520 -0.33700
H 	H 	0.47350 0.95780 0.82000 0.13000
H 	H 	0.49980 0.89600 0.87920 0.13300
O 	O 	0.73413 0.02695 0.03860 -0.48500
C 	C 	0.66788 0.89550 0.74280 0.49000
H 	H 	0.76920 0.04000 0.06300 0.30000
Eu	Eu	0.57201 0.43621 0.46891 2.16500
O 	O 	0.61948 0.53669 0.46050 -0.50600
O 	O 	0.67810 0.58119 0.60170 -0.47900
N 	N 	0.68833 0.68768 0.47860 -0.11300
O 	O 	0.85787 0.76449 0.60450 -0.40800
O 	O 	0.62521 0.75876 0.63810 -0.51700
O 	O 	0.75784 0.75534 0.63410 -0.58200
C 	C 	0.80266 0.70179 0.46650 -0.12900
C 	C 	0.75362 0.62373 0.34600 -0.04000
H 	H 	0.71840 0.59980 0.32490 0.06700
O 	O 	0.60884 0.83500 0.51020 -0.52400
C 	C 	0.74795 0.67110 0.42960 0.07400
C 	C 	0.63146 0.78387 0.53850 0.52600
C 	C 	0.63740 0.64502 0.44890 -0.34500
H 	H 	0.59760 0.66340 0.47440 0.12900
H 	H 	0.63570 0.63950 0.36260 0.13700
O 	O 	0.86094 0.55859 0.13740 -0.49800
C 	C 	0.81821 0.55984 0.20660 0.47500
C 	C 	0.81097 0.61148 0.29340 -0.10000
C 	C 	0.80663 0.74343 0.57340 0.36900
C 	C 	0.85864 0.69017 0.40910 -0.00500
H 	H 	0.89450 0.71300 0.43070 0.04100
C 	C 	0.86280 0.64600 0.32130 -0.02400
H 	H 	0.90070 0.63960 0.28080 0.05100
C 	C 	0.67003 0.75181 0.44480 -0.33700
H 	H 	0.70780 0.77650 0.43000 0.13200
H 	H 	0.64600 0.75020 0.37080 0.13500
O 	O 	0.77695 0.51587 0.21140 -0.48200
C 	C 	0.64550 0.58212 0.50720 0.49000
H 	H 	0.79000 0.48080 0.18700 0.30000
Eu	Eu	0.07201 0.93621 0.96891 2.14200
O 	O 	0.11948 0.03669 0.96050 -0.49100
O 	O 	0.17810 0.08119 0.10170 -0.47500
N 	N 	0.18833 0.18768 0.97860 -0.11300
O 	O 	0.35787 0.26449 0.10450 -0.40800
O 	O 	0.12521 0.25876 0.13810 -0.51600
O 	O 	0.25784 0.25534 0.13410 -0.58200
C 	C 	0.30266 0.20179 0.96650 -0.12300
C 	C 	0.25362 0.12373 0.84600 -0.03800
H 	H 	0.21840 0.09980 0.82490 0.06700
O 	O 	0.10884 0.33500 0.01020 -0.52400
C 	C 	0.24795 0.17110 0.92960 0.07400
C 	C 	0.13146 0.28387 0.03850 0.52100
C 	C 	0.13740 0.14502 0.94890 -0.33100
H 	H 	0.09760 0.16340 0.97440 0.12700
H 	H 	0.13570 0.13950 0.86260 0.13300
O 	O 	0.36094 0.05859 0.63740 -0.49800
C 	C 	0.31821 0.05984 0.70660 0.47400
C 	C 	0.31097 0.11148 0.79340 -0.09900
C 	C 	0.30663 0.24343 0.07340 0.36400
C 	C 	0.35864 0.19017 0.90910 -0.00700
H 	H 	0.39450 0.21300 0.93070 0.04300
C 	C 	0.36280 0.14600 0.82130 -0.02200
H 	H 	0.40070 0.13960 0.78080 0.05000
C 	C 	0.17003 0.25181 0.94480 -0.33100
H 	H 	0.20780 0.27650 0.93000 0.13100
H 	H 	0.14600 0.25020 0.87080 0.13300
O 	O 	0.27695 0.01587 0.71140 -0.47600
C 	C 	0.14550 0.08212 0.00720 0.47100
H 	H 	0.29000 0.98080 0.68700 0.29600
Eu	Eu	0.92799 0.56379 0.96891 2.16300
O 	O 	0.88052 0.46331 0.96050 -0.50400
O 	O 	0.82190 0.41881 0.10170 -0.47800
N 	N 	0.81167 0.31232 0.97860 -0.11300
O 	O 	0.64213 0.23551 0.10450 -0.40900
O 	O 	0.87479 0.24124 0.13810 -0.51600
O 	O 	0.74216 0.24466 0.13410 -0.58200
C 	C 	0.69734 0.29821 0.96650 -0.12300
C 	C 	0.74638 0.37627 0.84600 -0.03800
H 	H 	0.78160 0.40020 0.82490 0.06600
O 	O 	0.89116 0.16500 0.01020 -0.52300
C 	C 	0.75205 0.32890 0.92960 0.07300
C 	C 	0.86854 0.21613 0.03850 0.52100
C 	C 	0.86260 0.35498 0.94890 -0.34200
H 	H 	0.90240 0.33660 0.97440 0.12900
H 	H 	0.86430 0.36050 0.86260 0.13600
O 	O 	0.63906 0.44141 0.63740 -0.49900
C 	C 	0.68179 0.44016 0.70660 0.47600
C 	C 	0.68903 0.38852 0.79340 -0.10100
C 	C 	0.69337 0.25657 0.07340 0.36500
C 	C 	0.64136 0.30983 0.90910 -0.00800
H 	H 	0.60550 0.28700 0.93070 0.04300
C 	C 	0.63720 0.35400 0.82130 -0.02200
H 	H 	0.59930 0.36040 0.78080 0.05000
C 	C 	0.82997 0.24819 0.94480 -0.33100
H 	H 	0.79220 0.22350 0.93000 0.13200
H 	H 	0.85400 0.24980 0.87080 0.13300
O 	O 	0.72305 0.48413 0.71140 -0.48300
C 	C 	0.85450 0.41788 0.00720 0.48700
H 	H 	0.71000 0.51920 0.68700 0.30100
Eu	Eu	0.42799 0.06379 0.46891 2.16300
O 	O 	0.38052 0.96331 0.46050 -0.50500
O 	O 	0.32190 0.91881 0.60170 -0.47900
N 	N 	0.31167 0.81232 0.47860 -0.11300
O 	O 	0.14213 0.73551 0.60450 -0.40800
O 	O 	0.37479 0.74124 0.63810 -0.51700
O 	O 	0.24216 0.74466 0.63410 -0.58200
C 	C 	0.19734 0.79821 0.46650 -0.13000
C 	C 	0.24638 0.87627 0.34600 -0.04100
H 	H 	0.28160 0.90020 0.32490 0.06700
O 	O 	0.39116 0.66500 0.51020 -0.52400
C 	C 	0.25205 0.82890 0.42960 0.07500
C 	C 	0.36854 0.71613 0.53850 0.52700
C 	C 	0.36260 0.85498 0.44890 -0.34500
H 	H 	0.40240 0.83660 0.47440 0.12900
H 	H 	0.36430 0.86050 0.36260 0.13700
O 	O 	0.13906 0.94141 0.13740 -0.49200
C 	C 	0.18179 0.94016 0.20660 0.47100
C 	C 	0.18903 0.88852 0.29340 -0.09700
C 	C 	0.19337 0.75657 0.57340 0.36900
C 	C 	0.14136 0.80983 0.40910 -0.00400
H 	H 	0.10550 0.78700 0.43070 0.04100
C 	C 	0.13720 0.85400 0.32130 -0.02500
H 	H 	0.09930 0.86040 0.28080 0.05100
C 	C 	0.32997 0.74819 0.44480 -0.33700
H 	H 	0.29220 0.72350 0.43000 0.13200
H 	H 	0.35400 0.74980 0.37080 0.13500
O 	O 	0.22305 0.98413 0.21140 -0.47300
C 	C 	0.35450 0.91788 0.50720 0.49000
H 	H 	0.21000 0.01920 0.18700 0.29400
Eu	Eu	0.81379 0.32201 0.21891 2.16200
O 	O 	0.71331 0.36948 0.21050 -0.50600
O 	O 	0.66881 0.42810 0.35170 -0.47900
N 	N 	0.56232 0.43833 0.22860 -0.11300
O 	O 	0.48551 0.60787 0.35450 -0.40800
O 	O 	0.49124 0.37521 0.38810 -0.51700
O 	O 	0.49466 0.50784 0.38410 -0.58300
C 	C 	0.54821 0.55266 0.21650 -0.12900
C 	C 	0.62627 0.50362 0.09600 -0.04000
H 	H 	0.65020 0.46840 0.07490 0.06700
O 	O 	0.41500 0.35884 0.26020 -0.52500
C 	C 	0.57890 0.49795 0.17960 0.07500
C 	C 	0.46613 0.38146 0.28850 0.52600
C 	C 	0.60498 0.38740 0.19890 -0.34500
H 	H 	0.58660 0.34760 0.22440 0.12800
H 	H 	0.61050 0.38570 0.11260 0.13600
O 	O 	0.69141 0.61094 0.88740 -0.49900
C 	C 	0.69016 0.56821 0.95660 0.47300
C 	C 	0.63852 0.56097 0.04340 -0.09800
C 	C 	0.50657 0.55663 0.32340 0.36900
C 	C 	0.55983 0.60864 0.15910 -0.00400
H 	H 	0.53700 0.64450 0.18070 0.04100
C 	C 	0.60400 0.61280 0.07130 -0.02500
H 	H 	0.61040 0.65070 0.03080 0.05200
C 	C 	0.49819 0.42003 0.19480 -0.33700
H 	H 	0.47350 0.45780 0.18000 0.13200
H 	H 	0.49980 0.39600 0.12080 0.13400
O 	O 	0.73413 0.52695 0.96140 -0.48200
C 	C 	0.66788 0.39550 0.25720 0.49000
H 	H 	0.76920 0.54000 0.93700 0.30000
Eu	Eu	0.31379 0.82201 0.71891 2.16400
O 	O 	0.21331 0.86948 0.71050 -0.50600
O 	O 	0.16881 0.92810 0.85170 -0.47900
N 	N 	0.06232 0.93833 0.72860 -0.11200
O 	O 	0.98551 0.10787 0.85450 -0.40400
O 	O 	0.99124 0.87521 0.88810 -0.51700
O 	O 	0.99466 0.00784 0.88410 -0.57500
C 	C 	0.04821 0.05266 0.71650 -0.12100
C 	C 	0.12627 0.00362 0.59600 -0.02800
H 	H 	0.15020 0.96840 0.57490 0.06200
O 	O 	0.91500 0.85884 0.76020 -0.52400
C 	C 	0.07890 0.99795 0.67960 0.06300
C 	C 	0.96613 0.88146 0.78850 0.52500
C 	C 	0.10498 0.88740 0.69890 -0.34500
H 	H 	0.08660 0.84760 0.72440 0.12900
H 	H 	0.11050 0.88570 0.61260 0.13700
O 	O 	0.19141 0.11094 0.38740 -0.49900
C 	C 	0.19016 0.06821 0.45660 0.47700
C 	C 	0.13852 0.06097 0.54340 -0.10600
C 	C 	0.00657 0.05663 0.82340 0.36600
C 	C 	0.05983 0.10864 0.65910 -0.01100
H 	H 	0.03700 0.14450 0.68070 0.04300
C 	C 	0.10400 0.11280 0.57130 -0.01800
H 	H 	0.11040 0.15070 0.53080 0.04900
C 	C 	0.99819 0.92003 0.69480 -0.33700
H 	H 	0.97350 0.95780 0.68000 0.13100
H 	H 	0.99980 0.89600 0.62080 0.13500
O 	O 	0.23413 0.02695 0.46140 -0.48400
C 	C 	0.16788 0.89550 0.75720 0.49000
H 	H 	0.26920 0.04000 0.43700 0.30100
Eu	Eu	0.68621 0.67799 0.71891 2.16400
O 	O 	0.78669 0.63052 0.71050 -0.50600
O 	O 	0.83119 0.57190 0.85170 -0.47900
N 	N 	0.93768 0.56167 0.72860 -0.11300
O 	O 	0.01449 0.39213 0.85450 -0.40700
O 	O 	0.00876 0.62479 0.88810 -0.51800
O 	O 	0.00534 0.49216 0.88410 -0.58200
C 	C 	0.95179 0.44734 0.71650 -0.12900
C 	C 	0.87373 0.49638 0.59600 -0.03900
H 	H 	0.84980 0.53160 0.57490 0.06600
O 	O 	0.08500 0.64116 0.76020 -0.52400
C 	C 	0.92110 0.50205 0.67960 0.07400
C 	C 	0.03387 0.61854 0.78850 0.52700
C 	C 	0.89502 0.61260 0.69890 -0.34500
H 	H 	0.91340 0.65240 0.72440 0.12900
H 	H 	0.88950 0.61430 0.61260 0.13700
O 	O 	0.80859 0.38906 0.38740 -0.49900
C 	C 	0.80984 0.43179 0.45660 0.47500
C 	C 	0.86148 0.43903 0.54340 -0.10000
C 	C 	0.99343 0.44337 0.82340 0.36900
C 	C 	0.94017 0.39136 0.65910 -0.00600
H 	H 	0.96300 0.35550 0.68070 0.04100
C 	C 	0.89600 0.38720 0.57130 -0.02300
H 	H 	0.88960 0.34930 0.53080 0.05100
C 	C 	0.00181 0.57997 0.69480 -0.33800
H 	H 	0.02650 0.54220 0.68000 0.13200
H 	H 	0.00020 0.60400 0.62080 0.13500
O 	O 	0.76587 0.47305 0.46140 -0.48200
C 	C 	0.83212 0.60450 0.75720 0.49000
H 	H 	0.73080 0.46000 0.43700 0.30100
Eu	Eu	0.18621 0.17799 0.21891 2.16100
O 	O 	0.28669 0.13052 0.21050 -0.50600
O 	O 	0.33119 0.07190 0.35170 -0.47900
N 	N 	0.43768 0.06167 0.22860 -0.11100
O 	O 	0.51449 0.89213 0.35450 -0.40700
O 	O 	0.50876 0.12479 0.38810 -0.51700
O 	O 	0.50534 0.99216 0.38410 -0.58000
C 	C 	0.45179 0.94734 0.21650 -0.11600
C 	C 	0.37373 0.99638 0.09600 -0.01300
H 	H 	0.34980 0.03160 0.07490 0.05300
O 	O 	0.58500 0.14116 0.26020 -0.52500
C 	C 	0.42110 0.00205 0.17960 0.05400
C 	C 	0.53387 0.11854 0.28850 0.52600
C 	C 	0.39502 0.11260 0.19890 -0.34500
H 	H 	0.41340 0.15240 0.22440 0.12800
H 	H 	0.38950 0.11430 0.11260 0.13600
O 	O 	0.30859 0.88906 0.88740 -0.49900
C 	C 	0.30984 0.93179 0.95660 0.47100
C 	C 	0.36148 0.93903 0.04340 -0.10300
C 	C 	0.49343 0.94337 0.32340 0.36600
C 	C 	0.44017 0.89136 0.15910 -0.01300
H 	H 	0.46300 0.85550 0.18070 0.04400
C 	C 	0.39600 0.88720 0.07130 -0.01600
H 	H 	0.38960 0.84930 0.03080 0.05100
C 	C 	0.50181 0.07997 0.19480 -0.33700
H 	H 	0.52650 0.04220 0.18000 0.13000
H 	H 	0.50020 0.10400 0.12080 0.13300
O 	O 	0.26587 0.97305 0.96140 -0.48500
C 	C 	0.33212 0.10450 0.25720 0.49000
H 	H 	0.23080 0.96000 0.93700 0.30000
