data_crystal

_cell_length_a 9.11900
_cell_length_b 9.11900
_cell_length_c 14.49410
_cell_angle_alpha 100.22400
_cell_angle_beta  100.22400
_cell_angle_gamma 115.83200

_symmetry_space_group_name_	'P 1'
_symmetry_space_group_name_H-M	'P 1'

loop_
_symmetry_equiv_pos_as_xyz
  x,y,z

loop_
_atom_site_label
_atom_site_type_symbol
_atom_site_fract_x
_atom_site_fract_y
_atom_site_fract_z
_atom_site_charge
Gd	Gd	0.74049 0.99049 0.48098 1.50800
Gd	Gd	0.50951 0.75951 0.01902 1.51100
Gd	Gd	0.25951 0.00951 0.51902 1.50800
Gd	Gd	0.49049 0.24049 0.98098 1.51100
H 	H 	0.17920 0.56920 0.49040 0.10100
H 	H 	0.13440 0.51740 0.37680 0.09200
H 	H 	0.31120 0.42120 0.49040 0.10000
H 	H 	0.24240 0.35940 0.37680 0.09100
H 	H 	0.93080 0.32080 0.00960 0.09900
H 	H 	0.98260 0.36560 0.12320 0.08900
H 	H 	0.07880 0.18880 0.00960 0.10400
H 	H 	0.14060 0.25760 0.12320 0.09500
H 	H 	0.82080 0.43080 0.50960 0.10100
H 	H 	0.86560 0.48260 0.62320 0.09200
H 	H 	0.68880 0.57880 0.50960 0.10000
H 	H 	0.75760 0.64060 0.62320 0.09100
H 	H 	0.06920 0.67920 0.99040 0.09900
H 	H 	0.01740 0.63440 0.87680 0.08900
H 	H 	0.92120 0.81120 0.99040 0.10400
H 	H 	0.85940 0.74240 0.87680 0.09500
C 	C 	0.37665 0.69627 0.44172 0.41000
C 	C 	0.21924 0.53968 0.43592 -0.23100
C 	C 	0.06507 0.24545 0.44172 0.40500
C 	C 	0.21668 0.39624 0.43592 -0.22500
C 	C 	0.80373 0.12335 0.05828 0.41100
C 	C 	0.96032 0.28076 0.06408 -0.21700
C 	C 	0.25455 0.43493 0.05828 0.41300
C 	C 	0.10376 0.28332 0.06408 -0.24100
C 	C 	0.62335 0.30373 0.55828 0.41000
C 	C 	0.78076 0.46032 0.56408 -0.23100
C 	C 	0.93493 0.75455 0.55828 0.40500
C 	C 	0.78332 0.60376 0.56408 -0.22500
C 	C 	0.19627 0.87665 0.94172 0.41100
C 	C 	0.03968 0.71924 0.93592 -0.21700
C 	C 	0.74545 0.56507 0.94172 0.41300
C 	C 	0.89624 0.71668 0.93592 -0.24100
C 	C 	0.57480 0.92520 0.25000 0.25900
C 	C 	0.67520 0.82480 0.25000 0.25900
C 	C 	0.42520 0.07480 0.75000 0.25900
C 	C 	0.32480 0.17520 0.75000 0.25900
O 	O 	0.50444 0.69246 0.42410 -0.41000
O 	O 	0.37399 0.83409 0.46708 -0.49000
O 	O 	0.56910 0.99190 0.33140 -0.35700
O 	O 	0.91966 0.23164 0.42410 -0.40700
O 	O 	0.09309 0.13299 0.46708 -0.49000
O 	O 	0.76230 0.83950 0.33140 -0.35800
O 	O 	0.80754 0.99556 0.07590 -0.41300
O 	O 	0.66591 0.12601 0.03292 -0.48900
O 	O 	0.50810 0.93090 0.16860 -0.35800
O 	O 	0.26836 0.58034 0.07590 -0.41200
O 	O 	0.36701 0.40691 0.03292 -0.49100
O 	O 	0.66050 0.73770 0.16860 -0.35800
O 	O 	0.49556 0.30754 0.57590 -0.41000
O 	O 	0.62601 0.16591 0.53292 -0.49000
O 	O 	0.43090 0.00810 0.66860 -0.35700
O 	O 	0.08034 0.76836 0.57590 -0.40700
O 	O 	0.90691 0.86701 0.53292 -0.49000
O 	O 	0.23770 0.16050 0.66860 -0.35800
O 	O 	0.19246 0.00444 0.92410 -0.41300
O 	O 	0.33409 0.87399 0.96708 -0.48900
O 	O 	0.49190 0.06910 0.83140 -0.35800
O 	O 	0.73164 0.41966 0.92410 -0.41200
O 	O 	0.63299 0.59309 0.96708 -0.49100
O 	O 	0.33950 0.26230 0.83140 -0.35800
