data_crystal

_cell_length_a 10.20310
_cell_length_b 11.45880
_cell_length_c 17.53460
_cell_angle_alpha 90.00000
_cell_angle_beta  90.00000
_cell_angle_gamma 109.87400

_symmetry_space_group_name_	'P 1'
_symmetry_space_group_name_H-M	'P 1'

loop_
_symmetry_equiv_pos_as_xyz
  x,y,z

loop_
_atom_site_label
_atom_site_type_symbol
_atom_site_fract_x
_atom_site_fract_y
_atom_site_fract_z
_atom_site_charge
Eu	Eu	0.49060 0.31895 0.99272 2.10100
Eu	Eu	0.50940 0.18105 0.49272 2.10000
Eu	Eu	0.50940 0.68105 0.00728 2.10100
Eu	Eu	0.49060 0.81895 0.50728 2.10000
H 	H 	0.40080 0.36540 0.71490 0.06900
H 	H 	0.44840 0.46330 0.59860 0.05200
H 	H 	0.64500 0.78340 0.69790 0.04900
H 	H 	0.58910 0.69430 0.81660 0.04100
H 	H 	0.01840 0.21140 0.00860 0.08000
H 	H 	0.78080 0.15360 0.02620 0.06900
H 	H 	0.82540 0.47230 0.12550 0.03800
H 	H 	0.06320 0.53890 0.10700 0.05800
H 	H 	0.59920 0.13460 0.21490 0.06600
H 	H 	0.55160 0.03670 0.09860 0.05600
H 	H 	0.35500 0.71660 0.19790 0.04900
H 	H 	0.41090 0.80570 0.31660 0.04000
H 	H 	0.98160 0.28860 0.50860 0.07600
H 	H 	0.21920 0.34640 0.52620 0.07000
H 	H 	0.17460 0.02770 0.62550 0.03700
H 	H 	0.93680 0.96110 0.60700 0.06200
H 	H 	0.59920 0.63460 0.28510 0.06900
H 	H 	0.55160 0.53670 0.40140 0.05200
H 	H 	0.35500 0.21660 0.30210 0.04900
H 	H 	0.41090 0.30570 0.18340 0.04100
H 	H 	0.98160 0.78860 0.99140 0.08000
H 	H 	0.21920 0.84640 0.97380 0.06900
H 	H 	0.17460 0.52770 0.87450 0.03800
H 	H 	0.93680 0.46110 0.89300 0.05800
H 	H 	0.40080 0.86540 0.78510 0.06600
H 	H 	0.44840 0.96330 0.90140 0.05600
H 	H 	0.64500 0.28340 0.80210 0.04900
H 	H 	0.58910 0.19430 0.68340 0.04000
H 	H 	0.01840 0.71140 0.49140 0.07600
H 	H 	0.78080 0.65360 0.47380 0.07000
H 	H 	0.82540 0.97230 0.37450 0.03700
H 	H 	0.06320 0.03890 0.39300 0.06200
C 	C 	0.46200 0.45750 0.85600 0.42300
C 	C 	0.49140 0.52000 0.77890 -0.08900
C 	C 	0.44910 0.45020 0.71220 -0.02300
C 	C 	0.47960 0.50860 0.64300 0.03600
C 	C 	0.59470 0.69910 0.70190 0.01700
C 	C 	0.56280 0.64590 0.77290 -0.00700
C 	C 	0.22290 0.42660 0.03820 0.45000
C 	C 	0.06970 0.38310 0.05450 -0.08800
C 	C 	0.98110 0.26640 0.03140 -0.02000
C 	C 	0.83900 0.23160 0.04180 0.01900
C 	C 	0.86570 0.42140 0.10040 0.01900
C 	C 	0.00800 0.46060 0.09020 -0.02100
C 	C 	0.53800 0.04250 0.35600 0.42600
C 	C 	0.50860 0.98000 0.27890 -0.09400
C 	C 	0.55090 0.04980 0.21220 -0.01500
C 	C 	0.52040 0.99140 0.14300 0.02700
C 	C 	0.40530 0.80090 0.20190 0.01500
C 	C 	0.43720 0.85410 0.27290 -0.00300
C 	C 	0.77710 0.07340 0.53820 0.44800
C 	C 	0.93030 0.11690 0.55450 -0.08900
C 	C 	0.01890 0.23360 0.53140 -0.01400
C 	C 	0.16100 0.26840 0.54180 0.01600
C 	C 	0.13430 0.07860 0.60040 0.02400
C 	C 	0.99200 0.03940 0.59020 -0.02900
C 	C 	0.53800 0.54250 0.14400 0.42300
C 	C 	0.50860 0.48000 0.22110 -0.08900
C 	C 	0.55090 0.54980 0.28780 -0.02300
C 	C 	0.52040 0.49140 0.35700 0.03600
C 	C 	0.40530 0.30090 0.29810 0.01700
C 	C 	0.43720 0.35410 0.22710 -0.00700
C 	C 	0.77710 0.57340 0.96180 0.45000
C 	C 	0.93030 0.61690 0.94550 -0.08800
C 	C 	0.01890 0.73360 0.96860 -0.02000
C 	C 	0.16100 0.76840 0.95820 0.01900
C 	C 	0.13430 0.57860 0.89960 0.01900
C 	C 	0.99200 0.53940 0.90980 -0.02100
C 	C 	0.46200 0.95750 0.64400 0.42600
C 	C 	0.49140 0.02000 0.72110 -0.09400
C 	C 	0.44910 0.95020 0.78780 -0.01500
C 	C 	0.47960 0.00860 0.85700 0.02700
C 	C 	0.59470 0.19910 0.79810 0.01500
C 	C 	0.56280 0.14590 0.72710 -0.00300
C 	C 	0.22290 0.92660 0.46180 0.44800
C 	C 	0.06970 0.88310 0.44550 -0.08900
C 	C 	0.98110 0.76640 0.46860 -0.01400
C 	C 	0.83900 0.73160 0.45820 0.01600
C 	C 	0.86570 0.92140 0.39960 0.02400
C 	C 	0.00800 0.96060 0.40980 -0.02900
N 	N 	0.26820 0.09090 0.03190 0.06700
N 	N 	0.55400 0.63050 0.63810 -0.04200
N 	N 	0.78530 0.31080 0.07460 -0.05000
N 	N 	0.73180 0.40910 0.53190 0.06600
N 	N 	0.44600 0.86950 0.13810 -0.04100
N 	N 	0.21470 0.18920 0.57460 -0.05000
N 	N 	0.73180 0.90910 0.96810 0.06700
N 	N 	0.44600 0.36950 0.36190 -0.04200
N 	N 	0.21470 0.68920 0.92540 -0.05000
N 	N 	0.26820 0.59090 0.46810 0.06600
N 	N 	0.55400 0.13050 0.86190 -0.04100
N 	N 	0.78530 0.81080 0.42540 -0.05000
O 	O 	0.35300 0.15530 0.08200 -0.28000
O 	O 	0.29640 0.11840 0.96310 -0.25800
O 	O 	0.43920 0.34350 0.85900 -0.44800
O 	O 	0.47450 0.52270 0.91480 -0.57500
O 	O 	0.58760 0.68300 0.57070 -0.30400
O 	O 	0.27140 0.34630 0.01510 -0.47800
O 	O 	0.28970 0.54090 0.04770 -0.48800
O 	O 	0.64630 0.27450 0.08210 -0.30900
O 	O 	0.16820 0.00510 0.04900 -0.10500
O 	O 	0.64700 0.34470 0.58200 -0.28000
O 	O 	0.70360 0.38160 0.46310 -0.25600
O 	O 	0.56080 0.15650 0.35900 -0.44800
O 	O 	0.52550 0.97730 0.41480 -0.57600
O 	O 	0.41240 0.81700 0.07070 -0.30500
O 	O 	0.72860 0.15370 0.51510 -0.47900
O 	O 	0.71030 0.95910 0.54770 -0.48700
O 	O 	0.35370 0.22550 0.58210 -0.30900
O 	O 	0.83180 0.49490 0.54900 -0.10600
O 	O 	0.64700 0.84470 0.91800 -0.28000
O 	O 	0.70360 0.88160 0.03690 -0.25800
O 	O 	0.56080 0.65650 0.14100 -0.44800
O 	O 	0.52550 0.47730 0.08520 -0.57500
O 	O 	0.41240 0.31700 0.42930 -0.30400
O 	O 	0.72860 0.65370 0.98490 -0.47800
O 	O 	0.71030 0.45910 0.95230 -0.48800
O 	O 	0.35370 0.72550 0.91790 -0.30900
O 	O 	0.83180 0.99490 0.95100 -0.10500
O 	O 	0.35300 0.65530 0.41800 -0.28000
O 	O 	0.29640 0.61840 0.53690 -0.25600
O 	O 	0.43920 0.84350 0.64100 -0.44800
O 	O 	0.47450 0.02270 0.58520 -0.57600
O 	O 	0.58760 0.18300 0.92930 -0.30500
O 	O 	0.27140 0.84630 0.48490 -0.47900
O 	O 	0.28970 0.04090 0.45230 -0.48700
O 	O 	0.64630 0.77450 0.41790 -0.30900
O 	O 	0.16820 0.50510 0.45100 -0.10600
