data_crystal

_cell_length_a 10.17920
_cell_length_b 11.42680
_cell_length_c 17.51930
_cell_angle_alpha 90.00000
_cell_angle_beta  90.00000
_cell_angle_gamma 110.03500

_symmetry_space_group_name_	'P 1'
_symmetry_space_group_name_H-M	'P 1'

loop_
_symmetry_equiv_pos_as_xyz
  x,y,z

loop_
_atom_site_label
_atom_site_type_symbol
_atom_site_fract_x
_atom_site_fract_y
_atom_site_fract_z
_atom_site_charge
Tb	Tb	0.01038 0.18171 0.50725 1.99100
Tb	Tb	0.98962 0.31829 0.00725 1.99400
Tb	Tb	0.98962 0.81829 0.49275 1.99100
Tb	Tb	0.01038 0.68171 0.99275 1.99400
H 	H 	0.91040 0.30380 0.81610 0.04500
H 	H 	0.10100 0.63520 0.71640 0.06700
H 	H 	0.85610 0.21520 0.69750 0.05200
H 	H 	0.05450 0.53940 0.59900 0.05800
H 	H 	0.43420 0.96080 0.39220 0.06300
H 	H 	0.47930 0.28760 0.49110 0.08100
H 	H 	0.67570 0.02680 0.37450 0.03900
H 	H 	0.72000 0.34460 0.47780 0.06900
H 	H 	0.08960 0.19620 0.31610 0.05500
H 	H 	0.89900 0.86480 0.21640 0.08200
H 	H 	0.14390 0.28480 0.19750 0.04500
H 	H 	0.94550 0.96060 0.09900 0.04000
H 	H 	0.56580 0.53920 0.89220 0.06000
H 	H 	0.52070 0.21240 0.99110 0.08100
H 	H 	0.32430 0.47320 0.87450 0.04000
H 	H 	0.28000 0.15540 0.97780 0.06900
H 	H 	0.08960 0.69620 0.18390 0.04500
H 	H 	0.89900 0.36480 0.28360 0.06700
H 	H 	0.14390 0.78480 0.30250 0.05200
H 	H 	0.94550 0.46060 0.40100 0.05800
H 	H 	0.56580 0.03920 0.60780 0.06300
H 	H 	0.52070 0.71240 0.50890 0.08100
H 	H 	0.32430 0.97320 0.62550 0.03900
H 	H 	0.28000 0.65540 0.52220 0.06900
H 	H 	0.91040 0.80380 0.68390 0.05500
H 	H 	0.10100 0.13520 0.78360 0.08200
H 	H 	0.85610 0.71520 0.80250 0.04500
H 	H 	0.05450 0.03940 0.90100 0.04000
H 	H 	0.43420 0.46080 0.10780 0.06000
H 	H 	0.47930 0.78760 0.00890 0.08100
H 	H 	0.67570 0.52680 0.12550 0.04000
H 	H 	0.72000 0.84460 0.02220 0.06900
C 	C 	0.03890 0.54180 0.85670 0.42200
C 	C 	0.01100 0.47960 0.77930 -0.09600
C 	C 	0.93800 0.35270 0.77260 0.00300
C 	C 	0.05300 0.54990 0.71320 -0.01500
C 	C 	0.90680 0.29980 0.70180 0.01400
C 	C 	0.02330 0.49290 0.64320 0.02700
C 	C 	0.27510 0.07210 0.46190 0.42700
C 	C 	0.43010 0.11600 0.44540 -0.07600
C 	C 	0.49030 0.03880 0.40960 -0.03100
C 	C 	0.51740 0.23240 0.46910 -0.02400
C 	C 	0.63530 0.07780 0.39950 0.02300
C 	C 	0.66160 0.26750 0.46030 0.02000
C 	C 	0.96110 0.95820 0.35670 0.39400
C 	C 	0.98900 0.02040 0.27930 -0.05100
C 	C 	0.06200 0.14730 0.27260 -0.03600
C 	C 	0.94700 0.95010 0.21320 -0.06300
C 	C 	0.09320 0.20020 0.20180 0.03300
C 	C 	0.97670 0.00710 0.14320 0.06500
C 	C 	0.72490 0.42790 0.96190 0.43500
C 	C 	0.56990 0.38400 0.94540 -0.07900
C 	C 	0.50970 0.46120 0.90960 -0.02400
C 	C 	0.48260 0.26760 0.96910 -0.02100
C 	C 	0.36470 0.42220 0.89950 0.01900
C 	C 	0.33840 0.23250 0.96030 0.01800
C 	C 	0.96110 0.45820 0.14330 0.42200
C 	C 	0.98900 0.52040 0.22070 -0.09600
C 	C 	0.06200 0.64730 0.22740 0.00300
C 	C 	0.94700 0.45010 0.28680 -0.01500
C 	C 	0.09320 0.70020 0.29820 0.01400
C 	C 	0.97670 0.50710 0.35680 0.02700
C 	C 	0.72490 0.92790 0.53810 0.42700
C 	C 	0.56990 0.88400 0.55460 -0.07600
C 	C 	0.50970 0.96120 0.59040 -0.03100
C 	C 	0.48260 0.76760 0.53090 -0.02400
C 	C 	0.36470 0.92220 0.60050 0.02300
C 	C 	0.33840 0.73250 0.53970 0.02000
C 	C 	0.03890 0.04180 0.64330 0.39400
C 	C 	0.01100 0.97960 0.72070 -0.05100
C 	C 	0.93800 0.85270 0.72740 -0.03600
C 	C 	0.05300 0.04990 0.78680 -0.06300
C 	C 	0.90680 0.79980 0.79820 0.03300
C 	C 	0.02330 0.99290 0.85680 0.06500
C 	C 	0.27510 0.57210 0.03810 0.43500
C 	C 	0.43010 0.61600 0.05460 -0.07900
C 	C 	0.49030 0.53880 0.09040 -0.02400
C 	C 	0.51740 0.73240 0.03090 -0.02100
C 	C 	0.63530 0.57780 0.10050 0.01900
C 	C 	0.66160 0.76750 0.03970 0.01800
N 	N 	0.94900 0.36960 0.63760 -0.03800
N 	N 	0.71560 0.18930 0.42620 -0.05000
N 	N 	0.23190 0.40830 0.46750 0.06300
N 	N 	0.05100 0.13040 0.13760 -0.05000
N 	N 	0.28440 0.31070 0.92620 -0.04900
N 	N 	0.76810 0.09170 0.96750 0.06700
N 	N 	0.05100 0.63040 0.36240 -0.03800
N 	N 	0.28440 0.81070 0.57380 -0.05000
N 	N 	0.76810 0.59170 0.53250 0.06300
N 	N 	0.94900 0.86960 0.86240 -0.05000
N 	N 	0.71560 0.68930 0.07380 -0.04900
N 	N 	0.23190 0.90830 0.03250 0.06700
O 	O 	0.91570 0.31860 0.56970 -0.29200
O 	O 	0.02550 0.47410 0.91520 -0.55500
O 	O 	0.06200 0.65560 0.86100 -0.44300
O 	O 	0.22730 0.15330 0.48610 -0.46200
O 	O 	0.20840 0.95760 0.45200 -0.46700
O 	O 	0.85450 0.22500 0.41900 -0.29700
O 	O 	0.20580 0.38020 0.53760 -0.24500
O 	O 	0.14560 0.34270 0.41820 -0.27600
O 	O 	0.33340 0.49500 0.45190 -0.10500
O 	O 	0.08430 0.18140 0.06970 -0.29100
O 	O 	0.97450 0.02590 0.41520 -0.53900
O 	O 	0.93800 0.84440 0.36100 -0.43700
O 	O 	0.77270 0.34670 0.98610 -0.45700
O 	O 	0.79160 0.54240 0.95200 -0.46900
O 	O 	0.14550 0.27500 0.91900 -0.30100
O 	O 	0.79420 0.11980 0.03760 -0.25000
O 	O 	0.85440 0.15730 0.91820 -0.26900
O 	O 	0.66660 0.00500 0.95190 -0.10300
O 	O 	0.08430 0.68140 0.43030 -0.29200
O 	O 	0.97450 0.52590 0.08480 -0.55500
O 	O 	0.93800 0.34440 0.13900 -0.44300
O 	O 	0.77270 0.84670 0.51390 -0.46200
O 	O 	0.79160 0.04240 0.54800 -0.46700
O 	O 	0.14550 0.77500 0.58100 -0.29700
O 	O 	0.79420 0.61980 0.46240 -0.24500
O 	O 	0.85440 0.65730 0.58180 -0.27600
O 	O 	0.66660 0.50500 0.54810 -0.10500
O 	O 	0.91570 0.81860 0.93030 -0.29100
O 	O 	0.02550 0.97410 0.58480 -0.53900
O 	O 	0.06200 0.15560 0.63900 -0.43700
O 	O 	0.22730 0.65330 0.01390 -0.45700
O 	O 	0.20840 0.45760 0.04800 -0.46900
O 	O 	0.85450 0.72500 0.08100 -0.30100
O 	O 	0.20580 0.88020 0.96240 -0.25000
O 	O 	0.14560 0.84270 0.08180 -0.26900
O 	O 	0.33340 0.99500 0.04810 -0.10300
