data_crystal

_cell_length_a 20.24590
_cell_length_b 20.24590
_cell_length_c 23.01600
_cell_angle_alpha 90.00000
_cell_angle_beta  90.00000
_cell_angle_gamma 120.00000

_symmetry_space_group_name_	'P 1'
_symmetry_space_group_name_H-M	'P 1'

loop_
_symmetry_equiv_pos_as_xyz
  x,y,z

loop_
_atom_site_label
_atom_site_type_symbol
_atom_site_fract_x
_atom_site_fract_y
_atom_site_fract_z
_atom_site_charge
P 	P 	0.11139 0.78807 0.00350 0.75000
P 	P 	0.31204 0.88550 0.10997 0.76500
P 	P 	0.11953 0.91886 0.15798 0.65500
Al	Al	0.22115 0.95141 0.04924 2.40000
Al	Al	0.13940 0.77780 0.13402 2.40000
O 	O 	0.13570 0.75350 0.95735 -0.24400
O 	O 	0.16300 0.87510 0.00589 -0.77300
O 	O 	0.03050 0.77300 0.99330 -0.74600
O 	O 	0.11060 0.75440 0.06297 -0.76700
O 	O 	0.23810 0.82070 0.13580 -0.75900
O 	O 	0.36150 0.93040 0.16150 -0.75100
O 	O 	0.35160 0.85600 0.07260 -0.25400
O 	O 	0.16270 0.96250 0.21130 -0.20300
O 	O 	0.29380 0.93920 0.07620 -0.77300
O 	O 	0.10980 0.83770 0.16170 -0.74700
O 	O 	0.17010 0.96040 0.10510 -0.75300
O 	O 	0.04410 0.91270 0.15290 -0.20100
P 	P 	0.77806 0.12140 0.33683 0.75800
P 	P 	0.97871 0.21883 0.44330 0.76500
P 	P 	0.78620 0.25219 0.49131 0.65400
Al	Al	0.88782 0.28474 0.38257 2.39900
Al	Al	0.80607 0.11113 0.46735 2.39900
O 	O 	0.80237 0.08683 0.29068 -0.24900
O 	O 	0.82967 0.20843 0.33922 -0.77100
O 	O 	0.69717 0.10633 0.32663 -0.75300
O 	O 	0.77727 0.08773 0.39630 -0.76700
O 	O 	0.90477 0.15403 0.46913 -0.75900
O 	O 	0.02817 0.26373 0.49483 -0.75000
O 	O 	0.01827 0.18933 0.40593 -0.25300
O 	O 	0.82937 0.29583 0.54463 -0.20200
O 	O 	0.96047 0.27253 0.40953 -0.77100
O 	O 	0.77647 0.17103 0.49503 -0.74700
O 	O 	0.83677 0.29373 0.43843 -0.75200
O 	O 	0.71077 0.24603 0.48623 -0.19900
P 	P 	0.44472 0.45474 0.67017 0.75800
P 	P 	0.64537 0.55217 0.77664 0.76400
P 	P 	0.45286 0.58553 0.82465 0.65400
Al	Al	0.55448 0.61808 0.71591 2.39900
Al	Al	0.47273 0.44447 0.80069 2.39900
O 	O 	0.46903 0.42017 0.62402 -0.25000
O 	O 	0.49633 0.54177 0.67256 -0.77100
O 	O 	0.36383 0.43967 0.65997 -0.75300
O 	O 	0.44393 0.42107 0.72964 -0.76700
O 	O 	0.57143 0.48737 0.80247 -0.75900
O 	O 	0.69483 0.59707 0.82817 -0.75000
O 	O 	0.68493 0.52267 0.73927 -0.25300
O 	O 	0.49603 0.62917 0.87797 -0.20200
O 	O 	0.62713 0.60587 0.74287 -0.77100
O 	O 	0.44313 0.50437 0.82837 -0.74600
O 	O 	0.50343 0.62707 0.77177 -0.75200
O 	O 	0.37743 0.57937 0.81957 -0.19900
P 	P 	0.21193 0.32332 0.00350 0.75600
P 	P 	0.11450 0.42654 0.10997 0.76400
P 	P 	0.08114 0.20067 0.15798 0.65400
Al	Al	0.04859 0.26974 0.04924 2.39900
Al	Al	0.22220 0.36160 0.13402 2.39900
O 	O 	0.24650 0.38220 0.95735 -0.24900
O 	O 	0.12490 0.28790 0.00589 -0.77200
O 	O 	0.22700 0.25750 0.99330 -0.75300
O 	O 	0.24560 0.35620 0.06297 -0.76700
O 	O 	0.17930 0.41740 0.13580 -0.75900
O 	O 	0.06960 0.43110 0.16150 -0.75100
O 	O 	0.14400 0.49560 0.07260 -0.25400
O 	O 	0.03750 0.20020 0.21130 -0.20200
O 	O 	0.06080 0.35460 0.07620 -0.77200
O 	O 	0.16230 0.27210 0.16170 -0.74600
O 	O 	0.03960 0.20970 0.10510 -0.75200
O 	O 	0.08730 0.13140 0.15290 -0.19900
P 	P 	0.87860 0.65665 0.33683 0.75800
P 	P 	0.78117 0.75987 0.44330 0.76400
P 	P 	0.74781 0.53400 0.49131 0.65400
Al	Al	0.71526 0.60307 0.38257 2.39900
Al	Al	0.88887 0.69493 0.46735 2.39900
O 	O 	0.91317 0.71553 0.29068 -0.25000
O 	O 	0.79157 0.62123 0.33922 -0.77100
O 	O 	0.89367 0.59083 0.32663 -0.75300
O 	O 	0.91227 0.68953 0.39630 -0.76700
O 	O 	0.84597 0.75073 0.46913 -0.75800
O 	O 	0.73627 0.76443 0.49483 -0.75000
O 	O 	0.81067 0.82893 0.40593 -0.25300
O 	O 	0.70417 0.53353 0.54463 -0.20200
O 	O 	0.72747 0.68793 0.40953 -0.77100
O 	O 	0.82897 0.60543 0.49503 -0.74600
O 	O 	0.70627 0.54303 0.43843 -0.75200
O 	O 	0.75397 0.46473 0.48623 -0.19900
P 	P 	0.54526 0.98999 0.67017 0.76000
P 	P 	0.44783 0.09321 0.77664 0.76400
P 	P 	0.41447 0.86734 0.82465 0.65400
Al	Al	0.38192 0.93641 0.71591 2.39900
Al	Al	0.55553 0.02827 0.80069 2.39900
O 	O 	0.57983 0.04887 0.62402 -0.25200
O 	O 	0.45823 0.95457 0.67256 -0.77100
O 	O 	0.56033 0.92417 0.65997 -0.75300
O 	O 	0.57893 0.02287 0.72964 -0.76800
O 	O 	0.51263 0.08407 0.80247 -0.75900
O 	O 	0.40293 0.09777 0.82817 -0.75100
O 	O 	0.47733 0.16227 0.73927 -0.25300
O 	O 	0.37083 0.86687 0.87797 -0.20100
O 	O 	0.39413 0.02127 0.74287 -0.77200
O 	O 	0.49563 0.93877 0.82837 -0.74500
O 	O 	0.37293 0.87637 0.77177 -0.75100
O 	O 	0.42063 0.79807 0.81957 -0.19900
P 	P 	0.67668 0.88861 0.00350 0.75400
P 	P 	0.57346 0.68796 0.10997 0.76400
P 	P 	0.79933 0.88047 0.15798 0.65400
Al	Al	0.73026 0.77885 0.04924 2.39900
Al	Al	0.63840 0.86060 0.13402 2.39900
O 	O 	0.61780 0.86430 0.95735 -0.24800
O 	O 	0.71210 0.83700 0.00589 -0.77100
O 	O 	0.74250 0.96950 0.99330 -0.75000
O 	O 	0.64380 0.88940 0.06297 -0.76700
O 	O 	0.58260 0.76190 0.13580 -0.75900
O 	O 	0.56890 0.63850 0.16150 -0.75000
O 	O 	0.50440 0.64840 0.07260 -0.25400
O 	O 	0.79980 0.83730 0.21130 -0.20200
O 	O 	0.64540 0.70620 0.07620 -0.77100
O 	O 	0.72790 0.89020 0.16170 -0.74700
O 	O 	0.79030 0.82990 0.10510 -0.75100
O 	O 	0.86860 0.95590 0.15290 -0.19900
P 	P 	0.34335 0.22194 0.33683 0.75800
P 	P 	0.24013 0.02129 0.44330 0.76500
P 	P 	0.46600 0.21380 0.49131 0.65400
Al	Al	0.39693 0.11218 0.38257 2.39900
Al	Al	0.30507 0.19393 0.46735 2.39900
O 	O 	0.28447 0.19763 0.29068 -0.25000
O 	O 	0.37877 0.17033 0.33922 -0.77100
O 	O 	0.40917 0.30283 0.32663 -0.75300
O 	O 	0.31047 0.22273 0.39630 -0.76700
O 	O 	0.24927 0.09523 0.46913 -0.75900
O 	O 	0.23557 0.97183 0.49483 -0.75000
O 	O 	0.17107 0.98173 0.40593 -0.25400
O 	O 	0.46647 0.17063 0.54463 -0.20200
O 	O 	0.31207 0.03953 0.40953 -0.77100
O 	O 	0.39457 0.22353 0.49503 -0.74700
O 	O 	0.45697 0.16323 0.43843 -0.75200
O 	O 	0.53527 0.28923 0.48623 -0.19900
P 	P 	0.01001 0.55528 0.67017 0.76000
P 	P 	0.90679 0.35463 0.77664 0.76400
P 	P 	0.13266 0.54714 0.82465 0.65400
Al	Al	0.06359 0.44552 0.71591 2.39900
Al	Al	0.97173 0.52727 0.80069 2.39900
O 	O 	0.95113 0.53097 0.62402 -0.25200
O 	O 	0.04543 0.50367 0.67256 -0.77100
O 	O 	0.07583 0.63617 0.65997 -0.75300
O 	O 	0.97713 0.55607 0.72964 -0.76800
O 	O 	0.91593 0.42857 0.80247 -0.75900
O 	O 	0.90223 0.30517 0.82817 -0.75100
O 	O 	0.83773 0.31507 0.73927 -0.25300
O 	O 	0.13313 0.50397 0.87797 -0.20100
O 	O 	0.97873 0.37287 0.74287 -0.77200
O 	O 	0.06123 0.55687 0.82837 -0.74500
O 	O 	0.12363 0.49657 0.77177 -0.75100
O 	O 	0.20193 0.62257 0.81957 -0.19900
P 	P 	0.88861 0.21193 0.99650 0.74900
P 	P 	0.68796 0.11450 0.89003 0.76400
P 	P 	0.88047 0.08114 0.84202 0.65400
Al	Al	0.77885 0.04859 0.95076 2.39900
Al	Al	0.86060 0.22220 0.86598 2.39900
O 	O 	0.86430 0.24650 0.04265 -0.24500
O 	O 	0.83700 0.12490 0.99411 -0.77300
O 	O 	0.96950 0.22700 0.00670 -0.74600
O 	O 	0.88940 0.24560 0.93703 -0.76700
O 	O 	0.76190 0.17930 0.86420 -0.75900
O 	O 	0.63850 0.06960 0.83850 -0.75100
O 	O 	0.64840 0.14400 0.92740 -0.25400
O 	O 	0.83730 0.03750 0.78870 -0.20300
O 	O 	0.70620 0.06080 0.92380 -0.77300
O 	O 	0.89020 0.16230 0.83830 -0.74700
O 	O 	0.82990 0.03960 0.89490 -0.75300
O 	O 	0.95590 0.08730 0.84710 -0.20100
P 	P 	0.55528 0.54526 0.32983 0.75800
P 	P 	0.35463 0.44783 0.22336 0.76400
P 	P 	0.54714 0.41447 0.17535 0.65400
Al	Al	0.44552 0.38192 0.28409 2.39900
Al	Al	0.52727 0.55553 0.19931 2.39900
O 	O 	0.53097 0.57983 0.37598 -0.25000
O 	O 	0.50367 0.45823 0.32744 -0.77100
O 	O 	0.63617 0.56033 0.34003 -0.75300
O 	O 	0.55607 0.57893 0.27036 -0.76700
O 	O 	0.42857 0.51263 0.19753 -0.75900
O 	O 	0.30517 0.40293 0.17183 -0.75000
O 	O 	0.31507 0.47733 0.26073 -0.25300
O 	O 	0.50397 0.37083 0.12203 -0.20200
O 	O 	0.37287 0.39413 0.25713 -0.77100
O 	O 	0.55687 0.49563 0.17163 -0.74600
O 	O 	0.49657 0.37293 0.22823 -0.75200
O 	O 	0.62257 0.42063 0.18043 -0.19900
P 	P 	0.22194 0.87860 0.66317 0.75800
P 	P 	0.02129 0.78117 0.55670 0.76500
P 	P 	0.21380 0.74781 0.50869 0.65400
Al	Al	0.11218 0.71526 0.61743 2.39900
Al	Al	0.19393 0.88887 0.53265 2.39900
O 	O 	0.19763 0.91317 0.70932 -0.24900
O 	O 	0.17033 0.79157 0.66078 -0.77100
O 	O 	0.30283 0.89367 0.67337 -0.75300
O 	O 	0.22273 0.91227 0.60370 -0.76700
O 	O 	0.09523 0.84597 0.53087 -0.75900
O 	O 	0.97183 0.73627 0.50517 -0.75000
O 	O 	0.98173 0.81067 0.59407 -0.25300
O 	O 	0.17063 0.70417 0.45537 -0.20200
O 	O 	0.03953 0.72747 0.59047 -0.77100
O 	O 	0.22353 0.82897 0.50497 -0.74700
O 	O 	0.16323 0.70627 0.56157 -0.75200
O 	O 	0.28923 0.75397 0.51377 -0.19900
P 	P 	0.78807 0.67668 0.99650 0.75600
P 	P 	0.88550 0.57346 0.89003 0.76400
P 	P 	0.91886 0.79933 0.84202 0.65400
Al	Al	0.95141 0.73026 0.95076 2.39900
Al	Al	0.77780 0.63840 0.86598 2.39900
O 	O 	0.75350 0.61780 0.04265 -0.24900
O 	O 	0.87510 0.71210 0.99411 -0.77200
O 	O 	0.77300 0.74250 0.00670 -0.75300
O 	O 	0.75440 0.64380 0.93703 -0.76700
O 	O 	0.82070 0.58260 0.86420 -0.75900
O 	O 	0.93040 0.56890 0.83850 -0.75100
O 	O 	0.85600 0.50440 0.92740 -0.25400
O 	O 	0.96250 0.79980 0.78870 -0.20200
O 	O 	0.93920 0.64540 0.92380 -0.77200
O 	O 	0.83770 0.72790 0.83830 -0.74600
O 	O 	0.96040 0.79030 0.89490 -0.75200
O 	O 	0.91270 0.86860 0.84710 -0.19900
P 	P 	0.45474 0.01001 0.32983 0.76000
P 	P 	0.55217 0.90679 0.22336 0.76400
P 	P 	0.58553 0.13266 0.17535 0.65400
Al	Al	0.61808 0.06359 0.28409 2.39900
Al	Al	0.44447 0.97173 0.19931 2.39900
O 	O 	0.42017 0.95113 0.37598 -0.25200
O 	O 	0.54177 0.04543 0.32744 -0.77100
O 	O 	0.43967 0.07583 0.34003 -0.75300
O 	O 	0.42107 0.97713 0.27036 -0.76800
O 	O 	0.48737 0.91593 0.19753 -0.75900
O 	O 	0.59707 0.90223 0.17183 -0.75100
O 	O 	0.52267 0.83773 0.26073 -0.25300
O 	O 	0.62917 0.13313 0.12203 -0.20100
O 	O 	0.60587 0.97873 0.25713 -0.77200
O 	O 	0.50437 0.06123 0.17163 -0.74500
O 	O 	0.62707 0.12363 0.22823 -0.75100
O 	O 	0.57937 0.20193 0.18043 -0.19900
P 	P 	0.12140 0.34335 0.66317 0.75800
P 	P 	0.21883 0.24013 0.55670 0.76400
P 	P 	0.25219 0.46600 0.50869 0.65400
Al	Al	0.28474 0.39693 0.61743 2.39900
Al	Al	0.11113 0.30507 0.53265 2.39900
O 	O 	0.08683 0.28447 0.70932 -0.25000
O 	O 	0.20843 0.37877 0.66078 -0.77100
O 	O 	0.10633 0.40917 0.67337 -0.75300
O 	O 	0.08773 0.31047 0.60370 -0.76700
O 	O 	0.15403 0.24927 0.53087 -0.75800
O 	O 	0.26373 0.23557 0.50517 -0.75000
O 	O 	0.18933 0.17107 0.59407 -0.25300
O 	O 	0.29583 0.46647 0.45537 -0.20200
O 	O 	0.27253 0.31207 0.59047 -0.77100
O 	O 	0.17103 0.39457 0.50497 -0.74600
O 	O 	0.29373 0.45697 0.56157 -0.75200
O 	O 	0.24603 0.53527 0.51377 -0.19900
P 	P 	0.32332 0.11139 0.99650 0.75400
P 	P 	0.42654 0.31204 0.89003 0.76400
P 	P 	0.20067 0.11953 0.84202 0.65400
Al	Al	0.26974 0.22115 0.95076 2.39900
Al	Al	0.36160 0.13940 0.86598 2.39900
O 	O 	0.38220 0.13570 0.04265 -0.24800
O 	O 	0.28790 0.16300 0.99411 -0.77100
O 	O 	0.25750 0.03050 0.00670 -0.75000
O 	O 	0.35620 0.11060 0.93703 -0.76700
O 	O 	0.41740 0.23810 0.86420 -0.75900
O 	O 	0.43110 0.36150 0.83850 -0.75000
O 	O 	0.49560 0.35160 0.92740 -0.25400
O 	O 	0.20020 0.16270 0.78870 -0.20200
O 	O 	0.35460 0.29380 0.92380 -0.77100
O 	O 	0.27210 0.10980 0.83830 -0.74700
O 	O 	0.20970 0.17010 0.89490 -0.75100
O 	O 	0.13140 0.04410 0.84710 -0.19900
P 	P 	0.98999 0.44472 0.32983 0.76000
P 	P 	0.09321 0.64537 0.22336 0.76400
P 	P 	0.86734 0.45286 0.17535 0.65400
Al	Al	0.93641 0.55448 0.28409 2.39900
Al	Al	0.02827 0.47273 0.19931 2.39900
O 	O 	0.04887 0.46903 0.37598 -0.25200
O 	O 	0.95457 0.49633 0.32744 -0.77100
O 	O 	0.92417 0.36383 0.34003 -0.75300
O 	O 	0.02287 0.44393 0.27036 -0.76800
O 	O 	0.08407 0.57143 0.19753 -0.75900
O 	O 	0.09777 0.69483 0.17183 -0.75100
O 	O 	0.16227 0.68493 0.26073 -0.25300
O 	O 	0.86687 0.49603 0.12203 -0.20100
O 	O 	0.02127 0.62713 0.25713 -0.77200
O 	O 	0.93877 0.44313 0.17163 -0.74500
O 	O 	0.87637 0.50343 0.22823 -0.75100
O 	O 	0.79807 0.37743 0.18043 -0.19900
P 	P 	0.65665 0.77806 0.66317 0.75800
P 	P 	0.75987 0.97871 0.55670 0.76500
P 	P 	0.53400 0.78620 0.50869 0.65400
Al	Al	0.60307 0.88782 0.61743 2.39900
Al	Al	0.69493 0.80607 0.53265 2.39900
O 	O 	0.71553 0.80237 0.70932 -0.25000
O 	O 	0.62123 0.82967 0.66078 -0.77100
O 	O 	0.59083 0.69717 0.67337 -0.75300
O 	O 	0.68953 0.77727 0.60370 -0.76700
O 	O 	0.75073 0.90477 0.53087 -0.75900
O 	O 	0.76443 0.02817 0.50517 -0.75000
O 	O 	0.82893 0.01827 0.59407 -0.25400
O 	O 	0.53353 0.82937 0.45537 -0.20200
O 	O 	0.68793 0.96047 0.59047 -0.77100
O 	O 	0.60543 0.77647 0.50497 -0.74700
O 	O 	0.54303 0.83677 0.56157 -0.75200
O 	O 	0.46473 0.71077 0.51377 -0.19900
