data_crystal

_cell_length_a 12.16000
_cell_length_b 26.33100
_cell_length_c 26.46800
_cell_angle_alpha 90.00000
_cell_angle_beta  90.00000
_cell_angle_gamma 90.00000

_symmetry_space_group_name_	'P 1'
_symmetry_space_group_name_H-M	'P 1'

loop_
_symmetry_equiv_pos_as_xyz
  x,y,z

loop_
_atom_site_label
_atom_site_type_symbol
_atom_site_fract_x
_atom_site_fract_y
_atom_site_fract_z
_atom_site_charge
Zn	Zn	0.91507 0.45961 0.99294 1.19600
Zn	Zn	0.08493 0.95961 0.00706 1.19600
Zn	Zn	0.08493 0.04039 0.49294 1.19800
Zn	Zn	0.91507 0.54039 0.50706 1.19700
Zn	Zn	0.08493 0.54039 0.00706 1.19500
Zn	Zn	0.91507 0.04039 0.99294 1.19500
Zn	Zn	0.91507 0.95961 0.50706 1.19700
Zn	Zn	0.08493 0.45961 0.49294 1.19700
Zn	Zn	0.16448 0.75000 0.77712 1.19300
Zn	Zn	0.98955 0.75000 0.69645 1.20000
Zn	Zn	0.83552 0.25000 0.22288 1.19300
Zn	Zn	0.01045 0.25000 0.30355 1.20000
Zn	Zn	0.83552 0.75000 0.27712 1.19300
Zn	Zn	0.01045 0.75000 0.19645 1.19900
Zn	Zn	0.16448 0.25000 0.72288 1.19300
Zn	Zn	0.98955 0.25000 0.80355 1.19900
H 	H 	0.57300 0.52960 0.82160 0.04600
H 	H 	0.66440 0.49030 0.80570 0.04800
H 	H 	0.41980 0.44830 0.74170 0.05000
H 	H 	0.51950 0.42590 0.77230 0.04900
H 	H 	0.80360 0.63150 0.75440 0.09300
H 	H 	0.00480 0.63190 0.87370 0.06500
H 	H 	0.76220 0.52790 0.86450 0.08800
H 	H 	0.34130 0.38160 0.78350 0.08100
H 	H 	0.31420 0.49070 0.88920 0.08900
H 	H 	0.10290 0.37420 0.88850 0.05100
H 	H 	0.42700 0.02960 0.17840 0.04600
H 	H 	0.33560 0.99030 0.19430 0.04700
H 	H 	0.58020 0.94830 0.25830 0.05000
H 	H 	0.48050 0.92590 0.22770 0.04900
H 	H 	0.19640 0.13150 0.24560 0.09300
H 	H 	0.99520 0.13190 0.12630 0.06500
H 	H 	0.23780 0.02790 0.13550 0.08800
H 	H 	0.65870 0.88160 0.21650 0.08100
H 	H 	0.68580 0.99070 0.11080 0.08900
H 	H 	0.89710 0.87420 0.11150 0.05100
H 	H 	0.42700 0.97040 0.32160 0.04600
H 	H 	0.33560 0.00970 0.30570 0.04800
H 	H 	0.58020 0.05170 0.24170 0.05000
H 	H 	0.48050 0.07410 0.27230 0.04900
H 	H 	0.19640 0.86850 0.25440 0.09100
H 	H 	0.99520 0.86810 0.37370 0.06000
H 	H 	0.23780 0.97210 0.36450 0.08700
H 	H 	0.65870 0.11840 0.28350 0.08100
H 	H 	0.68580 0.00930 0.38920 0.08800
H 	H 	0.89710 0.12580 0.38850 0.05100
H 	H 	0.57300 0.47040 0.67840 0.04600
H 	H 	0.66440 0.50970 0.69430 0.04800
H 	H 	0.41980 0.55170 0.75830 0.05000
H 	H 	0.51950 0.57410 0.72770 0.04900
H 	H 	0.80360 0.36850 0.74560 0.09100
H 	H 	0.00480 0.36810 0.62630 0.06000
H 	H 	0.76220 0.47210 0.63550 0.08700
H 	H 	0.34130 0.61840 0.71650 0.08100
H 	H 	0.31420 0.50930 0.61080 0.08900
H 	H 	0.10290 0.62580 0.61150 0.05100
H 	H 	0.42700 0.47040 0.17840 0.04600
H 	H 	0.33560 0.50970 0.19430 0.04800
H 	H 	0.58020 0.55170 0.25830 0.05000
H 	H 	0.48050 0.57410 0.22770 0.04900
H 	H 	0.19640 0.36850 0.24560 0.09300
H 	H 	0.99520 0.36810 0.12630 0.06500
H 	H 	0.23780 0.47210 0.13550 0.08800
H 	H 	0.65870 0.61840 0.21650 0.08100
H 	H 	0.68580 0.50930 0.11080 0.08900
H 	H 	0.89710 0.62580 0.11150 0.05100
H 	H 	0.57300 0.97040 0.82160 0.04500
H 	H 	0.66440 0.00970 0.80570 0.04500
H 	H 	0.41980 0.05170 0.74170 0.04900
H 	H 	0.51950 0.07410 0.77230 0.04800
H 	H 	0.80360 0.86850 0.75440 0.09300
H 	H 	0.00480 0.86810 0.87370 0.06500
H 	H 	0.76220 0.97210 0.86450 0.08800
H 	H 	0.34130 0.11840 0.78350 0.08100
H 	H 	0.31420 0.00930 0.88920 0.08800
H 	H 	0.10290 0.12580 0.88850 0.05100
H 	H 	0.57300 0.02960 0.67840 0.04600
H 	H 	0.66440 0.99030 0.69430 0.04900
H 	H 	0.41980 0.94830 0.75830 0.04900
H 	H 	0.51950 0.92590 0.72770 0.04800
H 	H 	0.80360 0.13150 0.74560 0.09100
H 	H 	0.00480 0.13190 0.62630 0.06000
H 	H 	0.76220 0.02790 0.63550 0.08600
H 	H 	0.34130 0.88160 0.71650 0.08100
H 	H 	0.31420 0.99070 0.61080 0.08900
H 	H 	0.10290 0.87420 0.61150 0.05100
H 	H 	0.42700 0.52960 0.32160 0.04600
H 	H 	0.33560 0.49030 0.30570 0.04800
H 	H 	0.58020 0.44830 0.24170 0.05000
H 	H 	0.48050 0.42590 0.27230 0.04900
H 	H 	0.19640 0.63150 0.25440 0.09100
H 	H 	0.99520 0.63190 0.37370 0.06000
H 	H 	0.23780 0.52790 0.36450 0.08700
H 	H 	0.65870 0.38160 0.28350 0.08100
H 	H 	0.68580 0.49070 0.38920 0.08900
H 	H 	0.89710 0.37420 0.38850 0.05100
C 	C 	0.61860 0.51801 0.79376 0.00200
C 	C 	0.47480 0.45592 0.76712 -0.00900
C 	C 	0.76880 0.57623 0.80499 0.18100
C 	C 	0.82520 0.61766 0.78516 -0.12000
C 	C 	0.91200 0.63798 0.81073 -0.03800
C 	C 	0.94540 0.61786 0.85657 -0.02800
C 	C 	0.88970 0.57679 0.87664 -0.03900
C 	C 	0.79990 0.55541 0.85096 -0.12500
C 	C 	0.97490 0.68072 0.78622 0.36700
C 	C 	0.92870 0.55198 0.92492 0.37100
C 	C 	0.30520 0.39524 0.81129 -0.10700
C 	C 	0.33940 0.44117 0.83182 0.16400
C 	C 	0.28820 0.46094 0.87462 -0.10300
C 	C 	0.21630 0.36983 0.83281 -0.06100
C 	C 	0.16310 0.39084 0.87450 0.00100
C 	C 	0.19880 0.43626 0.89528 -0.05800
C 	C 	0.17300 0.32249 0.80971 0.38700
C 	C 	0.13500 0.46016 0.93822 0.39400
C 	C 	0.38140 0.01801 0.20624 0.00300
C 	C 	0.52520 0.95592 0.23288 -0.00900
C 	C 	0.23120 0.07623 0.19501 0.18100
C 	C 	0.17480 0.11766 0.21484 -0.12000
C 	C 	0.08800 0.13798 0.18927 -0.03800
C 	C 	0.05460 0.11786 0.14343 -0.02800
C 	C 	0.11030 0.07679 0.12336 -0.03900
C 	C 	0.20010 0.05541 0.14904 -0.12500
C 	C 	0.02510 0.18072 0.21378 0.36700
C 	C 	0.07130 0.05198 0.07508 0.37100
C 	C 	0.69480 0.89524 0.18871 -0.10700
C 	C 	0.66060 0.94117 0.16818 0.16400
C 	C 	0.71180 0.96094 0.12538 -0.10300
C 	C 	0.78370 0.86983 0.16719 -0.06100
C 	C 	0.83690 0.89084 0.12550 0.00100
C 	C 	0.80120 0.93626 0.10472 -0.05800
C 	C 	0.82700 0.82249 0.19029 0.38700
C 	C 	0.86500 0.96016 0.06178 0.39400
C 	C 	0.38140 0.98199 0.29376 0.00200
C 	C 	0.52520 0.04408 0.26712 -0.00900
C 	C 	0.23120 0.92377 0.30499 0.17800
C 	C 	0.17480 0.88234 0.28516 -0.11700
C 	C 	0.08800 0.86202 0.31073 -0.04200
C 	C 	0.05460 0.88214 0.35657 -0.01900
C 	C 	0.11030 0.92321 0.37664 -0.04400
C 	C 	0.20010 0.94459 0.35096 -0.12200
C 	C 	0.02510 0.81928 0.28622 0.37000
C 	C 	0.07130 0.94802 0.42492 0.37900
C 	C 	0.69480 0.10476 0.31129 -0.10700
C 	C 	0.66060 0.05883 0.33182 0.16400
C 	C 	0.71180 0.03906 0.37462 -0.10200
C 	C 	0.78370 0.13017 0.33281 -0.06100
C 	C 	0.83690 0.10916 0.37450 0.00100
C 	C 	0.80120 0.06374 0.39528 -0.05900
C 	C 	0.82700 0.17751 0.30971 0.38800
C 	C 	0.86500 0.03984 0.43822 0.39500
C 	C 	0.61860 0.48199 0.70624 0.00200
C 	C 	0.47480 0.54408 0.73288 -0.00900
C 	C 	0.76880 0.42377 0.69501 0.17800
C 	C 	0.82520 0.38234 0.71484 -0.11700
C 	C 	0.91200 0.36202 0.68927 -0.04200
C 	C 	0.94540 0.38214 0.64343 -0.01900
C 	C 	0.88970 0.42321 0.62336 -0.04400
C 	C 	0.79990 0.44459 0.64904 -0.12200
C 	C 	0.97490 0.31928 0.71378 0.37000
C 	C 	0.92870 0.44802 0.57508 0.37900
C 	C 	0.30520 0.60476 0.68871 -0.10700
C 	C 	0.33940 0.55883 0.66818 0.16400
C 	C 	0.28820 0.53906 0.62538 -0.10200
C 	C 	0.21630 0.63017 0.66719 -0.06100
C 	C 	0.16310 0.60916 0.62550 0.00100
C 	C 	0.19880 0.56374 0.60472 -0.05900
C 	C 	0.17300 0.67751 0.69029 0.38800
C 	C 	0.13500 0.53984 0.56178 0.39500
C 	C 	0.38140 0.48199 0.20624 0.00200
C 	C 	0.52520 0.54408 0.23288 -0.00900
C 	C 	0.23120 0.42377 0.19501 0.18100
C 	C 	0.17480 0.38234 0.21484 -0.12000
C 	C 	0.08800 0.36202 0.18927 -0.03800
C 	C 	0.05460 0.38214 0.14343 -0.02800
C 	C 	0.11030 0.42321 0.12336 -0.03900
C 	C 	0.20010 0.44459 0.14904 -0.12500
C 	C 	0.02510 0.31928 0.21378 0.36700
C 	C 	0.07130 0.44802 0.07508 0.37100
C 	C 	0.69480 0.60476 0.18871 -0.10700
C 	C 	0.66060 0.55883 0.16818 0.16400
C 	C 	0.71180 0.53906 0.12538 -0.10300
C 	C 	0.78370 0.63017 0.16719 -0.06100
C 	C 	0.83690 0.60916 0.12550 0.00100
C 	C 	0.80120 0.56374 0.10472 -0.05800
C 	C 	0.82700 0.67751 0.19029 0.38700
C 	C 	0.86500 0.53984 0.06178 0.39400
C 	C 	0.61860 0.98199 0.79376 0.00700
C 	C 	0.47480 0.04408 0.76712 -0.00700
C 	C 	0.76880 0.92377 0.80499 0.18100
C 	C 	0.82520 0.88234 0.78516 -0.12100
C 	C 	0.91200 0.86202 0.81073 -0.03700
C 	C 	0.94540 0.88214 0.85657 -0.02900
C 	C 	0.88970 0.92321 0.87664 -0.03800
C 	C 	0.79990 0.94459 0.85096 -0.12600
C 	C 	0.97490 0.81928 0.78622 0.36700
C 	C 	0.92870 0.94802 0.92492 0.37100
C 	C 	0.30520 0.10476 0.81129 -0.10700
C 	C 	0.33940 0.05883 0.83182 0.16400
C 	C 	0.28820 0.03906 0.87462 -0.10300
C 	C 	0.21630 0.13017 0.83281 -0.06100
C 	C 	0.16310 0.10916 0.87450 0.00100
C 	C 	0.19880 0.06374 0.89528 -0.05800
C 	C 	0.17300 0.17751 0.80971 0.38700
C 	C 	0.13500 0.03984 0.93822 0.39500
C 	C 	0.61860 0.01801 0.70624 0.00100
C 	C 	0.47480 0.95592 0.73288 -0.00600
C 	C 	0.76880 0.07623 0.69501 0.17800
C 	C 	0.82520 0.11766 0.71484 -0.11700
C 	C 	0.91200 0.13798 0.68927 -0.04200
C 	C 	0.94540 0.11786 0.64343 -0.01900
C 	C 	0.88970 0.07679 0.62336 -0.04400
C 	C 	0.79990 0.05541 0.64904 -0.12100
C 	C 	0.97490 0.18072 0.71378 0.37000
C 	C 	0.92870 0.05198 0.57508 0.37900
C 	C 	0.30520 0.89524 0.68871 -0.10700
C 	C 	0.33940 0.94117 0.66818 0.16400
C 	C 	0.28820 0.96094 0.62538 -0.10200
C 	C 	0.21630 0.86983 0.66719 -0.06100
C 	C 	0.16310 0.89084 0.62550 0.00100
C 	C 	0.19880 0.93626 0.60472 -0.05800
C 	C 	0.17300 0.82249 0.69029 0.38800
C 	C 	0.13500 0.96016 0.56178 0.39500
C 	C 	0.38140 0.51801 0.29376 0.00200
C 	C 	0.52520 0.45592 0.26712 -0.00900
C 	C 	0.23120 0.57623 0.30499 0.17800
C 	C 	0.17480 0.61766 0.28516 -0.11700
C 	C 	0.08800 0.63798 0.31073 -0.04200
C 	C 	0.05460 0.61786 0.35657 -0.01900
C 	C 	0.11030 0.57679 0.37664 -0.04400
C 	C 	0.20010 0.55541 0.35096 -0.12200
C 	C 	0.02510 0.68072 0.28622 0.37000
C 	C 	0.07130 0.55198 0.42492 0.37900
C 	C 	0.69480 0.39524 0.31129 -0.10700
C 	C 	0.66060 0.44117 0.33182 0.16400
C 	C 	0.71180 0.46094 0.37462 -0.10200
C 	C 	0.78370 0.36983 0.33281 -0.06100
C 	C 	0.83690 0.39084 0.37450 0.00100
C 	C 	0.80120 0.43626 0.39528 -0.05900
C 	C 	0.82700 0.32249 0.30971 0.38800
C 	C 	0.86500 0.46016 0.43822 0.39500
C 	C 	0.54630 0.50000 0.75000 0.02600
C 	C 	0.45370 0.00000 0.25000 0.02500
C 	C 	0.45370 0.50000 0.25000 0.02600
C 	C 	0.54630 0.00000 0.75000 0.02200
O 	O 	0.68500 0.55830 0.77595 -0.22600
O 	O 	0.42320 0.47041 0.81314 -0.22000
O 	O 	0.93530 0.69760 0.74566 -0.48000
O 	O 	0.06150 0.69591 0.80744 -0.45800
O 	O 	0.00750 0.57229 0.94695 -0.46600
O 	O 	0.87970 0.51188 0.93811 -0.47500
O 	O 	0.17440 0.49951 0.95712 -0.47300
O 	O 	0.21900 0.30563 0.77127 -0.47700
O 	O 	0.04650 0.43950 0.94968 -0.48900
O 	O 	0.09000 0.30353 0.83149 -0.47700
O 	O 	0.31500 0.05830 0.22405 -0.22600
O 	O 	0.57680 0.97041 0.18686 -0.22100
O 	O 	0.06470 0.19760 0.25434 -0.48000
O 	O 	0.93850 0.19591 0.19256 -0.45800
O 	O 	0.99250 0.07229 0.05305 -0.46600
O 	O 	0.12030 0.01188 0.06189 -0.47500
O 	O 	0.82560 0.99951 0.04288 -0.47400
O 	O 	0.78100 0.80563 0.22873 -0.47700
O 	O 	0.95350 0.93950 0.05032 -0.48900
O 	O 	0.91000 0.80353 0.16851 -0.47700
O 	O 	0.31500 0.94170 0.27595 -0.22500
O 	O 	0.57680 0.02959 0.31314 -0.22000
O 	O 	0.06470 0.80240 0.24566 -0.48100
O 	O 	0.93850 0.80409 0.30744 -0.46000
O 	O 	0.99250 0.92771 0.44695 -0.47200
O 	O 	0.12030 0.98812 0.43811 -0.47500
O 	O 	0.82560 0.00049 0.45712 -0.47500
O 	O 	0.78100 0.19437 0.27127 -0.47700
O 	O 	0.95350 0.06050 0.44968 -0.49100
O 	O 	0.91000 0.19647 0.33149 -0.47800
O 	O 	0.68500 0.44170 0.72405 -0.22500
O 	O 	0.42320 0.52959 0.68686 -0.22000
O 	O 	0.93530 0.30240 0.75434 -0.48100
O 	O 	0.06150 0.30409 0.69256 -0.46000
O 	O 	0.00750 0.42771 0.55305 -0.47200
O 	O 	0.87970 0.48812 0.56189 -0.47500
O 	O 	0.17440 0.50049 0.54288 -0.47500
O 	O 	0.21900 0.69437 0.72873 -0.47700
O 	O 	0.04650 0.56050 0.55032 -0.49100
O 	O 	0.09000 0.69647 0.66851 -0.47800
O 	O 	0.31500 0.44170 0.22405 -0.22600
O 	O 	0.57680 0.52959 0.18686 -0.22000
O 	O 	0.06470 0.30240 0.25434 -0.48000
O 	O 	0.93850 0.30409 0.19256 -0.45800
O 	O 	0.99250 0.42771 0.05305 -0.46600
O 	O 	0.12030 0.48812 0.06189 -0.47500
O 	O 	0.82560 0.50049 0.04288 -0.47300
O 	O 	0.78100 0.69437 0.22873 -0.47700
O 	O 	0.95350 0.56050 0.05032 -0.48900
O 	O 	0.91000 0.69647 0.16851 -0.47700
O 	O 	0.68500 0.94170 0.77595 -0.22600
O 	O 	0.42320 0.02959 0.81314 -0.22100
O 	O 	0.93530 0.80240 0.74566 -0.48000
O 	O 	0.06150 0.80409 0.80744 -0.45800
O 	O 	0.00750 0.92771 0.94695 -0.46600
O 	O 	0.87970 0.98812 0.93811 -0.47400
O 	O 	0.17440 0.00049 0.95712 -0.47400
O 	O 	0.21900 0.19437 0.77127 -0.47700
O 	O 	0.04650 0.06050 0.94968 -0.48900
O 	O 	0.09000 0.19647 0.83149 -0.47700
O 	O 	0.68500 0.05830 0.72405 -0.22500
O 	O 	0.42320 0.97041 0.68686 -0.22100
O 	O 	0.93530 0.19760 0.75434 -0.48100
O 	O 	0.06150 0.19591 0.69256 -0.46000
O 	O 	0.00750 0.07229 0.55305 -0.47200
O 	O 	0.87970 0.01188 0.56189 -0.47600
O 	O 	0.17440 0.99951 0.54288 -0.47500
O 	O 	0.21900 0.80563 0.72873 -0.47700
O 	O 	0.04650 0.93950 0.55032 -0.49100
O 	O 	0.09000 0.80353 0.66851 -0.47800
O 	O 	0.31500 0.55830 0.27595 -0.22500
O 	O 	0.57680 0.47041 0.31314 -0.22000
O 	O 	0.06470 0.69760 0.24566 -0.48100
O 	O 	0.93850 0.69591 0.30744 -0.46000
O 	O 	0.99250 0.57229 0.44695 -0.47200
O 	O 	0.12030 0.51188 0.43811 -0.47500
O 	O 	0.82560 0.49951 0.45712 -0.47500
O 	O 	0.78100 0.30563 0.27127 -0.47700
O 	O 	0.95350 0.43950 0.44968 -0.49100
O 	O 	0.91000 0.30353 0.33149 -0.47800
