data_crystal

_cell_length_a 15.39150
_cell_length_b 15.39150
_cell_length_c 9.70300
_cell_angle_alpha 95.22200
_cell_angle_beta  95.22200
_cell_angle_gamma 32.51330

_symmetry_space_group_name_	'P 1'
_symmetry_space_group_name_H-M	'P 1'

loop_
_symmetry_equiv_pos_as_xyz
  x,y,z

loop_
_atom_site_label
_atom_site_type_symbol
_atom_site_fract_x
_atom_site_fract_y
_atom_site_fract_z
_atom_site_charge
P 	P 	0.27638 0.42458 0.93890 0.50300
P 	P 	0.80074 0.77274 0.75990 0.46900
C 	C 	0.44250 0.20970 0.95970 -0.06100
C 	C 	0.67520 0.93120 0.89230 -0.10500
C 	C 	0.63486 0.11366 0.82330 -0.04200
C 	C 	0.75770 0.03830 0.93480 -0.01000
C 	C 	0.84319 0.04719 0.90970 -0.13400
C 	C 	0.96659 0.98359 0.00960 0.06600
N 	N 	0.55525 0.09625 0.84370 -0.07800
O 	O 	0.14052 0.49872 0.01690 -0.45100
O 	O 	0.33266 0.46766 0.00490 -0.26900
O 	O 	0.23700 0.46700 0.78910 -0.22400
O 	O 	0.69720 0.83960 0.63240 -0.41100
O 	O 	0.87236 0.62996 0.81360 -0.36900
O 	O 	0.92273 0.73573 0.71950 -0.21400
H 	H 	0.94499 0.30316 0.78067 0.07400
H 	H 	0.75151 0.46404 0.67951 0.06500
H 	H 	0.09406 0.14978 0.55736 0.03900
H 	H 	0.89689 0.30478 0.46193 0.06800
H 	H 	0.82037 0.25270 0.60631 0.02400
H 	H 	0.02196 0.08771 0.69048 -0.00800
H 	H 	0.15308 0.92697 0.48781 0.11800
H 	H 	0.96490 0.08535 0.38233 0.09600
H 	H 	0.10257 0.24290 0.52432 0.07000
H 	H 	0.05913 0.39730 0.55844 0.06800
H 	H 	0.17253 0.51715 0.55517 0.08700
H 	H 	0.18499 0.39272 0.47943 0.06800
P 	P 	0.57542 0.72362 0.56110 0.42300
P 	P 	0.22726 0.19926 0.74010 0.46500
C 	C 	0.79030 0.55750 0.54030 -0.11300
C 	C 	0.06880 0.32480 0.60770 -0.15400
C 	C 	0.88634 0.36514 0.67670 -0.01300
C 	C 	0.96170 0.24230 0.56520 -0.08200
C 	C 	0.95281 0.15681 0.59030 0.07300
C 	C 	0.01641 0.03341 0.49040 -0.29700
N 	N 	0.90375 0.44475 0.65630 -0.04700
O 	O 	0.50128 0.85948 0.48310 -0.36700
O 	O 	0.53234 0.66734 0.49510 -0.21200
O 	O 	0.53300 0.76300 0.71090 -0.20200
O 	O 	0.16040 0.30280 0.86760 -0.41300
O 	O 	0.37004 0.12764 0.68640 -0.40400
O 	O 	0.26427 0.07727 0.78050 -0.24400
H 	H 	0.69684 0.05501 0.71933 0.05500
H 	H 	0.53596 0.24849 0.82049 0.07900
H 	H 	0.85022 0.90594 0.94264 0.08300
H 	H 	0.69522 0.10311 0.03807 0.00700
H 	H 	0.74730 0.17963 0.89369 0.07600
H 	H 	0.91229 0.97804 0.80952 0.09700
H 	H 	0.07303 0.84692 0.01219 -0.00600
H 	H 	0.91465 0.03510 0.11767 -0.01300
H 	H 	0.75710 0.89743 0.97568 0.09800
H 	H 	0.60270 0.94087 0.94156 0.10000
H 	H 	0.48285 0.82747 0.94483 0.14100
H 	H 	0.60728 0.81501 0.02057 0.07100
P 	P 	0.72362 0.57542 0.06110 0.34900
P 	P 	0.19926 0.22726 0.24010 0.46400
C 	C 	0.55750 0.79030 0.04030 -0.16200
C 	C 	0.32480 0.06880 0.10770 -0.16400
C 	C 	0.36514 0.88634 0.17670 -0.00700
C 	C 	0.24230 0.96170 0.06520 -0.11100
C 	C 	0.15681 0.95281 0.09030 0.01900
C 	C 	0.03341 0.01641 0.99040 -0.16800
N 	N 	0.44475 0.90375 0.15630 -0.03900
O 	O 	0.85948 0.50128 0.98310 -0.31600
O 	O 	0.66734 0.53234 0.99510 -0.16000
O 	O 	0.76300 0.53300 0.21090 -0.20500
O 	O 	0.30280 0.16040 0.36760 -0.44000
O 	O 	0.12764 0.37004 0.18640 -0.41500
O 	O 	0.07727 0.26427 0.28050 -0.26000
H 	H 	0.05501 0.69684 0.21933 0.05100
H 	H 	0.24849 0.53596 0.32049 0.06700
H 	H 	0.90594 0.85022 0.44264 0.07700
H 	H 	0.10311 0.69522 0.53807 0.05500
H 	H 	0.17963 0.74730 0.39369 0.07400
H 	H 	0.97804 0.91229 0.30952 0.10100
H 	H 	0.84692 0.07303 0.51219 -0.01400
H 	H 	0.03510 0.91465 0.61767 -0.01000
H 	H 	0.89743 0.75710 0.47568 0.07800
H 	H 	0.94087 0.60270 0.44156 0.08000
H 	H 	0.82747 0.48285 0.44483 0.09700
H 	H 	0.81501 0.60728 0.52057 0.07800
P 	P 	0.42458 0.27638 0.43890 0.42300
P 	P 	0.77274 0.80074 0.25990 0.46700
C 	C 	0.20970 0.44250 0.45970 -0.11500
C 	C 	0.93120 0.67520 0.39230 -0.10900
C 	C 	0.11366 0.63486 0.32330 -0.03200
C 	C 	0.03830 0.75770 0.43480 -0.05500
C 	C 	0.04719 0.84319 0.40970 -0.18300
C 	C 	0.98359 0.96659 0.50960 0.17400
N 	N 	0.09625 0.55525 0.34370 -0.07400
O 	O 	0.49872 0.14052 0.51690 -0.39700
O 	O 	0.46766 0.33266 0.50490 -0.21300
O 	O 	0.46700 0.23700 0.28910 -0.22800
O 	O 	0.83960 0.69720 0.13240 -0.43000
O 	O 	0.62996 0.87236 0.31360 -0.37700
O 	O 	0.73573 0.92273 0.21950 -0.22300
H 	H 	0.30316 0.94499 0.28067 0.07300
H 	H 	0.46404 0.75151 0.17951 0.05500
H 	H 	0.14978 0.09406 0.05736 0.02400
H 	H 	0.30478 0.89689 0.96193 0.11000
H 	H 	0.25270 0.82037 0.10631 0.02300
H 	H 	0.08771 0.02196 0.19048 -0.01300
H 	H 	0.92697 0.15308 0.98781 0.10300
H 	H 	0.08535 0.96490 0.88233 0.09100
H 	H 	0.24290 0.10257 0.02432 0.04700
H 	H 	0.39730 0.05913 0.05844 0.04500
H 	H 	0.51715 0.17253 0.05517 0.03800
H 	H 	0.39272 0.18499 0.97943 0.07800
Mg	Mg	-0.00000 0.50000 -0.00000 1.46700
Mg	Mg	0.50000 0.00000 0.50000 1.47200
