data_crystal

_cell_length_a 14.52620
_cell_length_b 14.52620
_cell_length_c 14.52620
_cell_angle_alpha 63.07670
_cell_angle_beta  74.12130
_cell_angle_gamma 105.87900

_symmetry_space_group_name_	'P 1'
_symmetry_space_group_name_H-M	'P 1'

loop_
_symmetry_equiv_pos_as_xyz
  x,y,z

loop_
_atom_site_label
_atom_site_type_symbol
_atom_site_fract_x
_atom_site_fract_y
_atom_site_fract_z
_atom_site_charge
Cu	Cu	0.58780 0.09232 0.49085 0.91300
Cu	Cu	0.91220 0.42135 0.49548 0.91300
Cu	Cu	0.41220 0.90768 0.50915 0.91200
Cu	Cu	0.08780 0.57865 0.50452 0.91200
H 	H 	0.35890 0.11900 0.48510 0.04900
H 	H 	0.32290 0.25570 0.34060 0.08300
H 	H 	0.34620 0.35660 0.15300 0.00300
H 	H 	0.48750 0.38830 0.00600 0.08300
H 	H 	0.61010 0.32650 0.04100 -0.00200
H 	H 	0.58790 0.22210 0.23060 0.08700
H 	H 	0.70270 0.26620 0.52590 0.06000
H 	H 	0.80730 0.09430 0.47640 0.04400
H 	H 	0.71830 0.97340 0.59130 0.03400
H 	H 	0.56980 0.96480 0.73140 0.02800
H 	H 	0.56480 0.08020 0.70520 0.02900
H 	H 	0.79200 0.01650 0.78090 0.04200
H 	H 	0.14110 0.65600 0.23990 0.04800
H 	H 	0.17710 0.83650 0.06720 0.08200
H 	H 	0.15380 0.00080 0.98960 0.00600
H 	H 	0.01250 0.00650 0.09920 0.07200
H 	H 	0.88990 0.84890 0.28360 0.00600
H 	H 	0.91210 0.68150 0.36580 0.08400
H 	H 	0.79730 0.27140 0.43650 0.06000
H 	H 	0.69270 0.21630 0.71300 0.04400
H 	H 	0.78170 0.19040 0.74490 0.03600
H 	H 	0.93020 0.19880 0.60500 0.03000
H 	H 	0.93520 0.23000 0.48460 0.03000
H 	H 	0.70800 0.92710 0.77550 0.03900
H 	H 	0.64110 0.88100 0.51490 0.04900
H 	H 	0.67710 0.74430 0.65940 0.08300
H 	H 	0.65380 0.64340 0.84700 0.00300
H 	H 	0.51250 0.61170 0.99400 0.08300
H 	H 	0.38990 0.67350 0.95900 -0.00200
H 	H 	0.41210 0.77790 0.76940 0.08700
H 	H 	0.29730 0.73380 0.47410 0.06000
H 	H 	0.19270 0.90570 0.52360 0.04400
H 	H 	0.28170 0.02660 0.40870 0.03400
H 	H 	0.43020 0.03520 0.26860 0.02800
H 	H 	0.43520 0.91980 0.29480 0.02900
H 	H 	0.20800 0.98350 0.21910 0.04200
H 	H 	0.85890 0.34400 0.76010 0.04800
H 	H 	0.82290 0.16350 0.93280 0.08200
H 	H 	0.84620 0.99920 0.01040 0.00600
H 	H 	0.98750 0.99350 0.90080 0.07200
H 	H 	0.11010 0.15110 0.71640 0.00600
H 	H 	0.08790 0.31850 0.63420 0.08400
H 	H 	0.20270 0.72860 0.56350 0.06000
H 	H 	0.30730 0.78370 0.28700 0.04400
H 	H 	0.21830 0.80960 0.25510 0.03600
H 	H 	0.06980 0.80120 0.39500 0.03000
H 	H 	0.06480 0.77000 0.51540 0.03000
H 	H 	0.29200 0.07290 0.22450 0.03900
C 	C 	0.50033 0.24332 0.45187 0.32300
C 	C 	0.43586 0.15747 0.43059 -0.06100
C 	C 	0.45190 0.22648 0.30622 0.10300
C 	C 	0.38080 0.26860 0.28080 -0.16000
C 	C 	0.39460 0.32910 0.16870 0.07300
C 	C 	0.47900 0.34850 0.08150 -0.15100
C 	C 	0.55160 0.31090 0.10230 0.06800
C 	C 	0.53851 0.24841 0.21610 -0.15800
C 	C 	0.75942 0.05540 0.55826 -0.01300
C 	C 	0.61337 0.04697 0.69602 -0.01100
C 	C 	0.99967 0.54780 0.25701 0.31800
C 	C 	0.06414 0.63355 0.27839 -0.05700
C 	C 	0.04810 0.74188 0.22542 0.09800
C 	C 	0.11920 0.83840 0.11220 -0.15100
C 	C 	0.10540 0.93670 0.06550 0.06200
C 	C 	0.02100 0.93950 0.13050 -0.12500
C 	C 	0.94840 0.84610 0.24070 0.04700
C 	C 	0.96149 0.74539 0.29010 -0.14900
C 	C 	0.74058 0.18232 0.70402 -0.01600
C 	C 	0.88663 0.19061 0.56640 -0.01500
C 	C 	0.49967 0.75668 0.54813 0.32300
C 	C 	0.56414 0.84253 0.56941 -0.06100
C 	C 	0.54810 0.77352 0.69378 0.10300
C 	C 	0.61920 0.73140 0.71920 -0.16000
C 	C 	0.60540 0.67090 0.83130 0.07300
C 	C 	0.52100 0.65150 0.91850 -0.15100
C 	C 	0.44840 0.68910 0.89770 0.06800
C 	C 	0.46149 0.75159 0.78390 -0.15800
C 	C 	0.24058 0.94460 0.44174 -0.01300
C 	C 	0.38663 0.95303 0.30398 -0.01100
C 	C 	0.00033 0.45220 0.74299 0.31800
C 	C 	0.93586 0.36645 0.72161 -0.05700
C 	C 	0.95190 0.25812 0.77458 0.09800
C 	C 	0.88080 0.16160 0.88780 -0.15100
C 	C 	0.89460 0.06330 0.93450 0.06200
C 	C 	0.97900 0.06050 0.86950 -0.12500
C 	C 	0.05160 0.15390 0.75930 0.04700
C 	C 	0.03851 0.25461 0.70990 -0.14900
C 	C 	0.25942 0.81768 0.29598 -0.01600
C 	C 	0.11337 0.80939 0.43360 -0.01500
C 	C 	0.75000 0.23120 0.51880 -0.04700
C 	C 	0.75000 0.00930 0.74070 -0.00400
C 	C 	0.25000 0.76880 0.48120 -0.04700
C 	C 	0.25000 0.99070 0.25930 -0.00400
N 	N 	0.68379 0.10610 0.56935 -0.17100
N 	N 	0.82340 0.06763 0.61731 -0.09700
N 	N 	0.81621 0.24686 0.57769 -0.17000
N 	N 	0.67660 0.05929 0.75577 -0.09700
N 	N 	0.31621 0.89390 0.43065 -0.17100
N 	N 	0.17660 0.93237 0.38269 -0.09700
N 	N 	0.18379 0.75314 0.42231 -0.17000
N 	N 	0.32340 0.94071 0.24423 -0.09700
O 	O 	0.57263 0.22651 0.47754 -0.39800
O 	O 	0.47997 0.32437 0.44046 -0.35500
O 	O 	0.47113 0.07312 0.44997 -0.41700
O 	O 	0.92737 0.44983 0.34612 -0.39700
O 	O 	0.02003 0.57957 0.15560 -0.35200
O 	O 	0.02887 0.57890 0.39801 -0.41700
O 	O 	0.42737 0.77349 0.52246 -0.39800
O 	O 	0.52003 0.67563 0.55954 -0.35500
O 	O 	0.52887 0.92688 0.55003 -0.41700
O 	O 	0.07263 0.55017 0.65388 -0.39700
O 	O 	0.97997 0.42043 0.84440 -0.35200
O 	O 	0.97113 0.42110 0.60199 -0.41700
Cu	Cu	0.41683 0.50915 0.57865 0.91200
Cu	Cu	0.08317 0.50452 0.90768 0.91200
Cu	Cu	0.58317 0.49085 0.42135 0.91200
Cu	Cu	0.91683 0.49548 0.09232 0.91200
H 	H 	0.39590 0.51490 0.34400 0.04800
H 	H 	0.40370 0.65940 0.16350 0.08400
H 	H 	0.49040 0.84700 0.99920 0.00100
H 	H 	0.60570 0.99400 0.99350 0.07900
H 	H 	0.63250 0.95900 0.15110 0.00000
H 	H 	0.54730 0.76940 0.31850 0.08700
H 	H 	0.20790 0.47410 0.72860 0.06000
H 	H 	0.42930 0.52360 0.78370 0.04400
H 	H 	0.43530 0.40870 0.80960 0.03600
H 	H 	0.30380 0.26860 0.80120 0.03000
H 	H 	0.21460 0.29480 0.77000 0.03000
H 	H 	0.20260 0.21910 0.07290 0.04200
H 	H 	0.10410 0.76010 0.88100 0.04800
H 	H 	0.09630 0.93280 0.74430 0.08200
H 	H 	0.00960 0.01040 0.64340 0.00500
H 	H 	0.89430 0.90080 0.61170 0.08100
H 	H 	0.86750 0.71640 0.67350 0.00000
H 	H 	0.95270 0.63420 0.77790 0.08600
H 	H 	0.29210 0.56350 0.73380 0.06000
H 	H 	0.07070 0.28700 0.90570 0.04400
H 	H 	0.06470 0.25510 0.02660 0.03600
H 	H 	0.19620 0.39500 0.03520 0.03100
H 	H 	0.28540 0.51540 0.91980 0.03000
H 	H 	0.29740 0.22450 0.98350 0.04200
H 	H 	0.60410 0.48510 0.65600 0.04800
H 	H 	0.59630 0.34060 0.83650 0.08400
H 	H 	0.50960 0.15300 0.00080 0.00100
H 	H 	0.39430 0.00600 0.00650 0.07900
H 	H 	0.36750 0.04100 0.84890 0.00000
H 	H 	0.45270 0.23060 0.68150 0.08700
H 	H 	0.79210 0.52590 0.27140 0.06000
H 	H 	0.57070 0.47640 0.21630 0.04400
H 	H 	0.56470 0.59130 0.19040 0.03600
H 	H 	0.69620 0.73140 0.19880 0.03000
H 	H 	0.78540 0.70520 0.23000 0.03000
H 	H 	0.79740 0.78090 0.92710 0.04200
H 	H 	0.89590 0.23990 0.11900 0.04800
H 	H 	0.90370 0.06720 0.25570 0.08200
H 	H 	0.99040 0.98960 0.35660 0.00500
H 	H 	0.10570 0.09920 0.38830 0.08100
H 	H 	0.13250 0.28360 0.32650 0.00000
H 	H 	0.04730 0.36580 0.22210 0.08600
H 	H 	0.70790 0.43650 0.26620 0.06000
H 	H 	0.92930 0.71300 0.09430 0.04400
H 	H 	0.93530 0.74490 0.97340 0.03600
H 	H 	0.80380 0.60500 0.96480 0.03100
H 	H 	0.71460 0.48460 0.08020 0.03000
H 	H 	0.70260 0.77550 0.01650 0.04200
C 	C 	0.30481 0.54813 0.45220 0.32300
C 	C 	0.41194 0.56941 0.36645 -0.06100
C 	C 	0.46730 0.69378 0.25812 0.10300
C 	C 	0.45060 0.71920 0.16160 -0.16000
C 	C 	0.50220 0.83130 0.06330 0.07300
C 	C 	0.57000 0.91850 0.06050 -0.14500
C 	C 	0.58680 0.89770 0.15390 0.06400
C 	C 	0.53549 0.78390 0.25461 -0.15600
C 	C 	0.38634 0.44174 0.81768 -0.01600
C 	C 	0.25701 0.30398 0.80939 -0.01500
C 	C 	0.19519 0.74299 0.75668 0.32300
C 	C 	0.08806 0.72161 0.84253 -0.06000
C 	C 	0.03270 0.77458 0.77352 0.10000
C 	C 	0.04940 0.88780 0.73140 -0.15400
C 	C 	0.99780 0.93450 0.67090 0.06600
C 	C 	0.93000 0.86950 0.65150 -0.14600
C 	C 	0.91320 0.75930 0.68910 0.06300
C 	C 	0.96451 0.70990 0.75159 -0.15500
C 	C 	0.11366 0.29598 0.94460 -0.01600
C 	C 	0.24299 0.43360 0.95303 -0.01600
C 	C 	0.69519 0.45187 0.54780 0.32300
C 	C 	0.58806 0.43059 0.63355 -0.06100
C 	C 	0.53270 0.30622 0.74188 0.10300
C 	C 	0.54940 0.28080 0.83840 -0.16000
C 	C 	0.49780 0.16870 0.93670 0.07300
C 	C 	0.43000 0.08150 0.93950 -0.14500
C 	C 	0.41320 0.10230 0.84610 0.06400
C 	C 	0.46451 0.21610 0.74539 -0.15600
C 	C 	0.61366 0.55826 0.18232 -0.01600
C 	C 	0.74299 0.69602 0.19061 -0.01500
C 	C 	0.80481 0.25701 0.24332 0.32300
C 	C 	0.91194 0.27839 0.15747 -0.06000
C 	C 	0.96730 0.22542 0.22648 0.10000
C 	C 	0.95060 0.11220 0.26860 -0.15400
C 	C 	0.00220 0.06550 0.32910 0.06600
C 	C 	0.07000 0.13050 0.34850 -0.14600
C 	C 	0.08680 0.24070 0.31090 0.06300
C 	C 	0.03549 0.29010 0.24841 -0.15500
C 	C 	0.88634 0.70402 0.05540 -0.01600
C 	C 	0.75701 0.56640 0.04697 -0.01600
C 	C 	0.25000 0.48120 0.76880 -0.04700
C 	C 	0.25000 0.25930 0.99070 -0.00800
C 	C 	0.75000 0.51880 0.23120 -0.04700
C 	C 	0.75000 0.74070 0.00930 -0.00800
N 	N 	0.32455 0.43065 0.75314 -0.17000
N 	N 	0.31506 0.38269 0.94071 -0.09700
N 	N 	0.17545 0.42231 0.89390 -0.17000
N 	N 	0.18494 0.24423 0.93237 -0.09700
N 	N 	0.67545 0.56935 0.24686 -0.17000
N 	N 	0.68494 0.61731 0.05929 -0.09700
N 	N 	0.82455 0.57769 0.10610 -0.17000
N 	N 	0.81506 0.75577 0.06763 -0.09700
O 	O 	0.29595 0.52246 0.55017 -0.39800
O 	O 	0.23517 0.55954 0.42043 -0.35500
O 	O 	0.47691 0.55003 0.42110 -0.41700
O 	O 	0.20405 0.65388 0.77349 -0.39800
O 	O 	0.26483 0.84440 0.67563 -0.35500
O 	O 	0.02309 0.60199 0.92688 -0.41800
O 	O 	0.70405 0.47754 0.44983 -0.39800
O 	O 	0.76483 0.44046 0.57957 -0.35500
O 	O 	0.52309 0.44997 0.57890 -0.41700
O 	O 	0.79595 0.34612 0.22651 -0.39800
O 	O 	0.73517 0.15560 0.32437 -0.35500
O 	O 	0.97691 0.39801 0.07312 -0.41800
