data_crystal

_cell_length_a 6.67370
_cell_length_b 18.87690
_cell_length_c 13.55250
_cell_angle_alpha 90.00000
_cell_angle_beta  95.26600
_cell_angle_gamma 90.00000

_symmetry_space_group_name_	'P 1'
_symmetry_space_group_name_H-M	'P 1'

loop_
_symmetry_equiv_pos_as_xyz
  x,y,z

loop_
_atom_site_label
_atom_site_type_symbol
_atom_site_fract_x
_atom_site_fract_y
_atom_site_fract_z
_atom_site_charge
Ag	Ag	0.27094 0.00853 0.94594 0.50200
N 	N 	0.52220 0.06900 0.89110 -0.18800
N 	N 	0.50870 0.14130 0.90780 -0.12900
N 	N 	0.70810 0.12230 0.78950 -0.19600
N 	N 	0.09160 0.40410 0.52420 -0.16700
N 	N 	0.92170 0.41460 0.57200 -0.16900
N 	N 	0.00520 0.30300 0.58770 -0.20700
C 	C 	0.64050 0.05950 0.82010 0.09100
H 	H 	0.67310 0.01570 0.79460 -0.03300
C 	C 	0.62030 0.17070 0.84520 0.10100
H 	H 	0.63760 0.21940 0.83950 -0.02700
C 	C 	0.13800 0.33710 0.53510 0.09000
H 	H 	0.24810 0.31570 0.51000 -0.02200
C 	C 	0.87150 0.35360 0.60910 0.10700
H 	H 	0.76070 0.34610 0.64470 -0.03600
C 	C 	0.84310 0.13330 0.70920 0.39500
C 	C 	0.85570 0.21320 0.68910 -0.52100
H 	H 	0.72270 0.23170 0.66880 0.17600
H 	H 	0.90790 0.23770 0.74890 0.17900
C 	C 	0.99450 0.22540 0.60730 0.40400
C 	C 	0.91210 0.18820 0.51290 -0.52700
H 	H 	0.00000 0.19650 0.46100 0.16700
H 	H 	0.77980 0.20670 0.49110 0.17800
C 	C 	0.89810 0.10830 0.53330 0.43000
H 	H 	0.84530 0.08400 0.47250 -0.12800
C 	C 	0.75620 0.09540 0.61480 -0.53600
H 	H 	0.62320 0.11370 0.59390 0.17800
H 	H 	0.74490 0.04500 0.62710 0.17900
C 	C 	0.05390 0.10510 0.74370 -0.53900
H 	H 	0.10710 0.12960 0.80340 0.17500
H 	H 	0.04720 0.05490 0.75830 0.16000
C 	C 	0.19040 0.11760 0.66040 0.43100
H 	H 	0.32480 0.09900 0.68120 -0.11900
C 	C 	0.20720 0.19740 0.64010 -0.54400
H 	H 	0.29590 0.20550 0.58840 0.17600
H 	H 	0.26200 0.22180 0.69960 0.18000
C 	C 	0.10820 0.07970 0.56660 -0.57900
H 	H 	0.10100 0.02920 0.57890 0.18700
H 	H 	0.19700 0.08730 0.51480 0.18200
Ag	Ag	0.72906 0.50853 0.55406 0.50700
N 	N 	0.47780 0.56900 0.60890 -0.18800
N 	N 	0.49130 0.64130 0.59220 -0.12700
N 	N 	0.29190 0.62230 0.71050 -0.19100
N 	N 	0.90840 0.90410 0.97580 -0.15400
N 	N 	0.07830 0.91460 0.92800 -0.17500
N 	N 	0.99480 0.80300 0.91230 -0.17400
C 	C 	0.35950 0.55950 0.67990 0.08600
H 	H 	0.32690 0.51570 0.70540 -0.03400
C 	C 	0.37970 0.67070 0.65480 0.09800
H 	H 	0.36240 0.71940 0.66050 -0.02400
C 	C 	0.86200 0.83710 0.96490 0.09300
H 	H 	0.75190 0.81570 0.99000 -0.01700
C 	C 	0.12850 0.85360 0.89090 0.07600
H 	H 	0.23930 0.84610 0.85530 -0.02500
C 	C 	0.15690 0.63330 0.79080 0.33900
C 	C 	0.14430 0.71320 0.81090 -0.46700
H 	H 	0.27730 0.73170 0.83120 0.16100
H 	H 	0.09210 0.73770 0.75110 0.15600
C 	C 	0.00550 0.72540 0.89270 0.33300
C 	C 	0.08790 0.68820 0.98710 -0.48400
H 	H 	0.00000 0.69650 0.03900 0.15700
H 	H 	0.22020 0.70670 0.00890 0.16500
C 	C 	0.10190 0.60830 0.96670 0.35800
H 	H 	0.15470 0.58400 0.02750 -0.11000
C 	C 	0.24380 0.59540 0.88520 -0.48100
H 	H 	0.37680 0.61370 0.90610 0.16300
H 	H 	0.25510 0.54500 0.87290 0.15800
C 	C 	0.94610 0.60510 0.75630 -0.46200
H 	H 	0.89290 0.62960 0.69660 0.15900
H 	H 	0.95280 0.55490 0.74170 0.14400
C 	C 	0.80960 0.61760 0.83960 0.36700
H 	H 	0.67520 0.59900 0.81880 -0.09900
C 	C 	0.79280 0.69740 0.85990 -0.46200
H 	H 	0.70410 0.70550 0.91160 0.15600
H 	H 	0.73800 0.72180 0.80040 0.16100
C 	C 	0.89180 0.57970 0.93340 -0.49400
H 	H 	0.89900 0.52920 0.92110 0.16800
H 	H 	0.80300 0.58730 0.98520 0.16200
Ag	Ag	0.72906 0.99147 0.05406 0.50600
N 	N 	0.47780 0.93100 0.10890 -0.18800
N 	N 	0.49130 0.85870 0.09220 -0.12800
N 	N 	0.29190 0.87770 0.21050 -0.19100
N 	N 	0.90840 0.59590 0.47580 -0.15600
N 	N 	0.07830 0.58540 0.42800 -0.17500
N 	N 	0.99480 0.69700 0.41230 -0.17600
C 	C 	0.35950 0.94050 0.17990 0.08600
H 	H 	0.32690 0.98430 0.20540 -0.03400
C 	C 	0.37970 0.82930 0.15480 0.09800
H 	H 	0.36240 0.78060 0.16050 -0.02400
C 	C 	0.86200 0.66290 0.46490 0.09300
H 	H 	0.75190 0.68430 0.49000 -0.01800
C 	C 	0.12850 0.64640 0.39090 0.07800
H 	H 	0.23930 0.65390 0.35530 -0.02600
C 	C 	0.15690 0.86670 0.29080 0.34100
C 	C 	0.14430 0.78680 0.31090 -0.47000
H 	H 	0.27730 0.76830 0.33120 0.16200
H 	H 	0.09210 0.76230 0.25110 0.15700
C 	C 	0.00550 0.77460 0.39270 0.33700
C 	C 	0.08790 0.81180 0.48710 -0.48800
H 	H 	0.00000 0.80350 0.53900 0.15800
H 	H 	0.22020 0.79330 0.50890 0.16600
C 	C 	0.10190 0.89170 0.46670 0.36300
H 	H 	0.15470 0.91600 0.52750 -0.11200
C 	C 	0.24380 0.90460 0.38520 -0.48500
H 	H 	0.37680 0.88630 0.40610 0.16400
H 	H 	0.25510 0.95500 0.37290 0.15900
C 	C 	0.94610 0.89490 0.25630 -0.46600
H 	H 	0.89290 0.87040 0.19660 0.15900
H 	H 	0.95280 0.94510 0.24170 0.14500
C 	C 	0.80960 0.88240 0.33960 0.37000
H 	H 	0.67520 0.90100 0.31880 -0.10000
C 	C 	0.79280 0.80260 0.35990 -0.46700
H 	H 	0.70410 0.79450 0.41160 0.15700
H 	H 	0.73800 0.77820 0.30040 0.16200
C 	C 	0.89180 0.92030 0.43340 -0.49900
H 	H 	0.89900 0.97080 0.42110 0.17000
H 	H 	0.80300 0.91270 0.48520 0.16300
Ag	Ag	0.27094 0.49147 0.44594 0.50400
N 	N 	0.52220 0.43100 0.39110 -0.18800
N 	N 	0.50870 0.35870 0.40780 -0.12900
N 	N 	0.70810 0.37770 0.28950 -0.19600
N 	N 	0.09160 0.09590 0.02420 -0.16500
N 	N 	0.92170 0.08540 0.07200 -0.16800
N 	N 	0.00520 0.19700 0.08770 -0.20400
C 	C 	0.64050 0.44050 0.32010 0.09100
H 	H 	0.67310 0.48430 0.29460 -0.03300
C 	C 	0.62030 0.32930 0.34520 0.10100
H 	H 	0.63760 0.28060 0.33950 -0.02600
C 	C 	0.13800 0.16290 0.03510 0.09100
H 	H 	0.24810 0.18430 0.01000 -0.02100
C 	C 	0.87150 0.14640 0.10910 0.10500
H 	H 	0.76070 0.15390 0.14470 -0.03500
C 	C 	0.84310 0.36670 0.20920 0.39200
C 	C 	0.85570 0.28680 0.18910 -0.51600
H 	H 	0.72270 0.26830 0.16880 0.17500
H 	H 	0.90790 0.26230 0.24890 0.17700
C 	C 	0.99450 0.27460 0.10730 0.39800
C 	C 	0.91210 0.31180 0.01290 -0.51600
H 	H 	0.00000 0.30350 0.96100 0.16200
H 	H 	0.77980 0.29330 0.99110 0.17400
C 	C 	0.89810 0.39170 0.03330 0.42200
H 	H 	0.84530 0.41600 0.97250 -0.12500
C 	C 	0.75620 0.40460 0.11480 -0.53100
H 	H 	0.62320 0.38630 0.09390 0.17700
H 	H 	0.74490 0.45500 0.12710 0.17700
C 	C 	0.05390 0.39490 0.24370 -0.53400
H 	H 	0.10710 0.37040 0.30340 0.17400
H 	H 	0.04720 0.44510 0.25830 0.15900
C 	C 	0.19040 0.38240 0.16040 0.42600
H 	H 	0.32480 0.40100 0.18120 -0.11800
C 	C 	0.20720 0.30260 0.14010 -0.53800
H 	H 	0.29590 0.29450 0.08840 0.17500
H 	H 	0.26200 0.27820 0.19960 0.17900
C 	C 	0.10820 0.42030 0.06660 -0.57200
H 	H 	0.10100 0.47080 0.07890 0.18500
H 	H 	0.19700 0.41270 0.01480 0.18000
