data_crystal

_cell_length_a 11.99960
_cell_length_b 21.06650
_cell_length_c 15.64770
_cell_angle_alpha 90.00000
_cell_angle_beta  109.55500
_cell_angle_gamma 90.00000

_symmetry_space_group_name_	'P 1'
_symmetry_space_group_name_H-M	'P 1'

loop_
_symmetry_equiv_pos_as_xyz
  x,y,z

loop_
_atom_site_label
_atom_site_type_symbol
_atom_site_fract_x
_atom_site_fract_y
_atom_site_fract_z
_atom_site_charge
Cu	Cu	0.75765 0.08181 0.16413 0.90300
Br	Br	0.66892 0.10828 0.98713 -0.30100
Br	Br	0.72780 0.17800 0.92490 -0.14600
N 	N 	0.62860 0.03314 0.18890 -0.18900
N 	N 	0.91050 0.12830 0.18300 -0.18300
N 	N 	0.01050 0.09540 0.18590 -0.17900
N 	N 	0.05180 0.19480 0.20670 -0.09700
N 	N 	0.69450 0.16110 0.20450 -0.18500
N 	N 	0.72690 0.17200 0.29700 -0.10500
N 	N 	0.11630 0.25110 0.22470 -0.10100
N 	N 	0.88110 0.04470 0.31350 -0.14700
N 	N 	0.98320 0.02550 0.45350 -0.09000
C 	C 	0.53580 0.05210 0.20700 0.11200
H 	H 	0.51420 0.09410 0.21120 0.02400
C 	C 	0.93700 0.18790 0.19620 0.11200
H 	H 	0.88530 0.22030 0.19820 0.02400
C 	C 	0.09650 0.13630 0.20010 0.11100
H 	H 	0.17420 0.12720 0.20480 0.02400
C 	C 	0.67930 0.22500 0.30690 0.10100
H 	H 	0.68670 0.24400 0.36220 0.01500
C 	C 	0.62850 0.20760 0.16280 0.11500
H 	H 	0.59490 0.21190 0.10020 0.03900
C 	C 	0.88470 0.05570 0.39640 0.10200
Cu	Cu	0.25765 0.58181 0.16413 0.90200
Br	Br	0.16892 0.60828 0.98713 -0.29500
Br	Br	0.22780 0.67800 0.92490 -0.14200
N 	N 	0.12860 0.53314 0.18890 -0.18900
N 	N 	0.41050 0.62830 0.18300 -0.18200
N 	N 	0.51050 0.59540 0.18590 -0.18200
N 	N 	0.55180 0.69480 0.20670 -0.10000
N 	N 	0.19450 0.66110 0.20450 -0.18500
N 	N 	0.22690 0.67200 0.29700 -0.10400
N 	N 	0.61630 0.75110 0.22470 -0.10100
N 	N 	0.38110 0.54470 0.31350 -0.14600
N 	N 	0.48320 0.52550 0.45350 -0.08300
C 	C 	0.03580 0.55210 0.20700 0.11900
H 	H 	0.01420 0.59410 0.21120 0.02400
C 	C 	0.43700 0.68790 0.19620 0.11800
H 	H 	0.38530 0.72030 0.19820 0.02300
C 	C 	0.59650 0.63630 0.20010 0.11000
H 	H 	0.67420 0.62720 0.20480 0.02300
C 	C 	0.17930 0.72500 0.30690 0.10200
H 	H 	0.18670 0.74400 0.36220 0.01600
C 	C 	0.12850 0.70760 0.16280 0.11600
H 	H 	0.09490 0.71190 0.10020 0.04000
C 	C 	0.38470 0.55570 0.39640 0.10400
Cu	Cu	0.24235 0.08181 0.83587 0.89500
Br	Br	0.33108 0.10828 0.01287 -0.26100
Br	Br	0.27220 0.17800 0.07510 -0.12600
N 	N 	0.37140 0.03314 0.81110 -0.19200
N 	N 	0.08950 0.12830 0.81700 -0.18300
N 	N 	0.98950 0.09540 0.81410 -0.18900
N 	N 	0.94820 0.19480 0.79330 -0.10600
N 	N 	0.30550 0.16110 0.79550 -0.18800
N 	N 	0.27310 0.17200 0.70300 -0.10400
N 	N 	0.88370 0.25110 0.77530 -0.10300
N 	N 	0.11890 0.04470 0.68650 -0.14600
N 	N 	0.01680 0.02550 0.54650 -0.07800
C 	C 	0.46420 0.05210 0.79300 0.11000
H 	H 	0.48580 0.09410 0.78880 0.02400
C 	C 	0.06300 0.18790 0.80380 0.12400
H 	H 	0.11470 0.22030 0.80180 0.02000
C 	C 	0.90350 0.13630 0.79990 0.10500
H 	H 	0.82580 0.12720 0.79520 0.02400
C 	C 	0.32070 0.22500 0.69310 0.10200
H 	H 	0.31330 0.24400 0.63780 0.01600
C 	C 	0.37150 0.20760 0.83720 0.11700
H 	H 	0.40510 0.21190 0.89980 0.02700
C 	C 	0.11530 0.05570 0.60360 0.10400
Cu	Cu	0.74235 0.58181 0.83587 0.89500
Br	Br	0.83108 0.60828 0.01287 -0.26200
Br	Br	0.77220 0.67800 0.07510 -0.12700
N 	N 	0.87140 0.53314 0.81110 -0.19000
N 	N 	0.58950 0.62830 0.81700 -0.18500
N 	N 	0.48950 0.59540 0.81410 -0.18500
N 	N 	0.44820 0.69480 0.79330 -0.10100
N 	N 	0.80550 0.66110 0.79550 -0.18900
N 	N 	0.77310 0.67200 0.70300 -0.10500
N 	N 	0.38370 0.75110 0.77530 -0.10200
N 	N 	0.61890 0.54470 0.68650 -0.14600
N 	N 	0.51680 0.52550 0.54650 -0.08300
C 	C 	0.96420 0.55210 0.79300 0.10100
H 	H 	0.98580 0.59410 0.78880 0.02400
C 	C 	0.56300 0.68790 0.80380 0.11300
H 	H 	0.61470 0.72030 0.80180 0.02200
C 	C 	0.40350 0.63630 0.79990 0.10600
H 	H 	0.32580 0.62720 0.79520 0.02400
C 	C 	0.82070 0.72500 0.69310 0.10100
H 	H 	0.81330 0.74400 0.63780 0.01500
C 	C 	0.87150 0.70760 0.83720 0.11500
H 	H 	0.90510 0.71190 0.89980 0.02600
C 	C 	0.61530 0.55570 0.60360 0.10300
Cu	Cu	0.24235 0.91819 0.83587 0.89600
Br	Br	0.33108 0.89172 0.01287 -0.26100
Br	Br	0.27220 0.82200 0.07510 -0.12600
N 	N 	0.37140 0.96686 0.81110 -0.19000
N 	N 	0.08950 0.87170 0.81700 -0.18300
N 	N 	0.98950 0.90460 0.81410 -0.18800
N 	N 	0.94820 0.80520 0.79330 -0.10500
N 	N 	0.30550 0.83890 0.79550 -0.18800
N 	N 	0.27310 0.82800 0.70300 -0.10400
N 	N 	0.88370 0.74890 0.77530 -0.10300
N 	N 	0.11890 0.95530 0.68650 -0.14500
N 	N 	0.01680 0.97450 0.54650 -0.07600
C 	C 	0.46420 0.94790 0.79300 0.11300
H 	H 	0.48580 0.90590 0.78880 0.02300
C 	C 	0.06300 0.81210 0.80380 0.12300
H 	H 	0.11470 0.77970 0.80180 0.02000
C 	C 	0.90350 0.86370 0.79990 0.10500
H 	H 	0.82580 0.87280 0.79520 0.02400
C 	C 	0.32070 0.77500 0.69310 0.10200
H 	H 	0.31330 0.75600 0.63780 0.01600
C 	C 	0.37150 0.79240 0.83720 0.11700
H 	H 	0.40510 0.78810 0.89980 0.02700
C 	C 	0.11530 0.94430 0.60360 0.10500
Cu	Cu	0.74235 0.41819 0.83587 0.89500
Br	Br	0.83108 0.39172 0.01287 -0.26200
Br	Br	0.77220 0.32200 0.07510 -0.12700
N 	N 	0.87140 0.46686 0.81110 -0.19000
N 	N 	0.58950 0.37170 0.81700 -0.18500
N 	N 	0.48950 0.40460 0.81410 -0.18500
N 	N 	0.44820 0.30520 0.79330 -0.10100
N 	N 	0.80550 0.33890 0.79550 -0.18900
N 	N 	0.77310 0.32800 0.70300 -0.10500
N 	N 	0.38370 0.24890 0.77530 -0.10200
N 	N 	0.61890 0.45530 0.68650 -0.14600
N 	N 	0.51680 0.47450 0.54650 -0.08300
C 	C 	0.96420 0.44790 0.79300 0.10100
H 	H 	0.98580 0.40590 0.78880 0.02400
C 	C 	0.56300 0.31210 0.80380 0.11300
H 	H 	0.61470 0.27970 0.80180 0.02200
C 	C 	0.40350 0.36370 0.79990 0.10600
H 	H 	0.32580 0.37280 0.79520 0.02400
C 	C 	0.82070 0.27500 0.69310 0.10100
H 	H 	0.81330 0.25600 0.63780 0.01500
C 	C 	0.87150 0.29240 0.83720 0.11500
H 	H 	0.90510 0.28810 0.89980 0.02500
C 	C 	0.61530 0.44430 0.60360 0.10300
Cu	Cu	0.75765 0.91819 0.16413 0.90200
Br	Br	0.66892 0.89172 0.98713 -0.29900
Br	Br	0.72780 0.82200 0.92490 -0.14600
N 	N 	0.62860 0.96686 0.18890 -0.18700
N 	N 	0.91050 0.87170 0.18300 -0.18200
N 	N 	0.01050 0.90460 0.18590 -0.17900
N 	N 	0.05180 0.80520 0.20670 -0.09700
N 	N 	0.69450 0.83890 0.20450 -0.18500
N 	N 	0.72690 0.82800 0.29700 -0.10500
N 	N 	0.11630 0.74890 0.22470 -0.10100
N 	N 	0.88110 0.95530 0.31350 -0.14600
N 	N 	0.98320 0.97450 0.45350 -0.08700
C 	C 	0.53580 0.94790 0.20700 0.11500
H 	H 	0.51420 0.90590 0.21120 0.02300
C 	C 	0.93700 0.81210 0.19620 0.11200
H 	H 	0.88530 0.77970 0.19820 0.02400
C 	C 	0.09650 0.86370 0.20010 0.11100
H 	H 	0.17420 0.87280 0.20480 0.02400
C 	C 	0.67930 0.77500 0.30690 0.10100
H 	H 	0.68670 0.75600 0.36220 0.01500
C 	C 	0.62850 0.79240 0.16280 0.11500
H 	H 	0.59490 0.78810 0.10020 0.03900
C 	C 	0.88470 0.94430 0.39640 0.10300
Cu	Cu	0.25765 0.41819 0.16413 0.90200
Br	Br	0.16892 0.39172 0.98713 -0.29500
Br	Br	0.22780 0.32200 0.92490 -0.14300
N 	N 	0.12860 0.46686 0.18890 -0.18900
N 	N 	0.41050 0.37170 0.18300 -0.18200
N 	N 	0.51050 0.40460 0.18590 -0.18200
N 	N 	0.55180 0.30520 0.20670 -0.10000
N 	N 	0.19450 0.33890 0.20450 -0.18500
N 	N 	0.22690 0.32800 0.29700 -0.10400
N 	N 	0.61630 0.24890 0.22470 -0.10100
N 	N 	0.38110 0.45530 0.31350 -0.14600
N 	N 	0.48320 0.47450 0.45350 -0.08300
C 	C 	0.03580 0.44790 0.20700 0.11900
H 	H 	0.01420 0.40590 0.21120 0.02400
C 	C 	0.43700 0.31210 0.19620 0.11800
H 	H 	0.38530 0.27970 0.19820 0.02300
C 	C 	0.59650 0.36370 0.20010 0.11000
H 	H 	0.67420 0.37280 0.20480 0.02300
C 	C 	0.17930 0.27500 0.30690 0.10200
H 	H 	0.18670 0.25600 0.36220 0.01600
C 	C 	0.12850 0.29240 0.16280 0.11600
H 	H 	0.09490 0.28810 0.10020 0.04000
C 	C 	0.38470 0.44430 0.39640 0.10400
Cu	Cu	0.00936 0.00000 0.17987 0.90300
O 	O 	0.82960 0.00000 0.13610 -0.68200
H 	H 	0.81020 0.00000 0.07860 0.26800
N 	N 	0.47620 0.00000 0.21880 -0.10100
N 	N 	0.18840 0.00000 0.22240 -0.18400
N 	N 	0.24930 0.00000 0.31510 -0.10400
N 	N 	0.37240 0.00000 0.23970 -0.09800
N 	N 	0.97820 0.00000 0.31610 -0.15800
C 	C 	0.36100 0.00000 0.32310 0.09700
H 	H 	0.42350 0.00000 0.37780 0.01600
C 	C 	0.26170 0.00000 0.17660 0.10600
H 	H 	0.24250 -0.00000 0.11390 0.03300
C 	C 	0.04090 0.00000 0.40260 0.15700
Cu	Cu	0.50936 0.50000 0.17987 0.90200
O 	O 	0.32960 0.50000 0.13610 -0.67900
H 	H 	0.31020 0.50000 0.07860 0.26800
N 	N 	0.97620 0.50000 0.21880 -0.10600
N 	N 	0.68840 0.50000 0.22240 -0.18400
N 	N 	0.74930 0.50000 0.31510 -0.10400
N 	N 	0.87240 0.50000 0.23970 -0.09800
N 	N 	0.47820 0.50000 0.31610 -0.15100
C 	C 	0.86100 0.50000 0.32310 0.09700
H 	H 	0.92350 0.50000 0.37780 0.01400
C 	C 	0.76170 0.50000 0.17660 0.10500
H 	H 	0.74250 0.50000 0.11390 0.03400
C 	C 	0.54090 0.50000 0.40260 0.14500
Cu	Cu	0.99064 0.00000 0.82013 0.89400
O 	O 	0.17040 0.00000 0.86390 -0.67800
H 	H 	0.18980 0.00000 0.92140 0.25100
N 	N 	0.52380 0.00000 0.78120 -0.10100
N 	N 	0.81160 0.00000 0.77760 -0.18600
N 	N 	0.75070 0.00000 0.68490 -0.10400
N 	N 	0.62760 0.00000 0.76030 -0.09800
N 	N 	0.02180 0.00000 0.68390 -0.14400
C 	C 	0.63900 0.00000 0.67690 0.09700
H 	H 	0.57650 0.00000 0.62220 0.01600
C 	C 	0.73830 0.00000 0.82340 0.10600
H 	H 	0.75750 0.00000 0.88610 0.02600
C 	C 	0.95910 0.00000 0.59740 0.13000
Cu	Cu	0.49064 0.50000 0.82013 0.89800
O 	O 	0.67040 0.50000 0.86390 -0.68000
H 	H 	0.68980 0.50000 0.92140 0.25000
N 	N 	0.02380 0.50000 0.78120 -0.09000
N 	N 	0.31160 0.50000 0.77760 -0.18600
N 	N 	0.25070 0.50000 0.68490 -0.10300
N 	N 	0.12760 0.50000 0.76030 -0.09700
N 	N 	0.52180 0.50000 0.68390 -0.15100
C 	C 	0.13900 0.50000 0.67690 0.09900
H 	H 	0.07650 0.50000 0.62220 0.01800
C 	C 	0.23830 0.50000 0.82340 0.10800
H 	H 	0.25750 0.50000 0.88610 0.02700
C 	C 	0.45910 0.50000 0.59740 0.14600
Br	Br	-0.00000 0.00000 -0.00000 -0.38800
Br	Br	0.50000 0.50000 -0.00000 -0.39300
