data_crystal

_cell_length_a 9.61030
_cell_length_b 11.53100
_cell_length_c 12.20000
_cell_angle_alpha 90.00000
_cell_angle_beta  99.03000
_cell_angle_gamma 90.00000

_symmetry_space_group_name_	'P 1'
_symmetry_space_group_name_H-M	'P 1'

loop_
_symmetry_equiv_pos_as_xyz
  x,y,z

loop_
_atom_site_label
_atom_site_type_symbol
_atom_site_fract_x
_atom_site_fract_y
_atom_site_fract_z
_atom_site_charge
Er	Er	0.78491 0.98848 0.66702 1.73000
Er	Er	0.71509 0.48848 0.83298 1.74200
Er	Er	0.21509 0.01152 0.33298 1.73000
Er	Er	0.28491 0.51152 0.16702 1.74200
C 	C 	0.79980 0.25850 0.71630 0.28200
C 	C 	0.69570 0.21410 0.79220 0.25400
C 	C 	0.49600 0.93390 0.50120 0.27000
C 	C 	0.06300 0.00070 0.54700 0.26500
C 	C 	0.70020 0.75850 0.78370 0.28200
C 	C 	0.80430 0.71410 0.70780 0.25400
C 	C 	0.00400 0.43390 0.99880 0.26600
C 	C 	0.43700 0.50070 0.95300 0.27500
C 	C 	0.20020 0.74150 0.28370 0.28200
C 	C 	0.30430 0.78590 0.20780 0.25400
C 	C 	0.50400 0.06610 0.49880 0.27000
C 	C 	0.93700 0.99930 0.45300 0.26500
C 	C 	0.29980 0.24150 0.21630 0.28200
C 	C 	0.19570 0.28590 0.29220 0.25400
C 	C 	0.99600 0.56610 0.00120 0.26600
C 	C 	0.56300 0.49930 0.04700 0.27500
O 	O 	0.86380 0.18290 0.67020 -0.36400
O 	O 	0.81140 0.36560 0.70790 -0.36600
O 	O 	0.67720 0.10700 0.79480 -0.34200
O 	O 	0.63770 0.29080 0.84330 -0.34800
O 	O 	0.58820 0.88230 0.56800 -0.34900
O 	O 	0.39720 0.88770 0.43750 -0.33800
O 	O 	0.03340 0.99220 0.64420 -0.33200
O 	O 	0.18220 0.01080 0.52160 -0.35900
O 	O 	0.63620 0.68290 0.82980 -0.36800
O 	O 	0.68860 0.86560 0.79210 -0.36600
O 	O 	0.82280 0.60700 0.70520 -0.34600
O 	O 	0.86230 0.79080 0.65670 -0.34900
O 	O 	0.91180 0.38230 0.93200 -0.34700
O 	O 	0.10280 0.38770 0.06250 -0.34100
O 	O 	0.46660 0.49220 0.85580 -0.34400
O 	O 	0.31780 0.51080 0.97840 -0.36100
O 	O 	0.13620 0.81710 0.32980 -0.36400
O 	O 	0.18860 0.63440 0.29210 -0.36600
O 	O 	0.32280 0.89300 0.20520 -0.34200
O 	O 	0.36230 0.70920 0.15670 -0.34800
O 	O 	0.41180 0.11770 0.43200 -0.34900
O 	O 	0.60280 0.11230 0.56250 -0.33800
O 	O 	0.96660 0.00780 0.35580 -0.33200
O 	O 	0.81780 0.98920 0.47840 -0.35900
O 	O 	0.36380 0.31710 0.17020 -0.36800
O 	O 	0.31140 0.13440 0.20790 -0.36600
O 	O 	0.17720 0.39300 0.29480 -0.34600
O 	O 	0.13770 0.20920 0.34330 -0.34900
O 	O 	0.08820 0.61770 0.06800 -0.34700
O 	O 	0.89720 0.61230 0.93750 -0.34100
O 	O 	0.53340 0.50780 0.14420 -0.34400
O 	O 	0.68220 0.48920 0.02160 -0.36100
