data_crystal

_cell_length_a 16.04700
_cell_length_b 16.39950
_cell_length_c 16.39950
_cell_angle_alpha 76.15070
_cell_angle_beta  60.70850
_cell_angle_gamma 60.70840

_symmetry_space_group_name_	'P 1'
_symmetry_space_group_name_H-M	'P 1'

loop_
_symmetry_equiv_pos_as_xyz
  x,y,z

loop_
_atom_site_label
_atom_site_type_symbol
_atom_site_fract_x
_atom_site_fract_y
_atom_site_fract_z
_atom_site_charge
Tb	Tb	0.20389 0.37937 0.53309 1.61900
Tb	Tb	0.01181 0.11328 0.52442 1.71300
Tb	Tb	0.61635 0.12063 0.96691 1.60700
Tb	Tb	0.14951 0.38672 0.97558 1.71700
Tb	Tb	0.73698 0.46691 0.87937 1.62100
Tb	Tb	0.53623 0.47558 0.61328 1.74700
Tb	Tb	0.58326 0.03309 0.62063 1.61700
Tb	Tb	0.12509 0.02442 0.88672 1.68900
Tb	Tb	0.79611 0.62063 0.46691 1.61900
Tb	Tb	0.98819 0.88672 0.47558 1.71300
Tb	Tb	0.38365 0.87937 0.03309 1.60700
Tb	Tb	0.85049 0.61328 0.02442 1.71700
Tb	Tb	0.26302 0.53309 0.12063 1.62100
Tb	Tb	0.46377 0.52442 0.38672 1.74700
Tb	Tb	0.41674 0.96691 0.37937 1.61700
Tb	Tb	0.87491 0.97558 0.11328 1.68900
H 	H 	0.80520 0.25000 0.75220 -0.04600
H 	H 	0.08150 0.39890 0.78210 -0.05900
H 	H 	0.30740 0.25000 0.74780 -0.04600
H 	H 	0.76250 0.10110 0.71790 -0.05500
H 	H 	0.55740 0.24780 0.75000 -0.04600
H 	H 	0.86360 0.21790 0.89890 -0.05500
H 	H 	0.05520 0.25220 0.75000 -0.05100
H 	H 	0.48040 0.28210 0.60110 -0.05600
H 	H 	0.19480 0.75000 0.24780 -0.04600
H 	H 	0.91850 0.60110 0.21790 -0.05900
H 	H 	0.69260 0.75000 0.25220 -0.04600
H 	H 	0.23750 0.89890 0.28210 -0.05500
H 	H 	0.44260 0.75220 0.25000 -0.04600
H 	H 	0.13640 0.78210 0.10110 -0.05500
H 	H 	0.94480 0.74780 0.25000 -0.05100
H 	H 	0.51960 0.71790 0.39890 -0.05600
C 	C 	0.85260 0.27600 0.71680 0.14700
C 	C 	0.98440 0.29660 0.60640 -0.04700
C 	C 	0.92490 0.36770 0.67170 -0.08600
C 	C 	0.07860 0.27530 0.51510 0.36500
C 	C 	0.93700 0.44890 0.67890 0.40100
C 	C 	0.13770 0.41440 0.75900 0.15000
C 	C 	0.27040 0.44340 0.66380 -0.05100
C 	C 	0.24980 0.45250 0.75410 -0.07500
C 	C 	0.34710 0.45470 0.56950 0.35900
C 	C 	0.30580 0.47000 0.79360 0.41400
C 	C 	0.34540 0.22400 0.78320 0.14500
C 	C 	0.38740 0.20340 0.89360 -0.05100
C 	C 	0.46430 0.13230 0.82830 -0.08500
C 	C 	0.36900 0.22470 0.98490 0.34800
C 	C 	0.56480 0.05110 0.82110 0.38900
C 	C 	0.81110 0.08560 0.74100 0.15000
C 	C 	0.87760 0.05660 0.83620 -0.05300
C 	C 	0.95640 0.04750 0.74590 -0.05300
C 	C 	0.87130 0.04530 0.93050 0.36000
C 	C 	0.06940 0.03000 0.70640 0.38900
C 	C 	0.56940 0.28320 0.77600 0.14600
C 	C 	0.59080 0.39360 0.79660 -0.05800
C 	C 	0.59660 0.32830 0.86770 -0.08200
C 	C 	0.59370 0.48490 0.77530 0.37500
C 	C 	0.61590 0.32110 0.94890 0.38900
C 	C 	0.89670 0.24100 0.91440 0.15200
C 	C 	0.93420 0.33620 0.94340 -0.02000
C 	C 	0.00390 0.24590 0.95250 -0.11400
C 	C 	0.91660 0.43050 0.95470 0.34900
C 	C 	0.09940 0.20640 0.97000 0.42200
C 	C 	0.12860 0.21680 0.72400 0.14600
C 	C 	0.28100 0.10640 0.70340 -0.05000
C 	C 	0.29260 0.17170 0.63230 -0.08600
C 	C 	0.35390 0.01510 0.72470 0.35100
C 	C 	0.38590 0.17890 0.55110 0.39400
C 	C 	0.55210 0.25900 0.58560 0.15000
C 	C 	0.71380 0.16380 0.55660 -0.04900
C 	C 	0.70230 0.25410 0.54750 -0.07400
C 	C 	0.80180 0.06950 0.54530 0.35700
C 	C 	0.77580 0.29360 0.53000 0.41100
C 	C 	0.14740 0.72400 0.28320 0.14700
C 	C 	0.01560 0.70340 0.39360 -0.04700
C 	C 	0.07510 0.63230 0.32830 -0.08600
C 	C 	0.92140 0.72470 0.48490 0.36500
C 	C 	0.06300 0.55110 0.32110 0.40100
C 	C 	0.86230 0.58560 0.24100 0.15000
C 	C 	0.72960 0.55660 0.33620 -0.05100
C 	C 	0.75020 0.54750 0.24590 -0.07500
C 	C 	0.65290 0.54530 0.43050 0.35900
C 	C 	0.69420 0.53000 0.20640 0.41400
C 	C 	0.65460 0.77600 0.21680 0.14500
C 	C 	0.61260 0.79660 0.10640 -0.05100
C 	C 	0.53570 0.86770 0.17170 -0.08500
C 	C 	0.63100 0.77530 0.01510 0.34800
C 	C 	0.43520 0.94890 0.17890 0.38900
C 	C 	0.18890 0.91440 0.25900 0.15000
C 	C 	0.12240 0.94340 0.16380 -0.05300
C 	C 	0.04360 0.95250 0.25410 -0.05300
C 	C 	0.12870 0.95470 0.06950 0.36000
C 	C 	0.93060 0.97000 0.29360 0.38900
C 	C 	0.43060 0.71680 0.22400 0.14600
C 	C 	0.40920 0.60640 0.20340 -0.05800
C 	C 	0.40340 0.67170 0.13230 -0.08200
C 	C 	0.40630 0.51510 0.22470 0.37500
C 	C 	0.38410 0.67890 0.05110 0.38900
C 	C 	0.10330 0.75900 0.08560 0.15200
C 	C 	0.06580 0.66380 0.05660 -0.02000
C 	C 	0.99610 0.75410 0.04750 -0.11400
C 	C 	0.08340 0.56950 0.04530 0.34900
C 	C 	0.90060 0.79360 0.03000 0.42200
C 	C 	0.87140 0.78320 0.27600 0.14600
C 	C 	0.71900 0.89360 0.29660 -0.05000
C 	C 	0.70740 0.82830 0.36770 -0.08600
C 	C 	0.64610 0.98490 0.27530 0.35100
C 	C 	0.61410 0.82110 0.44890 0.39400
C 	C 	0.44790 0.74100 0.41440 0.15000
C 	C 	0.28620 0.83620 0.44340 -0.04900
C 	C 	0.29770 0.74590 0.45250 -0.07400
C 	C 	0.19820 0.93050 0.45470 0.35700
C 	C 	0.22420 0.70640 0.47000 0.41100
N 	N 	0.84150 0.35370 0.74210 -0.21500
N 	N 	0.93710 0.23910 0.63670 -0.21800
N 	N 	0.16600 0.43290 0.81350 -0.23800
N 	N 	0.19710 0.42010 0.66850 -0.24700
N 	N 	0.43730 0.14630 0.75790 -0.21600
N 	N 	0.31290 0.26090 0.86330 -0.22100
N 	N 	0.91240 0.06710 0.68650 -0.23600
N 	N 	0.78570 0.07990 0.83150 -0.24500
N 	N 	0.58360 0.25790 0.85370 -0.21600
N 	N 	0.57380 0.36330 0.73910 -0.22100
N 	N 	0.97950 0.18650 0.93290 -0.21700
N 	N 	0.86560 0.33150 0.92010 -0.25000
N 	N 	0.19520 0.24210 0.64630 -0.21600
N 	N 	0.17620 0.13670 0.76090 -0.22100
N 	N 	0.59890 0.31350 0.56710 -0.23800
N 	N 	0.61720 0.16850 0.57990 -0.24600
N 	N 	0.15850 0.64630 0.25790 -0.21500
N 	N 	0.06290 0.76090 0.36330 -0.21800
N 	N 	0.83400 0.56710 0.18650 -0.23800
N 	N 	0.80290 0.57990 0.33150 -0.24700
N 	N 	0.56270 0.85370 0.24210 -0.21600
N 	N 	0.68710 0.73910 0.13670 -0.22100
N 	N 	0.08760 0.93290 0.31350 -0.23600
N 	N 	0.21430 0.92010 0.16850 -0.24500
N 	N 	0.41640 0.74210 0.14630 -0.21600
N 	N 	0.42620 0.63670 0.26090 -0.22100
N 	N 	0.02050 0.81350 0.06710 -0.21700
N 	N 	0.13440 0.66850 0.07990 -0.25000
N 	N 	0.80480 0.75790 0.35370 -0.21600
N 	N 	0.82380 0.86330 0.23910 -0.22100
N 	N 	0.40110 0.68650 0.43290 -0.23800
N 	N 	0.38280 0.83150 0.42010 -0.24600
O 	O 	0.13250 0.32160 0.48240 -0.48100
O 	O 	0.10360 0.20630 0.47030 -0.46200
O 	O 	0.85870 0.50750 0.74190 -0.47000
O 	O 	0.02220 0.45550 0.62750 -0.49200
O 	O 	0.34810 0.43170 0.50150 -0.49100
O 	O 	0.41200 0.48660 0.55520 -0.56100
O 	O 	0.37610 0.49500 0.74460 -0.50200
O 	O 	0.27290 0.45620 0.88140 -0.45300
O 	O 	0.43650 0.17840 0.01760 -0.46600
O 	O 	0.28020 0.29370 0.02970 -0.44600
O 	O 	0.60810 0.99250 0.75810 -0.46300
O 	O 	0.60520 0.04450 0.87250 -0.48400
O 	O 	0.78130 0.06830 0.99850 -0.48500
O 	O 	0.95380 0.01340 0.94480 -0.54100
O 	O 	0.11570 0.00500 0.75540 -0.49800
O 	O 	0.11050 0.04380 0.61860 -0.44900
O 	O 	0.61490 0.51760 0.82160 -0.48400
O 	O 	0.57390 0.52970 0.70630 -0.46500
O 	O 	0.60060 0.25810 0.00750 -0.46400
O 	O 	0.64970 0.37250 0.95550 -0.48500
O 	O 	0.84960 0.49850 0.93170 -0.48400
O 	O 	0.96720 0.44480 0.98660 -0.54400
O 	O 	0.12070 0.25540 0.99500 -0.50900
O 	O 	0.15430 0.11860 0.95620 -0.45800
O 	O 	0.45410 0.98240 0.67840 -0.47000
O 	O 	0.30990 0.97030 0.79370 -0.44100
O 	O 	0.36620 0.24190 0.49250 -0.46800
O 	O 	0.47770 0.12750 0.54450 -0.48500
O 	O 	0.77980 0.00150 0.56830 -0.48400
O 	O 	0.89860 0.05520 0.51340 -0.54900
O 	O 	0.87110 0.24460 0.50500 -0.49500
O 	O 	0.72910 0.38140 0.54380 -0.45100
O 	O 	0.86750 0.67840 0.51760 -0.48100
O 	O 	0.89640 0.79370 0.52970 -0.46200
O 	O 	0.14130 0.49250 0.25810 -0.47000
O 	O 	0.97780 0.54450 0.37250 -0.49200
O 	O 	0.65190 0.56830 0.49850 -0.49100
O 	O 	0.58800 0.51340 0.44480 -0.56100
O 	O 	0.62390 0.50500 0.25540 -0.50200
O 	O 	0.72710 0.54380 0.11860 -0.45300
O 	O 	0.56350 0.82160 0.98240 -0.46600
O 	O 	0.71980 0.70630 0.97030 -0.44600
O 	O 	0.39190 0.00750 0.24190 -0.46300
O 	O 	0.39480 0.95550 0.12750 -0.48400
O 	O 	0.21870 0.93170 0.00150 -0.48500
O 	O 	0.04620 0.98660 0.05520 -0.54100
O 	O 	0.88430 0.99500 0.24460 -0.49800
O 	O 	0.88950 0.95620 0.38140 -0.44900
O 	O 	0.38510 0.48240 0.17840 -0.48400
O 	O 	0.42610 0.47030 0.29370 -0.46500
O 	O 	0.39940 0.74190 0.99250 -0.46400
O 	O 	0.35030 0.62750 0.04450 -0.48500
O 	O 	0.15040 0.50150 0.06830 -0.48400
O 	O 	0.03280 0.55520 0.01340 -0.54400
O 	O 	0.87930 0.74460 0.00500 -0.50900
O 	O 	0.84570 0.88140 0.04380 -0.45800
O 	O 	0.54590 0.01760 0.32160 -0.47000
O 	O 	0.69010 0.02970 0.20630 -0.44100
O 	O 	0.63380 0.75810 0.50750 -0.46800
O 	O 	0.52230 0.87250 0.45550 -0.48500
O 	O 	0.22020 0.99850 0.43170 -0.48400
O 	O 	0.10140 0.94480 0.48660 -0.54900
O 	O 	0.12890 0.75540 0.49500 -0.49500
O 	O 	0.27090 0.61860 0.45620 -0.45100
