data_crystal

_cell_length_a 16.22600
_cell_length_b 16.56410
_cell_length_c 16.56410
_cell_angle_alpha 76.11950
_cell_angle_beta  60.67300
_cell_angle_gamma 60.67300

_symmetry_space_group_name_	'P 1'
_symmetry_space_group_name_H-M	'P 1'

loop_
_symmetry_equiv_pos_as_xyz
  x,y,z

loop_
_atom_site_label
_atom_site_type_symbol
_atom_site_fract_x
_atom_site_fract_y
_atom_site_fract_z
_atom_site_charge
Sm	Sm	0.70511 0.53254 0.37980 1.77200
Sm	Sm	0.62595 0.88674 0.02394 1.90400
Sm	Sm	0.11745 0.96746 0.12021 1.74100
Sm	Sm	0.03663 0.61326 0.47606 1.90600
Sm	Sm	0.08492 0.62020 0.03253 1.75100
Sm	Sm	0.64989 0.97606 0.38674 1.90800
Sm	Sm	0.23765 0.87980 0.46746 1.76900
Sm	Sm	0.51269 0.52394 0.11326 1.91200
Sm	Sm	0.29489 0.46746 0.62020 1.77100
Sm	Sm	0.37405 0.11326 0.97606 1.90300
Sm	Sm	0.88255 0.03254 0.87979 1.74000
Sm	Sm	0.96337 0.38674 0.52394 1.90500
Sm	Sm	0.91509 0.37979 0.96747 1.75000
Sm	Sm	0.35011 0.02394 0.61326 1.90700
Sm	Sm	0.76234 0.12021 0.53254 1.76800
Sm	Sm	0.48731 0.47606 0.88674 1.91100
H 	H 	0.55860 0.74860 0.25320 -0.05200
H 	H 	0.58340 0.78230 0.40030 -0.06300
H 	H 	0.06040 0.75140 0.24680 -0.05200
H 	H 	0.26600 0.71770 0.09970 -0.06200
H 	H 	0.81180 0.74680 0.24860 -0.05100
H 	H 	0.98370 0.59970 0.28230 -0.05800
H 	H 	0.30720 0.75320 0.25140 -0.05100
H 	H 	0.36570 0.90030 0.21770 -0.06300
H 	H 	0.44140 0.25140 0.74680 -0.05200
H 	H 	0.41660 0.21770 0.59970 -0.06300
H 	H 	0.93960 0.24860 0.75320 -0.05200
H 	H 	0.73400 0.28230 0.90030 -0.06200
H 	H 	0.18820 0.25320 0.75140 -0.05100
H 	H 	0.01630 0.40030 0.71770 -0.05800
H 	H 	0.69280 0.24680 0.74860 -0.05100
H 	H 	0.63430 0.09970 0.78230 -0.06300
C 	C 	0.63120 0.72260 0.21720 0.14500
C 	C 	0.78260 0.70270 0.10630 -0.07000
C 	C 	0.79480 0.63250 0.17050 -0.08900
C 	C 	0.85550 0.72390 0.01590 0.39200
C 	C 	0.88680 0.55240 0.17900 0.39800
C 	C 	0.63970 0.75910 0.41470 0.14400
C 	C 	0.77210 0.66370 0.44290 -0.05800
C 	C 	0.75190 0.75350 0.45170 -0.08100
C 	C 	0.84890 0.57050 0.45310 0.36000
C 	C 	0.80540 0.79400 0.46940 0.41100
C 	C 	0.07100 0.77740 0.28280 0.14400
C 	C 	0.09160 0.79730 0.39370 -0.07500
C 	C 	0.09780 0.86750 0.32950 -0.08600
C 	C 	0.09530 0.77610 0.48410 0.40000
C 	C 	0.11820 0.94760 0.32100 0.38300
C 	C 	0.31350 0.74090 0.08530 0.14300
C 	C 	0.37870 0.83630 0.05710 -0.05900
C 	C 	0.45710 0.74650 0.04830 -0.08100
C 	C 	0.37250 0.92950 0.04690 0.36100
C 	C 	0.56880 0.70600 0.03060 0.41100
C 	C 	0.84840 0.78280 0.22260 0.14500
C 	C 	0.88890 0.89370 0.20270 -0.07400
C 	C 	0.96530 0.82950 0.13250 -0.07700
C 	C 	0.87140 0.98410 0.22390 0.39500
C 	C 	0.06580 0.82100 0.05240 0.37600
C 	C 	0.05440 0.58530 0.25910 0.13800
C 	C 	0.21500 0.55710 0.16370 -0.05700
C 	C 	0.20360 0.54830 0.25350 -0.08100
C 	C 	0.30200 0.54690 0.07050 0.36100
C 	C 	0.27480 0.53060 0.29400 0.41100
C 	C 	0.35380 0.71720 0.27740 0.14500
C 	C 	0.48530 0.60630 0.29730 -0.07300
C 	C 	0.42730 0.67050 0.36750 -0.08900
C 	C 	0.57940 0.51590 0.27610 0.40000
C 	C 	0.43920 0.67900 0.44760 0.39900
C 	C 	0.39880 0.91470 0.24090 0.14300
C 	C 	0.43580 0.94290 0.33630 -0.05800
C 	C 	0.50540 0.95170 0.24650 -0.08200
C 	C 	0.41940 0.95310 0.42950 0.36000
C 	C 	0.59940 0.96940 0.20600 0.41100
C 	C 	0.36880 0.27740 0.78280 0.14500
C 	C 	0.21740 0.29730 0.89370 -0.07000
C 	C 	0.20520 0.36750 0.82950 -0.08900
C 	C 	0.14450 0.27610 0.98410 0.39200
C 	C 	0.11320 0.44760 0.82100 0.39800
C 	C 	0.36030 0.24090 0.58530 0.14400
C 	C 	0.22790 0.33630 0.55710 -0.05800
C 	C 	0.24810 0.24650 0.54830 -0.08100
C 	C 	0.15110 0.42950 0.54690 0.36000
C 	C 	0.19460 0.20600 0.53060 0.41100
C 	C 	0.92900 0.22260 0.71720 0.14400
C 	C 	0.90840 0.20270 0.60630 -0.07500
C 	C 	0.90220 0.13250 0.67050 -0.08600
C 	C 	0.90470 0.22390 0.51590 0.40000
C 	C 	0.88180 0.05240 0.67900 0.38300
C 	C 	0.68650 0.25910 0.91470 0.14300
C 	C 	0.62130 0.16370 0.94290 -0.05900
C 	C 	0.54290 0.25350 0.95170 -0.08100
C 	C 	0.62750 0.07050 0.95310 0.36100
C 	C 	0.43120 0.29400 0.96940 0.41100
C 	C 	0.15160 0.21720 0.77740 0.14500
C 	C 	0.11110 0.10630 0.79730 -0.07400
C 	C 	0.03470 0.17050 0.86750 -0.07700
C 	C 	0.12860 0.01590 0.77610 0.39500
C 	C 	0.93420 0.17900 0.94760 0.37600
C 	C 	0.94560 0.41470 0.74090 0.13800
C 	C 	0.78500 0.44290 0.83630 -0.05700
C 	C 	0.79640 0.45170 0.74650 -0.08100
C 	C 	0.69800 0.45310 0.92950 0.36100
C 	C 	0.72520 0.46940 0.70600 0.41100
C 	C 	0.64620 0.28280 0.72260 0.14500
C 	C 	0.51470 0.39370 0.70270 -0.07300
C 	C 	0.57270 0.32950 0.63250 -0.08900
C 	C 	0.42060 0.48410 0.72390 0.40000
C 	C 	0.56080 0.32100 0.55240 0.39900
C 	C 	0.60120 0.08530 0.75910 0.14300
C 	C 	0.56420 0.05710 0.66370 -0.05800
C 	C 	0.49460 0.04830 0.75350 -0.08200
C 	C 	0.58060 0.04690 0.57050 0.36000
C 	C 	0.40060 0.03060 0.79400 0.41100
N 	N 	0.69710 0.64530 0.24170 -0.22800
N 	N 	0.67720 0.76030 0.13650 -0.23100
N 	N 	0.66810 0.81330 0.43290 -0.25100
N 	N 	0.69950 0.66810 0.41890 -0.26000
N 	N 	0.08410 0.85470 0.25830 -0.22900
N 	N 	0.07400 0.73970 0.36350 -0.23100
N 	N 	0.41430 0.68670 0.06710 -0.25200
N 	N 	0.28650 0.83190 0.08110 -0.25800
N 	N 	0.93880 0.75830 0.14530 -0.22800
N 	N 	0.81370 0.86350 0.26030 -0.23000
N 	N 	0.10100 0.56710 0.31330 -0.25000
N 	N 	0.11840 0.58110 0.16810 -0.25800
N 	N 	0.34240 0.74170 0.35470 -0.22800
N 	N 	0.43750 0.63650 0.23970 -0.23100
N 	N 	0.48140 0.93290 0.18670 -0.25200
N 	N 	0.36760 0.91890 0.33190 -0.26000
N 	N 	0.30290 0.35470 0.75830 -0.22800
N 	N 	0.32280 0.23970 0.86350 -0.23100
N 	N 	0.33190 0.18670 0.56710 -0.25100
N 	N 	0.30050 0.33190 0.58110 -0.26000
N 	N 	0.91590 0.14530 0.74170 -0.22900
N 	N 	0.92600 0.26030 0.63650 -0.23100
N 	N 	0.58570 0.31330 0.93290 -0.25200
N 	N 	0.71350 0.16810 0.91890 -0.25800
N 	N 	0.06120 0.24170 0.85470 -0.22800
N 	N 	0.18630 0.13650 0.73970 -0.23000
N 	N 	0.89900 0.43290 0.68670 -0.25000
N 	N 	0.88160 0.41890 0.83190 -0.25800
N 	N 	0.65760 0.25830 0.64530 -0.22800
N 	N 	0.56250 0.36350 0.76030 -0.23100
N 	N 	0.51860 0.06710 0.81330 -0.25200
N 	N 	0.63240 0.08110 0.66810 -0.26000
O 	O 	0.86740 0.49280 0.24120 -0.49300
O 	O 	0.97700 0.54570 0.12890 -0.51000
O 	O 	0.95310 0.67840 0.98340 -0.51400
O 	O 	0.81190 0.79239 0.97201 -0.49100
O 	O 	0.84746 0.50223 0.43245 -0.52500
O 	O 	0.91268 0.55585 0.48499 -0.59500
O 	O 	0.87610 0.74390 0.49450 -0.52100
O 	O 	0.77290 0.88080 0.45760 -0.47300
O 	O 	0.10140 0.00720 0.25880 -0.47600
O 	O 	0.15160 0.95430 0.37110 -0.51200
O 	O 	0.11490 0.82160 0.51660 -0.52100
O 	O 	0.07630 0.70761 0.52799 -0.50100
O 	O 	0.28214 0.99777 0.06755 -0.52900
O 	O 	0.45352 0.94415 0.01501 -0.59800
O 	O 	0.61450 0.75610 0.00550 -0.52300
O 	O 	0.61130 0.61920 0.04240 -0.47400
O 	O 	0.10860 0.75880 0.99280 -0.47600
O 	O 	0.10590 0.87110 0.04570 -0.51000
O 	O 	0.93650 0.01660 0.17840 -0.51000
O 	O 	0.78391 0.02799 0.29239 -0.49700
O 	O 	0.27991 0.56755 0.00223 -0.52500
O 	O 	0.39767 0.51501 0.05585 -0.59600
O 	O 	0.37060 0.50550 0.24390 -0.52300
O 	O 	0.23050 0.54240 0.38080 -0.47400
O 	O 	0.36020 0.74120 0.50720 -0.49400
O 	O 	0.52270 0.62890 0.45430 -0.51500
O 	O 	0.63150 0.48340 0.32160 -0.52100
O 	O 	0.60429 0.47201 0.20761 -0.50000
O 	O 	0.34969 0.93245 0.49777 -0.52500
O 	O 	0.46853 0.98499 0.44415 -0.59600
O 	O 	0.62000 0.99450 0.25610 -0.52400
O 	O 	0.65370 0.95760 0.11920 -0.47400
O 	O 	0.13260 0.50720 0.75880 -0.49300
O 	O 	0.02300 0.45430 0.87110 -0.51000
O 	O 	0.04690 0.32160 0.01660 -0.51400
O 	O 	0.18810 0.20761 0.02799 -0.49100
O 	O 	0.15254 0.49777 0.56755 -0.52500
O 	O 	0.08732 0.44415 0.51501 -0.59500
O 	O 	0.12390 0.25610 0.50550 -0.52100
O 	O 	0.22710 0.11920 0.54240 -0.47300
O 	O 	0.89860 0.99280 0.74120 -0.47600
O 	O 	0.84840 0.04570 0.62890 -0.51200
O 	O 	0.88510 0.17840 0.48340 -0.52100
O 	O 	0.92370 0.29239 0.47201 -0.50100
O 	O 	0.71786 0.00223 0.93245 -0.52900
O 	O 	0.54648 0.05585 0.98499 -0.59800
O 	O 	0.38550 0.24390 0.99450 -0.52300
O 	O 	0.38870 0.38080 0.95760 -0.47400
O 	O 	0.89140 0.24120 0.00720 -0.47600
O 	O 	0.89410 0.12890 0.95430 -0.51000
O 	O 	0.06350 0.98340 0.82160 -0.51000
O 	O 	0.21609 0.97201 0.70761 -0.49700
O 	O 	0.72009 0.43245 0.99777 -0.52500
O 	O 	0.60233 0.48499 0.94415 -0.59600
O 	O 	0.62940 0.49450 0.75610 -0.52300
O 	O 	0.76950 0.45760 0.61920 -0.47400
O 	O 	0.63980 0.25880 0.49280 -0.49400
O 	O 	0.47730 0.37110 0.54570 -0.51500
O 	O 	0.36850 0.51660 0.67840 -0.52100
O 	O 	0.39571 0.52799 0.79239 -0.50000
O 	O 	0.65031 0.06755 0.50223 -0.52500
O 	O 	0.53147 0.01501 0.55585 -0.59600
O 	O 	0.38000 0.00550 0.74390 -0.52400
O 	O 	0.34630 0.04240 0.88080 -0.47400
