data_crystal

_cell_length_a 16.15700
_cell_length_b 16.47080
_cell_length_c 16.47080
_cell_angle_alpha 76.08010
_cell_angle_beta  60.62830
_cell_angle_gamma 60.62830

_symmetry_space_group_name_	'P 1'
_symmetry_space_group_name_H-M	'P 1'

loop_
_symmetry_equiv_pos_as_xyz
  x,y,z

loop_
_atom_site_label
_atom_site_type_symbol
_atom_site_fract_x
_atom_site_fract_y
_atom_site_fract_z
_atom_site_charge
Gd	Gd	0.20516 0.53227 0.37914 1.38000
Gd	Gd	0.01219 0.52371 0.11351 1.45000
Gd	Gd	0.61657 0.96773 0.12086 1.37000
Gd	Gd	0.14941 0.97629 0.38649 1.45200
Gd	Gd	0.58430 0.62086 0.03227 1.37800
Gd	Gd	0.12570 0.88649 0.02371 1.43200
Gd	Gd	0.73743 0.87914 0.46773 1.38200
Gd	Gd	0.53590 0.61351 0.47629 1.47600
Gd	Gd	0.79484 0.46773 0.62086 1.38100
Gd	Gd	0.98781 0.47629 0.88649 1.45100
Gd	Gd	0.38343 0.03227 0.87914 1.37100
Gd	Gd	0.85059 0.02371 0.61351 1.45300
Gd	Gd	0.41570 0.37914 0.96773 1.37900
Gd	Gd	0.87430 0.11351 0.97629 1.43300
Gd	Gd	0.26257 0.12086 0.53227 1.38200
Gd	Gd	0.46410 0.38649 0.52371 1.47600
H 	H 	0.80640 0.75210 0.25070 -0.03000
H 	H 	0.08210 0.78270 0.39970 -0.04100
H 	H 	0.30920 0.74790 0.24930 -0.03000
H 	H 	0.76450 0.71730 0.10030 -0.03800
H 	H 	0.05710 0.74930 0.25210 -0.03400
H 	H 	0.48180 0.60030 0.28270 -0.03900
H 	H 	0.55850 0.75070 0.24790 -0.03000
H 	H 	0.86480 0.89970 0.21730 -0.03800
H 	H 	0.19360 0.24790 0.74930 -0.03000
H 	H 	0.91790 0.21730 0.60030 -0.04100
H 	H 	0.69080 0.25210 0.75070 -0.03000
H 	H 	0.23550 0.28270 0.89970 -0.03800
H 	H 	0.94290 0.25070 0.74790 -0.03400
H 	H 	0.51820 0.39970 0.71730 -0.03900
H 	H 	0.44150 0.24930 0.75210 -0.03000
H 	H 	0.13520 0.10030 0.78270 -0.03800
C 	C 	0.85330 0.71630 0.27670 0.13100
C 	C 	0.98570 0.60550 0.29730 -0.04300
C 	C 	0.92670 0.67050 0.36850 -0.07300
C 	C 	0.07930 0.51470 0.27630 0.35700
C 	C 	0.93830 0.67860 0.44900 0.38600
C 	C 	0.13870 0.75950 0.41410 0.13500
C 	C 	0.27200 0.66260 0.44260 -0.04300
C 	C 	0.25100 0.75400 0.45140 -0.05700
C 	C 	0.34870 0.56960 0.45340 0.33000
C 	C 	0.30510 0.79450 0.46930 0.37200
C 	C 	0.34630 0.78370 0.22330 0.13000
C 	C 	0.38850 0.89450 0.20270 -0.04600
C 	C 	0.46570 0.82950 0.13150 -0.07300
C 	C 	0.37030 0.98530 0.22370 0.34100
C 	C 	0.56590 0.82140 0.05100 0.37400
C 	C 	0.81230 0.74050 0.08590 0.13500
C 	C 	0.87720 0.83740 0.05740 -0.04400
C 	C 	0.95640 0.74600 0.04860 -0.03900
C 	C 	0.87170 0.93040 0.04660 0.33100
C 	C 	0.06890 0.70550 0.03070 0.35200
C 	C 	0.13000 0.72330 0.21630 0.13000
C 	C 	0.28300 0.70270 0.10550 -0.04600
C 	C 	0.29520 0.63150 0.17050 -0.07300
C 	C 	0.35560 0.72370 0.01470 0.34400
C 	C 	0.38730 0.55100 0.17860 0.37900
C 	C 	0.55280 0.58590 0.25950 0.13500
C 	C 	0.71460 0.55740 0.16260 -0.04100
C 	C 	0.70240 0.54860 0.25400 -0.05600
C 	C 	0.80210 0.54660 0.06960 0.32900
C 	C 	0.77440 0.53070 0.29450 0.37100
C 	C 	0.56960 0.77670 0.28370 0.13000
C 	C 	0.59120 0.79730 0.39450 -0.05200
C 	C 	0.59720 0.86850 0.32950 -0.07000
C 	C 	0.59400 0.77630 0.48530 0.36500
C 	C 	0.61690 0.94900 0.32140 0.37500
C 	C 	0.89820 0.91410 0.24050 0.13700
C 	C 	0.93460 0.94260 0.33740 -0.01800
C 	C 	0.00500 0.95140 0.24600 -0.08900
C 	C 	0.91830 0.95340 0.43040 0.32200
C 	C 	0.09960 0.96930 0.20550 0.37900
C 	C 	0.14670 0.28370 0.72330 0.13100
C 	C 	0.01430 0.39450 0.70270 -0.04300
C 	C 	0.07330 0.32950 0.63150 -0.07300
C 	C 	0.92070 0.48530 0.72370 0.35700
C 	C 	0.06170 0.32140 0.55100 0.38600
C 	C 	0.86130 0.24050 0.58590 0.13500
C 	C 	0.72800 0.33740 0.55740 -0.04300
C 	C 	0.74900 0.24600 0.54860 -0.05700
C 	C 	0.65130 0.43040 0.54660 0.33000
C 	C 	0.69490 0.20550 0.53070 0.37200
C 	C 	0.65370 0.21630 0.77670 0.13000
C 	C 	0.61150 0.10550 0.79730 -0.04600
C 	C 	0.53430 0.17050 0.86850 -0.07300
C 	C 	0.62970 0.01470 0.77630 0.34100
C 	C 	0.43410 0.17860 0.94900 0.37400
C 	C 	0.18770 0.25950 0.91410 0.13500
C 	C 	0.12280 0.16260 0.94260 -0.04400
C 	C 	0.04360 0.25400 0.95140 -0.03900
C 	C 	0.12830 0.06960 0.95340 0.33100
C 	C 	0.93110 0.29450 0.96930 0.35200
C 	C 	0.87000 0.27670 0.78370 0.13000
C 	C 	0.71700 0.29730 0.89450 -0.04600
C 	C 	0.70480 0.36850 0.82950 -0.07300
C 	C 	0.64440 0.27630 0.98530 0.34400
C 	C 	0.61270 0.44900 0.82140 0.37900
C 	C 	0.44720 0.41410 0.74050 0.13500
C 	C 	0.28540 0.44260 0.83740 -0.04100
C 	C 	0.29760 0.45140 0.74600 -0.05600
C 	C 	0.19790 0.45340 0.93040 0.32900
C 	C 	0.22560 0.46930 0.70550 0.37100
C 	C 	0.43040 0.22330 0.71630 0.13000
C 	C 	0.40880 0.20270 0.60550 -0.05200
C 	C 	0.40280 0.13150 0.67050 -0.07000
C 	C 	0.40600 0.22370 0.51470 0.36500
C 	C 	0.38310 0.05100 0.67860 0.37500
C 	C 	0.10180 0.08590 0.75950 0.13700
C 	C 	0.06540 0.05740 0.66260 -0.01800
C 	C 	0.99500 0.04860 0.75400 -0.08900
C 	C 	0.08170 0.04660 0.56960 0.32200
C 	C 	0.90040 0.03070 0.79450 0.37900
N 	N 	0.84160 0.74160 0.35500 -0.19300
N 	N 	0.93730 0.63590 0.23910 -0.19400
N 	N 	0.16680 0.81400 0.43220 -0.21200
N 	N 	0.19920 0.66830 0.41830 -0.21700
N 	N 	0.43820 0.75840 0.14500 -0.19400
N 	N 	0.31230 0.86410 0.26090 -0.19700
N 	N 	0.91300 0.68600 0.06780 -0.21000
N 	N 	0.78580 0.83170 0.08170 -0.21500
N 	N 	0.19660 0.64500 0.24160 -0.19400
N 	N 	0.17640 0.76090 0.13590 -0.19700
N 	N 	0.59900 0.56780 0.31400 -0.21200
N 	N 	0.61750 0.58170 0.16830 -0.21700
N 	N 	0.58320 0.85500 0.25840 -0.19400
N 	N 	0.57320 0.73910 0.36410 -0.19700
N 	N 	0.98080 0.93220 0.18600 -0.19500
N 	N 	0.86750 0.91830 0.33170 -0.22000
N 	N 	0.15840 0.25840 0.64500 -0.19300
N 	N 	0.06270 0.36410 0.76090 -0.19400
N 	N 	0.83320 0.18600 0.56780 -0.21200
N 	N 	0.80080 0.33170 0.58170 -0.21700
N 	N 	0.56180 0.24160 0.85500 -0.19400
N 	N 	0.68770 0.13590 0.73910 -0.19700
N 	N 	0.08700 0.31400 0.93220 -0.21000
N 	N 	0.21420 0.16830 0.91830 -0.21500
N 	N 	0.80340 0.35500 0.75840 -0.19400
N 	N 	0.82360 0.23910 0.86410 -0.19700
N 	N 	0.40100 0.43220 0.68600 -0.21200
N 	N 	0.38250 0.41830 0.83170 -0.21700
N 	N 	0.41680 0.14500 0.74160 -0.19400
N 	N 	0.42680 0.26090 0.63590 -0.19700
N 	N 	0.01920 0.06780 0.81400 -0.19500
N 	N 	0.13250 0.08170 0.66830 -0.22000
O 	O 	0.13220 0.48210 0.32150 -0.43100
O 	O 	0.10480 0.46970 0.20770 -0.40700
O 	O 	0.02260 0.62790 0.45450 -0.44300
O 	O 	0.85930 0.74060 0.50820 -0.41900
O 	O 	0.34820 0.50120 0.43120 -0.43100
O 	O 	0.41280 0.55540 0.48560 -0.48800
O 	O 	0.37570 0.74400 0.49500 -0.43800
O 	O 	0.27230 0.88210 0.45730 -0.39900
O 	O 	0.43580 0.01790 0.17850 -0.41800
O 	O 	0.28220 0.03030 0.29230 -0.39300
O 	O 	0.60500 0.87210 0.04550 -0.43700
O 	O 	0.60810 0.75940 0.99180 -0.41300
O 	O 	0.78060 0.99880 0.06880 -0.42600
O 	O 	0.95380 0.94460 0.01440 -0.47300
O 	O 	0.11470 0.75600 0.00500 -0.43600
O 	O 	0.11170 0.61790 0.04270 -0.39600
O 	O 	0.45370 0.67850 0.98210 -0.42100
O 	O 	0.31250 0.79230 0.96970 -0.39000
O 	O 	0.47710 0.54550 0.12790 -0.43800
O 	O 	0.36750 0.49180 0.24060 -0.41800
O 	O 	0.77940 0.56880 0.00120 -0.42600
O 	O 	0.89840 0.51440 0.05540 -0.47900
O 	O 	0.87070 0.50500 0.24400 -0.43300
O 	O 	0.72960 0.54270 0.38210 -0.39700
O 	O 	0.61430 0.82150 0.51790 -0.43300
O 	O 	0.57450 0.70770 0.53030 -0.40900
O 	O 	0.65050 0.95450 0.37210 -0.43700
O 	O 	0.59990 0.00820 0.25940 -0.41400
O 	O 	0.84940 0.93120 0.49880 -0.42600
O 	O 	0.96820 0.98560 0.44460 -0.47500
O 	O 	0.11970 0.99500 0.25600 -0.44400
O 	O 	0.15440 0.95730 0.11790 -0.40400
O 	O 	0.86780 0.51790 0.67850 -0.43100
O 	O 	0.89520 0.53030 0.79230 -0.40700
O 	O 	0.97740 0.37210 0.54550 -0.44300
O 	O 	0.14070 0.25940 0.49180 -0.41900
O 	O 	0.65180 0.49880 0.56880 -0.43100
O 	O 	0.58720 0.44460 0.51440 -0.48800
O 	O 	0.62430 0.25600 0.50500 -0.43800
O 	O 	0.72770 0.11790 0.54270 -0.39900
O 	O 	0.56420 0.98210 0.82150 -0.41800
O 	O 	0.71780 0.96970 0.70770 -0.39300
O 	O 	0.39500 0.12790 0.95450 -0.43700
O 	O 	0.39190 0.24060 0.00820 -0.41300
O 	O 	0.21940 0.00120 0.93120 -0.42600
O 	O 	0.04620 0.05540 0.98560 -0.47300
O 	O 	0.88530 0.24400 0.99500 -0.43600
O 	O 	0.88830 0.38210 0.95730 -0.39600
O 	O 	0.54630 0.32150 0.01790 -0.42100
O 	O 	0.68750 0.20770 0.03030 -0.39000
O 	O 	0.52290 0.45450 0.87210 -0.43800
O 	O 	0.63250 0.50820 0.75940 -0.41800
O 	O 	0.22060 0.43120 0.99880 -0.42600
O 	O 	0.10160 0.48560 0.94460 -0.47900
O 	O 	0.12930 0.49500 0.75600 -0.43300
O 	O 	0.27040 0.45730 0.61790 -0.39700
O 	O 	0.38570 0.17850 0.48210 -0.43300
O 	O 	0.42550 0.29230 0.46970 -0.40900
O 	O 	0.34950 0.04550 0.62790 -0.43700
O 	O 	0.40010 0.99180 0.74060 -0.41400
O 	O 	0.15060 0.06880 0.50120 -0.42600
O 	O 	0.03180 0.01440 0.55540 -0.47500
O 	O 	0.88030 0.00500 0.74400 -0.44400
O 	O 	0.84560 0.04270 0.88210 -0.40400
