data_crystal

_cell_length_a 16.19000
_cell_length_b 16.48760
_cell_length_c 16.48760
_cell_angle_alpha 76.05110
_cell_angle_beta  60.59530
_cell_angle_gamma 60.59530

_symmetry_space_group_name_	'P 1'
_symmetry_space_group_name_H-M	'P 1'

loop_
_symmetry_equiv_pos_as_xyz
  x,y,z

loop_
_atom_site_label
_atom_site_type_symbol
_atom_site_fract_x
_atom_site_fract_y
_atom_site_fract_z
_atom_site_charge
Eu	Eu	0.61660 0.12156 0.96842 1.68100
Eu	Eu	0.14929 0.38627 0.97671 1.79800
Eu	Eu	0.20658 0.37844 0.53157 1.69300
Eu	Eu	0.01227 0.11373 0.52329 1.79300
Eu	Eu	0.58502 0.03157 0.62157 1.69000
Eu	Eu	0.12600 0.02329 0.88627 1.76800
Eu	Eu	0.73815 0.46843 0.87844 1.69400
Eu	Eu	0.53556 0.47671 0.61373 1.82800
Eu	Eu	0.38340 0.87844 0.03158 1.68000
Eu	Eu	0.85071 0.61373 0.02329 1.79700
Eu	Eu	0.79342 0.62156 0.46843 1.69200
Eu	Eu	0.98773 0.88627 0.47671 1.79200
Eu	Eu	0.41498 0.96843 0.37843 1.69000
Eu	Eu	0.87400 0.97671 0.11373 1.76800
Eu	Eu	0.26185 0.53157 0.12156 1.69400
Eu	Eu	0.46444 0.52329 0.38627 1.82800
H 	H 	0.30950 0.24920 0.74840 -0.04800
H 	H 	0.76530 0.09930 0.71830 -0.05900
H 	H 	0.80710 0.25080 0.75160 -0.04800
H 	H 	0.08290 0.40070 0.78170 -0.06300
H 	H 	0.05790 0.25160 0.74920 -0.05300
H 	H 	0.48360 0.28170 0.59930 -0.06000
H 	H 	0.55870 0.24840 0.75080 -0.04800
H 	H 	0.86460 0.21830 0.90070 -0.05900
H 	H 	0.69050 0.75080 0.25160 -0.04800
H 	H 	0.23470 0.90070 0.28170 -0.05900
H 	H 	0.19290 0.74920 0.24840 -0.04800
H 	H 	0.91710 0.59930 0.21830 -0.06300
H 	H 	0.94210 0.74840 0.25080 -0.05300
H 	H 	0.51640 0.71830 0.40070 -0.06000
H 	H 	0.44130 0.75160 0.24920 -0.04800
H 	H 	0.13540 0.78170 0.09930 -0.05900
C 	C 	0.34640 0.22310 0.78430 0.14300
C 	C 	0.38850 0.20280 0.89480 -0.05800
C 	C 	0.46610 0.13070 0.83070 -0.09700
C 	C 	0.37030 0.22420 0.98520 0.36000
C 	C 	0.56580 0.05170 0.82250 0.39100
C 	C 	0.81290 0.08570 0.74130 0.15000
C 	C 	0.95600 0.04950 0.74630 -0.05400
C 	C 	0.87810 0.05770 0.83650 -0.05500
C 	C 	0.06830 0.03090 0.70630 0.37800
C 	C 	0.87200 0.04710 0.93050 0.35400
C 	C 	0.85380 0.27690 0.71570 0.14500
C 	C 	0.98610 0.29720 0.60520 -0.05400
C 	C 	0.92750 0.36930 0.66930 -0.09700
C 	C 	0.07970 0.27580 0.51480 0.37800
C 	C 	0.94000 0.44830 0.67750 0.40400
C 	C 	0.13990 0.41430 0.75870 0.15000
C 	C 	0.25180 0.45050 0.75370 -0.07600
C 	C 	0.27230 0.44230 0.66350 -0.05300
C 	C 	0.30550 0.46910 0.79370 0.40300
C 	C 	0.34960 0.45290 0.56950 0.35300
C 	C 	0.13070 0.21570 0.72310 0.14300
C 	C 	0.28330 0.10520 0.70280 -0.05800
C 	C 	0.29680 0.16930 0.63070 -0.09700
C 	C 	0.35550 0.01480 0.72420 0.36300
C 	C 	0.38830 0.17750 0.55170 0.39600
C 	C 	0.55420 0.25870 0.58570 0.15000
C 	C 	0.70230 0.25370 0.54950 -0.07500
C 	C 	0.71460 0.16350 0.55770 -0.05100
C 	C 	0.77460 0.29370 0.53090 0.40100
C 	C 	0.80250 0.06950 0.54710 0.35100
C 	C 	0.56950 0.28430 0.77690 0.14400
C 	C 	0.59130 0.39480 0.79720 -0.06600
C 	C 	0.59680 0.33070 0.86930 -0.09300
C 	C 	0.59450 0.48520 0.77580 0.38800
C 	C 	0.61750 0.32250 0.94830 0.39100
C 	C 	0.89860 0.24130 0.91430 0.15200
C 	C 	0.00550 0.24630 0.95050 -0.11700
C 	C 	0.93580 0.33650 0.94230 -0.02200
C 	C 	0.09920 0.20630 0.96910 0.41200
C 	C 	0.91910 0.43050 0.95290 0.34400
C 	C 	0.65360 0.77690 0.21570 0.14300
C 	C 	0.61150 0.79720 0.10520 -0.05800
C 	C 	0.53390 0.86930 0.16930 -0.09700
C 	C 	0.62970 0.77580 0.01480 0.36000
C 	C 	0.43420 0.94830 0.17750 0.39100
C 	C 	0.18710 0.91430 0.25870 0.15000
C 	C 	0.04400 0.95050 0.25370 -0.05400
C 	C 	0.12190 0.94230 0.16350 -0.05500
C 	C 	0.93170 0.96910 0.29370 0.37800
C 	C 	0.12800 0.95290 0.06950 0.35400
C 	C 	0.14620 0.72310 0.28430 0.14500
C 	C 	0.01390 0.70280 0.39480 -0.05400
C 	C 	0.07250 0.63070 0.33070 -0.09700
C 	C 	0.92030 0.72420 0.48520 0.37800
C 	C 	0.06000 0.55170 0.32250 0.40400
C 	C 	0.86010 0.58570 0.24130 0.15000
C 	C 	0.74820 0.54950 0.24630 -0.07600
C 	C 	0.72770 0.55770 0.33650 -0.05300
C 	C 	0.69450 0.53090 0.20630 0.40300
C 	C 	0.65040 0.54710 0.43050 0.35300
C 	C 	0.86930 0.78430 0.27690 0.14300
C 	C 	0.71670 0.89480 0.29720 -0.05800
C 	C 	0.70320 0.83070 0.36930 -0.09700
C 	C 	0.64450 0.98520 0.27580 0.36300
C 	C 	0.61170 0.82250 0.44830 0.39600
C 	C 	0.44580 0.74130 0.41430 0.15000
C 	C 	0.29770 0.74630 0.45050 -0.07500
C 	C 	0.28540 0.83650 0.44230 -0.05100
C 	C 	0.22540 0.70630 0.46910 0.40100
C 	C 	0.19750 0.93050 0.45290 0.35100
C 	C 	0.43050 0.71570 0.22310 0.14400
C 	C 	0.40870 0.60520 0.20280 -0.06600
C 	C 	0.40320 0.66930 0.13070 -0.09300
C 	C 	0.40550 0.51480 0.22420 0.38800
C 	C 	0.38250 0.67750 0.05170 0.39100
C 	C 	0.10140 0.75870 0.08570 0.15200
C 	C 	0.99450 0.75370 0.04950 -0.11700
C 	C 	0.06420 0.66350 0.05770 -0.02200
C 	C 	0.90080 0.79370 0.03090 0.41200
C 	C 	0.08090 0.56950 0.04710 0.34400
N 	N 	0.43750 0.14500 0.75960 -0.22000
N 	N 	0.31320 0.26010 0.86450 -0.22600
N 	N 	0.78550 0.08250 0.83210 -0.25100
N 	N 	0.91320 0.06790 0.68650 -0.24300
N 	N 	0.84210 0.35500 0.74040 -0.21900
N 	N 	0.93780 0.23990 0.63550 -0.22300
N 	N 	0.20010 0.41750 0.66790 -0.25300
N 	N 	0.16760 0.43210 0.81350 -0.24500
N 	N 	0.19710 0.24040 0.64500 -0.22000
N 	N 	0.17770 0.13550 0.76010 -0.22600
N 	N 	0.61760 0.16790 0.58250 -0.25300
N 	N 	0.59970 0.31350 0.56790 -0.24500
N 	N 	0.58250 0.25960 0.85500 -0.22000
N 	N 	0.57330 0.36450 0.73990 -0.22600
N 	N 	0.86800 0.33210 0.91750 -0.25600
N 	N 	0.98110 0.18650 0.93210 -0.22300
N 	N 	0.56250 0.85500 0.24040 -0.22000
N 	N 	0.68680 0.73990 0.13550 -0.22600
N 	N 	0.21450 0.91750 0.16790 -0.25100
N 	N 	0.08680 0.93210 0.31350 -0.24300
N 	N 	0.15790 0.64500 0.25960 -0.21900
N 	N 	0.06220 0.76010 0.36450 -0.22300
N 	N 	0.79990 0.58250 0.33210 -0.25300
N 	N 	0.83240 0.56790 0.18650 -0.24500
N 	N 	0.80290 0.75960 0.35500 -0.22000
N 	N 	0.82230 0.86450 0.23990 -0.22600
N 	N 	0.38240 0.83210 0.41750 -0.25300
N 	N 	0.40030 0.68650 0.43210 -0.24500
N 	N 	0.41750 0.74040 0.14500 -0.22000
N 	N 	0.42670 0.63550 0.26010 -0.22600
N 	N 	0.13200 0.66790 0.08250 -0.25600
N 	N 	0.01890 0.81350 0.06790 -0.22300
O 	O 	0.60570 0.04580 0.87280 -0.49800
O 	O 	0.60880 0.99080 0.76080 -0.47000
O 	O 	0.43590 0.17920 0.01860 -0.48200
O 	O 	0.28220 0.29200 0.02980 -0.46300
O 	O 	0.11110 0.04250 0.61770 -0.45400
O 	O 	0.11420 0.00560 0.75580 -0.50700
O 	O 	0.78120 0.06890 0.99890 -0.50000
O 	O 	0.95420 0.01460 0.94400 -0.55600
O 	O 	0.02430 0.45420 0.62720 -0.50600
O 	O 	0.86040 0.50920 0.73920 -0.47700
O 	O 	0.13370 0.32080 0.48140 -0.49700
O 	O 	0.10400 0.20800 0.47020 -0.47900
O 	O 	0.27130 0.45750 0.88230 -0.45800
O 	O 	0.37560 0.49440 0.74420 -0.51100
O 	O 	0.34900 0.43110 0.50110 -0.50700
O 	O 	0.41280 0.48540 0.55600 -0.57600
O 	O 	0.47850 0.12720 0.54580 -0.49900
O 	O 	0.36960 0.23920 0.49080 -0.47600
O 	O 	0.45450 0.98140 0.67920 -0.48600
O 	O 	0.31200 0.97020 0.79200 -0.45800
O 	O 	0.72880 0.38230 0.54250 -0.45700
O 	O 	0.87000 0.24420 0.50560 -0.50400
O 	O 	0.78010 0.00110 0.56890 -0.49900
O 	O 	0.89820 0.05600 0.51460 -0.56400
O 	O 	0.65150 0.37280 0.95420 -0.49900
O 	O 	0.59960 0.26080 0.00920 -0.47100
O 	O 	0.61510 0.51860 0.82080 -0.50000
O 	O 	0.57420 0.52980 0.70800 -0.48200
O 	O 	0.15360 0.11770 0.95750 -0.46400
O 	O 	0.11980 0.25580 0.99440 -0.51800
O 	O 	0.85010 0.49890 0.93110 -0.50000
O 	O 	0.96880 0.44400 0.98540 -0.55900
O 	O 	0.39430 0.95420 0.12720 -0.49800
O 	O 	0.39120 0.00920 0.23920 -0.47000
O 	O 	0.56410 0.82080 0.98140 -0.48200
O 	O 	0.71780 0.70800 0.97020 -0.46300
O 	O 	0.88890 0.95750 0.38230 -0.45400
O 	O 	0.88580 0.99440 0.24420 -0.50700
O 	O 	0.21880 0.93110 0.00110 -0.50000
O 	O 	0.04580 0.98540 0.05600 -0.55600
O 	O 	0.97570 0.54580 0.37280 -0.50600
O 	O 	0.13960 0.49080 0.26080 -0.47700
O 	O 	0.86630 0.67920 0.51860 -0.49700
O 	O 	0.89600 0.79200 0.52980 -0.47900
O 	O 	0.72870 0.54250 0.11770 -0.45800
O 	O 	0.62440 0.50560 0.25580 -0.51100
O 	O 	0.65100 0.56890 0.49890 -0.50700
O 	O 	0.58720 0.51460 0.44400 -0.57600
O 	O 	0.52150 0.87280 0.45420 -0.49900
O 	O 	0.63040 0.76080 0.50920 -0.47600
O 	O 	0.54550 0.01860 0.32080 -0.48600
O 	O 	0.68800 0.02980 0.20800 -0.45800
O 	O 	0.27120 0.61770 0.45750 -0.45700
O 	O 	0.13000 0.75580 0.49440 -0.50400
O 	O 	0.21990 0.99890 0.43110 -0.49900
O 	O 	0.10180 0.94400 0.48540 -0.56400
O 	O 	0.34850 0.62720 0.04580 -0.49900
O 	O 	0.40040 0.73920 0.99080 -0.47100
O 	O 	0.38490 0.48140 0.17920 -0.50000
O 	O 	0.42580 0.47020 0.29200 -0.48200
O 	O 	0.84640 0.88230 0.04250 -0.46400
O 	O 	0.88020 0.74420 0.00560 -0.51800
O 	O 	0.14990 0.50110 0.06890 -0.50000
O 	O 	0.03120 0.55600 0.01460 -0.55900
