data_crystal

_cell_length_a 16.00100
_cell_length_b 16.37960
_cell_length_c 16.37960
_cell_angle_alpha 76.19740
_cell_angle_beta  60.76170
_cell_angle_gamma 60.76170

_symmetry_space_group_name_	'P 1'
_symmetry_space_group_name_H-M	'P 1'

loop_
_symmetry_equiv_pos_as_xyz
  x,y,z

loop_
_atom_site_label
_atom_site_type_symbol
_atom_site_fract_x
_atom_site_fract_y
_atom_site_fract_z
_atom_site_charge
Dy	Dy	0.41765 0.37961 0.96619 1.56900
Dy	Dy	0.87537 0.11309 0.97501 1.64100
Dy	Dy	0.26345 0.12039 0.53381 1.57300
Dy	Dy	0.46347 0.38691 0.52499 1.69600
Dy	Dy	0.38384 0.03381 0.87961 1.55900
Dy	Dy	0.85038 0.02499 0.61309 1.66700
Dy	Dy	0.79726 0.46619 0.62039 1.57000
Dy	Dy	0.98846 0.47501 0.88691 1.66400
Dy	Dy	0.58235 0.62039 0.03381 1.56900
Dy	Dy	0.12463 0.88691 0.02499 1.64100
Dy	Dy	0.73655 0.87961 0.46619 1.57300
Dy	Dy	0.53653 0.61309 0.47501 1.69600
Dy	Dy	0.61616 0.96619 0.12039 1.55900
Dy	Dy	0.14962 0.97501 0.38691 1.66700
Dy	Dy	0.20274 0.53381 0.37961 1.57000
Dy	Dy	0.01154 0.52499 0.11309 1.66400
H 	H 	0.94620 0.24860 0.74520 -0.04700
H 	H 	0.51940 0.40040 0.71660 -0.05500
H 	H 	0.44000 0.25140 0.75480 -0.04300
H 	H 	0.13640 0.09960 0.78340 -0.05300
H 	H 	0.69140 0.25480 0.74860 -0.04200
H 	H 	0.23600 0.28340 0.90040 -0.05400
H 	H 	0.19480 0.24520 0.75140 -0.04200
H 	H 	0.91980 0.21660 0.59960 -0.05800
H 	H 	0.05380 0.75140 0.25480 -0.04700
H 	H 	0.48060 0.59960 0.28340 -0.05500
H 	H 	0.56000 0.74860 0.24520 -0.04300
H 	H 	0.86360 0.90040 0.21660 -0.05300
H 	H 	0.30860 0.74520 0.25140 -0.04200
H 	H 	0.76400 0.71660 0.09960 -0.05400
H 	H 	0.80520 0.75480 0.24860 -0.04200
H 	H 	0.08020 0.78340 0.40040 -0.05800
C 	C 	0.87280 0.27530 0.78190 0.14200
C 	C 	0.71970 0.29580 0.89380 -0.05400
C 	C 	0.70750 0.36710 0.82810 -0.08400
C 	C 	0.64590 0.27480 0.98500 0.36700
C 	C 	0.61560 0.44740 0.82000 0.38400
C 	C 	0.44770 0.41510 0.74010 0.15300
C 	C 	0.28610 0.44440 0.83700 -0.04800
C 	C 	0.29800 0.45260 0.74540 -0.07100
C 	C 	0.19730 0.45470 0.93110 0.35500
C 	C 	0.22530 0.46870 0.70630 0.39500
C 	C 	0.43000 0.22470 0.71810 0.14200
C 	C 	0.40930 0.20420 0.60620 -0.06200
C 	C 	0.40270 0.13290 0.67190 -0.08100
C 	C 	0.40570 0.22520 0.51500 0.39200
C 	C 	0.38300 0.05260 0.68000 0.37800
C 	C 	0.10290 0.08490 0.75990 0.15500
C 	C 	0.06750 0.05560 0.66300 -0.02000
C 	C 	0.99600 0.04740 0.75460 -0.11000
C 	C 	0.08310 0.04530 0.56890 0.34800
C 	C 	0.90030 0.03130 0.79370 0.40500
C 	C 	0.65470 0.21810 0.77530 0.14200
C 	C 	0.61350 0.10620 0.79580 -0.05500
C 	C 	0.53560 0.17190 0.86710 -0.08400
C 	C 	0.63090 0.01500 0.77480 0.36400
C 	C 	0.43560 0.18000 0.94740 0.37900
C 	C 	0.18780 0.25990 0.91510 0.15300
C 	C 	0.12310 0.16300 0.94440 -0.05100
C 	C 	0.04340 0.25460 0.95260 -0.05000
C 	C 	0.12840 0.06890 0.95470 0.35800
C 	C 	0.93160 0.29370 0.96870 0.37300
C 	C 	0.14810 0.28190 0.72470 0.14300
C 	C 	0.01550 0.39380 0.70420 -0.05000
C 	C 	0.07460 0.32810 0.63290 -0.08400
C 	C 	0.92070 0.48500 0.72520 0.38200
C 	C 	0.06300 0.32000 0.55260 0.39100
C 	C 	0.86280 0.24010 0.58490 0.15300
C 	C 	0.73050 0.33700 0.55560 -0.04900
C 	C 	0.75060 0.24540 0.54740 -0.07200
C 	C 	0.65200 0.43110 0.54530 0.35700
C 	C 	0.69400 0.20630 0.53130 0.39700
C 	C 	0.12720 0.72470 0.21810 0.14200
C 	C 	0.28030 0.70420 0.10620 -0.05400
C 	C 	0.29250 0.63290 0.17190 -0.08400
C 	C 	0.35410 0.72520 0.01500 0.36700
C 	C 	0.38440 0.55260 0.18000 0.38400
C 	C 	0.55230 0.58490 0.25990 0.15300
C 	C 	0.71390 0.55560 0.16300 -0.04800
C 	C 	0.70200 0.54740 0.25460 -0.07100
C 	C 	0.80270 0.54530 0.06890 0.35500
C 	C 	0.77470 0.53130 0.29370 0.39500
C 	C 	0.57000 0.77530 0.28190 0.14200
C 	C 	0.59070 0.79580 0.39380 -0.06200
C 	C 	0.59730 0.86710 0.32810 -0.08100
C 	C 	0.59430 0.77480 0.48500 0.39200
C 	C 	0.61700 0.94740 0.32000 0.37800
C 	C 	0.89710 0.91510 0.24010 0.15500
C 	C 	0.93250 0.94440 0.33700 -0.02000
C 	C 	0.00400 0.95260 0.24540 -0.11000
C 	C 	0.91690 0.95470 0.43110 0.34800
C 	C 	0.09970 0.96870 0.20630 0.40500
C 	C 	0.34530 0.78190 0.22470 0.14200
C 	C 	0.38650 0.89380 0.20420 -0.05500
C 	C 	0.46440 0.82810 0.13290 -0.08400
C 	C 	0.36910 0.98500 0.22520 0.36400
C 	C 	0.56440 0.82000 0.05260 0.37900
C 	C 	0.81220 0.74010 0.08490 0.15300
C 	C 	0.87690 0.83700 0.05560 -0.05100
C 	C 	0.95660 0.74540 0.04740 -0.05000
C 	C 	0.87160 0.93110 0.04530 0.35800
C 	C 	0.06840 0.70630 0.03130 0.37300
C 	C 	0.85190 0.71810 0.27530 0.14300
C 	C 	0.98450 0.60620 0.29580 -0.05000
C 	C 	0.92540 0.67190 0.36710 -0.08400
C 	C 	0.07930 0.51500 0.27480 0.38200
C 	C 	0.93700 0.68000 0.44740 0.39100
C 	C 	0.13720 0.75990 0.41510 0.15300
C 	C 	0.26950 0.66300 0.44440 -0.04900
C 	C 	0.24940 0.75460 0.45260 -0.07200
C 	C 	0.34800 0.56890 0.45470 0.35700
C 	C 	0.30600 0.79370 0.46870 0.39700
N 	N 	0.80640 0.35320 0.75720 -0.21200
N 	N 	0.82580 0.23780 0.86400 -0.21700
N 	N 	0.40190 0.43300 0.68560 -0.23700
N 	N 	0.38380 0.41960 0.83180 -0.24300
N 	N 	0.41680 0.14680 0.74280 -0.21300
N 	N 	0.42760 0.26220 0.63600 -0.21700
N 	N 	0.02050 0.06700 0.81440 -0.21600
N 	N 	0.13520 0.08040 0.66820 -0.24600
N 	N 	0.56360 0.24280 0.85320 -0.21200
N 	N 	0.68980 0.13600 0.73780 -0.21700
N 	N 	0.08750 0.31440 0.93300 -0.23500
N 	N 	0.21560 0.16820 0.91960 -0.24100
N 	N 	0.15960 0.25720 0.64680 -0.21200
N 	N 	0.06360 0.36400 0.76220 -0.21300
N 	N 	0.83490 0.18560 0.56700 -0.23700
N 	N 	0.80340 0.33180 0.58040 -0.24300
N 	N 	0.19360 0.64680 0.24280 -0.21200
N 	N 	0.17420 0.76220 0.13600 -0.21700
N 	N 	0.59810 0.56700 0.31440 -0.23700
N 	N 	0.61620 0.58040 0.16820 -0.24300
N 	N 	0.58320 0.85320 0.25720 -0.21300
N 	N 	0.57240 0.73780 0.36400 -0.21700
N 	N 	0.97950 0.93300 0.18560 -0.21600
N 	N 	0.86480 0.91960 0.33180 -0.24600
N 	N 	0.43640 0.75720 0.14680 -0.21200
N 	N 	0.31020 0.86400 0.26220 -0.21700
N 	N 	0.91250 0.68560 0.06700 -0.23500
N 	N 	0.78440 0.83180 0.08040 -0.24100
N 	N 	0.84040 0.74280 0.35320 -0.21200
N 	N 	0.93640 0.63600 0.23780 -0.21300
N 	N 	0.16510 0.81440 0.43300 -0.23700
N 	N 	0.19660 0.66820 0.41960 -0.24300
O 	O 	0.54680 0.32020 0.01740 -0.46800
O 	O 	0.69030 0.20590 0.02870 -0.43600
O 	O 	0.63420 0.50760 0.75700 -0.45100
O 	O 	0.52330 0.45570 0.87190 -0.47300
O 	O 	0.22160 0.43210 0.99870 -0.46900
O 	O 	0.10120 0.48690 0.94570 -0.54100
O 	O 	0.27060 0.45630 0.61830 -0.43700
O 	O 	0.12830 0.49400 0.75660 -0.47900
O 	O 	0.38440 0.17980 0.48260 -0.48100
O 	O 	0.42490 0.29410 0.47130 -0.46000
O 	O 	0.39880 0.99240 0.74300 -0.44600
O 	O 	0.35090 0.04430 0.62810 -0.47300
O 	O 	0.15240 0.06790 0.50130 -0.47000
O 	O 	0.03380 0.01310 0.55430 -0.53600
O 	O 	0.84520 0.04370 0.88170 -0.44400
O 	O 	0.87890 0.00600 0.74340 -0.49200
O 	O 	0.56420 0.98260 0.82020 -0.46400
O 	O 	0.71900 0.97130 0.70590 -0.44100
O 	O 	0.39120 0.24300 0.00760 -0.44500
O 	O 	0.39520 0.12810 0.95570 -0.47300
O 	O 	0.22030 0.00130 0.93210 -0.47000
O 	O 	0.04690 0.05430 0.98690 -0.53300
O 	O 	0.88890 0.38170 0.95630 -0.43400
O 	O 	0.88490 0.24340 0.99400 -0.48200
O 	O 	0.86700 0.51740 0.67980 -0.47900
O 	O 	0.89620 0.52870 0.79410 -0.45600
O 	O 	0.14180 0.25700 0.49240 -0.45200
O 	O 	0.97900 0.37190 0.54430 -0.48000
O 	O 	0.65370 0.49870 0.56790 -0.47600
O 	O 	0.58810 0.44570 0.51310 -0.55200
O 	O 	0.72690 0.11830 0.54370 -0.43800
O 	O 	0.62230 0.25660 0.50600 -0.48600
O 	O 	0.45320 0.67980 0.98260 -0.46800
O 	O 	0.30970 0.79410 0.97130 -0.43600
O 	O 	0.36580 0.49240 0.24300 -0.45100
O 	O 	0.47670 0.54430 0.12810 -0.47300
O 	O 	0.77840 0.56790 0.00130 -0.46900
O 	O 	0.89880 0.51310 0.05430 -0.54100
O 	O 	0.72940 0.54370 0.38170 -0.43700
O 	O 	0.87170 0.50600 0.24340 -0.47900
O 	O 	0.61560 0.82020 0.51740 -0.48100
O 	O 	0.57510 0.70590 0.52870 -0.46000
O 	O 	0.60120 0.00760 0.25700 -0.44600
O 	O 	0.64910 0.95570 0.37190 -0.47300
O 	O 	0.84760 0.93210 0.49870 -0.47000
O 	O 	0.96620 0.98690 0.44570 -0.53600
O 	O 	0.15480 0.95630 0.11830 -0.44400
O 	O 	0.12110 0.99400 0.25660 -0.49200
O 	O 	0.43580 0.01740 0.17980 -0.46400
O 	O 	0.28100 0.02870 0.29410 -0.44100
O 	O 	0.60880 0.75700 0.99240 -0.44500
O 	O 	0.60480 0.87190 0.04430 -0.47300
O 	O 	0.77970 0.99870 0.06790 -0.47000
O 	O 	0.95310 0.94570 0.01310 -0.53300
O 	O 	0.11110 0.61830 0.04370 -0.43400
O 	O 	0.11510 0.75660 0.00600 -0.48200
O 	O 	0.13300 0.48260 0.32020 -0.47900
O 	O 	0.10380 0.47130 0.20590 -0.45600
O 	O 	0.85820 0.74300 0.50760 -0.45200
O 	O 	0.02100 0.62810 0.45570 -0.48000
O 	O 	0.34630 0.50130 0.43210 -0.47600
O 	O 	0.41190 0.55430 0.48690 -0.55200
O 	O 	0.27310 0.88170 0.45630 -0.43800
O 	O 	0.37770 0.74340 0.49400 -0.48600
