data_crystal

_cell_length_a 9.66610
_cell_length_b 11.73700
_cell_length_c 12.31500
_cell_angle_alpha 90.00000
_cell_angle_beta  99.24000
_cell_angle_gamma 90.00000

_symmetry_space_group_name_	'P 1'
_symmetry_space_group_name_H-M	'P 1'

loop_
_symmetry_equiv_pos_as_xyz
  x,y,z

loop_
_atom_site_label
_atom_site_type_symbol
_atom_site_fract_x
_atom_site_fract_y
_atom_site_fract_z
_atom_site_charge
Eu	Eu	0.78615 0.01558 0.66907 1.97500
Eu	Eu	0.71385 0.51558 0.83093 1.98400
Eu	Eu	0.21385 0.98442 0.33093 1.97400
Eu	Eu	0.28615 0.48442 0.16907 1.98300
C 	C 	0.69900 0.79000 0.79460 0.26100
C 	C 	0.80020 0.74610 0.71720 0.28300
C 	C 	0.06290 0.00040 0.54710 0.28200
C 	C 	0.50500 0.93460 0.50010 0.27400
C 	C 	0.80100 0.29000 0.70540 0.26200
C 	C 	0.69980 0.24610 0.78280 0.28200
C 	C 	0.43710 0.50040 0.95290 0.27600
C 	C 	0.99500 0.43460 0.99990 0.26900
C 	C 	0.30100 0.21000 0.20540 0.26100
C 	C 	0.19980 0.25390 0.28280 0.28300
C 	C 	0.93710 0.99960 0.45290 0.28200
C 	C 	0.49500 0.06540 0.49990 0.27400
C 	C 	0.19900 0.71000 0.29460 0.26200
C 	C 	0.30020 0.75390 0.21720 0.28200
C 	C 	0.56290 0.49960 0.04710 0.27600
C 	C 	0.00500 0.56540 0.00010 0.26900
O 	O 	0.68410 0.89510 0.80000 -0.37700
O 	O 	0.64030 0.71550 0.84420 -0.37700
O 	O 	0.86550 0.81970 0.67220 -0.39300
O 	O 	0.80770 0.64100 0.70560 -0.40200
O 	O 	0.03410 0.01400 0.64280 -0.37900
O 	O 	0.18170 0.98740 0.52230 -0.39200
O 	O 	0.60160 0.89090 0.56710 -0.37000
O 	O 	0.41600 0.88200 0.43380 -0.37900
O 	O 	0.81590 0.39510 0.70000 -0.38100
O 	O 	0.85970 0.21550 0.65580 -0.37900
O 	O 	0.63450 0.31970 0.82780 -0.39600
O 	O 	0.69230 0.14100 0.79440 -0.40200
O 	O 	0.46590 0.51400 0.85720 -0.38200
O 	O 	0.31830 0.48740 0.97770 -0.38700
O 	O 	0.89840 0.39090 0.93290 -0.37300
O 	O 	0.08400 0.38200 0.06620 -0.37800
O 	O 	0.31590 0.10490 0.20000 -0.37700
O 	O 	0.35970 0.28450 0.15580 -0.37700
O 	O 	0.13450 0.18030 0.32780 -0.39300
O 	O 	0.19230 0.35900 0.29440 -0.40200
O 	O 	0.96590 0.98600 0.35720 -0.37900
O 	O 	0.81830 0.01260 0.47770 -0.39200
O 	O 	0.39840 0.10910 0.43290 -0.37000
O 	O 	0.58400 0.11800 0.56620 -0.37900
O 	O 	0.18410 0.60490 0.30000 -0.38100
O 	O 	0.14030 0.78450 0.34420 -0.37900
O 	O 	0.36550 0.68030 0.17220 -0.39600
O 	O 	0.30770 0.85900 0.20560 -0.40200
O 	O 	0.53410 0.48600 0.14280 -0.38200
O 	O 	0.68170 0.51260 0.02230 -0.38700
O 	O 	0.10160 0.60910 0.06710 -0.37300
O 	O 	0.91600 0.61800 0.93380 -0.37800
