data_crystal

_cell_length_a 9.63150
_cell_length_b 11.61300
_cell_length_c 12.21700
_cell_angle_alpha 90.00000
_cell_angle_beta  99.13000
_cell_angle_gamma 90.00000

_symmetry_space_group_name_	'P 1'
_symmetry_space_group_name_H-M	'P 1'

loop_
_symmetry_equiv_pos_as_xyz
  x,y,z

loop_
_atom_site_label
_atom_site_type_symbol
_atom_site_fract_x
_atom_site_fract_y
_atom_site_fract_z
_atom_site_charge
Dy	Dy	0.78530 0.48689 0.16760 1.82800
Dy	Dy	0.71470 0.98689 0.33240 1.82900
Dy	Dy	0.21470 0.51311 0.83240 1.82800
Dy	Dy	0.28530 0.01312 0.66760 1.83000
C 	C 	0.70040 0.25700 0.28300 0.27900
C 	C 	0.80290 0.21290 0.20690 0.25700
C 	C 	0.50440 0.56640 0.99890 0.27500
C 	C 	0.06300 0.49990 0.04780 0.28200
C 	C 	0.79960 0.75700 0.21700 0.27900
C 	C 	0.69710 0.71290 0.29310 0.25600
C 	C 	0.99560 0.06640 0.50110 0.27700
C 	C 	0.43700 0.99990 0.45220 0.28300
C 	C 	0.29960 0.74300 0.71700 0.27900
C 	C 	0.19710 0.78710 0.79310 0.25700
C 	C 	0.49560 0.43360 0.00110 0.27500
C 	C 	0.93700 0.50010 0.95220 0.28200
C 	C 	0.20040 0.24300 0.78300 0.27900
C 	C 	0.30290 0.28710 0.70690 0.25600
C 	C 	0.00440 0.93360 0.49890 0.27700
C 	C 	0.56300 0.00010 0.54780 0.28300
O 	O 	0.69010 0.36320 0.29280 -0.37900
O 	O 	0.63520 0.18180 0.32880 -0.37400
O 	O 	0.86130 0.28780 0.15600 -0.35800
O 	O 	0.82030 0.10620 0.20360 -0.35600
O 	O 	0.60270 0.61150 0.06400 -0.35400
O 	O 	0.41320 0.61800 0.93280 -0.36300
O 	O 	0.03280 0.48970 0.14340 -0.36300
O 	O 	0.18220 0.51160 0.02230 -0.37200
O 	O 	0.80990 0.86320 0.20720 -0.38100
O 	O 	0.86480 0.68180 0.17120 -0.37600
O 	O 	0.63870 0.78780 0.34400 -0.35700
O 	O 	0.67970 0.60620 0.29640 -0.35800
O 	O 	0.89730 0.11150 0.43600 -0.35300
O 	O 	0.08680 0.11800 0.56720 -0.36600
O 	O 	0.46720 0.98970 0.35660 -0.36400
O 	O 	0.31780 0.01160 0.47770 -0.37200
O 	O 	0.30990 0.63680 0.70720 -0.37900
O 	O 	0.36480 0.81820 0.67120 -0.37300
O 	O 	0.13870 0.71220 0.84400 -0.35800
O 	O 	0.17970 0.89380 0.79640 -0.35600
O 	O 	0.39730 0.38850 0.93600 -0.35400
O 	O 	0.58680 0.38200 0.06720 -0.36300
O 	O 	0.96720 0.51030 0.85660 -0.36300
O 	O 	0.81780 0.48840 0.97770 -0.37200
O 	O 	0.19010 0.13680 0.79280 -0.38100
O 	O 	0.13520 0.31820 0.82880 -0.37600
O 	O 	0.36130 0.21220 0.65600 -0.35700
O 	O 	0.32030 0.39380 0.70360 -0.35800
O 	O 	0.10270 0.88850 0.56400 -0.35300
O 	O 	0.91320 0.88200 0.43280 -0.36600
O 	O 	0.53280 0.01030 0.64340 -0.36400
O 	O 	0.68220 0.98840 0.52230 -0.37200
