data_crystal

_cell_length_a 9.62050
_cell_length_b 11.56400
_cell_length_c 12.22900
_cell_angle_alpha 90.00000
_cell_angle_beta  99.04000
_cell_angle_gamma 90.00000

_symmetry_space_group_name_	'P 1'
_symmetry_space_group_name_H-M	'P 1'

loop_
_symmetry_equiv_pos_as_xyz
  x,y,z

loop_
_atom_site_label
_atom_site_type_symbol
_atom_site_fract_x
_atom_site_fract_y
_atom_site_fract_z
_atom_site_charge
Ho	Ho	0.78498 0.51238 0.16715 1.78300
Ho	Ho	0.71502 0.01238 0.33285 1.78300
Ho	Ho	0.21502 0.48762 0.83285 1.78200
Ho	Ho	0.28498 0.98762 0.66715 1.78200
C 	C 	0.70100 0.74290 0.28300 0.26900
C 	C 	0.50420 0.43380 0.99860 0.27200
C 	C 	0.80330 0.78600 0.20770 0.25300
C 	C 	0.06270 0.49990 0.04770 0.27900
C 	C 	0.79900 0.24290 0.21700 0.27000
C 	C 	0.99580 0.93380 0.50140 0.27400
C 	C 	0.69670 0.28600 0.29230 0.25300
C 	C 	0.43730 0.99990 0.45230 0.28000
C 	C 	0.29900 0.25710 0.71700 0.26900
C 	C 	0.49580 0.56620 0.00140 0.27200
C 	C 	0.19670 0.21400 0.79230 0.25300
C 	C 	0.93730 0.50010 0.95230 0.27900
C 	C 	0.20100 0.75710 0.78300 0.27000
C 	C 	0.00420 0.06620 0.49860 0.27400
C 	C 	0.30330 0.71400 0.70770 0.25300
C 	C 	0.56270 0.00010 0.54770 0.28000
O 	O 	0.68870 0.63540 0.29250 -0.36500
O 	O 	0.63560 0.81790 0.32930 -0.36600
O 	O 	0.60300 0.38780 0.06270 -0.34600
O 	O 	0.41220 0.38210 0.93290 -0.35700
O 	O 	0.82130 0.89340 0.20450 -0.34800
O 	O 	0.86180 0.71080 0.15630 -0.35200
O 	O 	0.18210 0.48870 0.02210 -0.36400
O 	O 	0.03260 0.50930 0.14350 -0.35500
O 	O 	0.81130 0.13540 0.20750 -0.36700
O 	O 	0.86440 0.31790 0.17070 -0.36900
O 	O 	0.89700 0.88780 0.43730 -0.34500
O 	O 	0.08780 0.88210 0.56710 -0.36000
O 	O 	0.67870 0.39340 0.29550 -0.35000
O 	O 	0.63820 0.21080 0.34370 -0.35100
O 	O 	0.31790 0.98870 0.47790 -0.36500
O 	O 	0.46740 0.00930 0.35650 -0.35500
O 	O 	0.31130 0.36460 0.70750 -0.36500
O 	O 	0.36440 0.18210 0.67070 -0.36600
O 	O 	0.39700 0.61220 0.93730 -0.34600
O 	O 	0.58780 0.61790 0.06710 -0.35700
O 	O 	0.17870 0.10660 0.79550 -0.34800
O 	O 	0.13820 0.28920 0.84370 -0.35200
O 	O 	0.81790 0.51130 0.97790 -0.36400
O 	O 	0.96740 0.49070 0.85650 -0.35500
O 	O 	0.18870 0.86460 0.79250 -0.36700
O 	O 	0.13560 0.68210 0.82930 -0.36900
O 	O 	0.10300 0.11220 0.56270 -0.34500
O 	O 	0.91220 0.11790 0.43290 -0.36000
O 	O 	0.32130 0.60660 0.70450 -0.35000
O 	O 	0.36180 0.78920 0.65630 -0.35100
O 	O 	0.68210 0.01130 0.52210 -0.36500
O 	O 	0.53260 0.99070 0.64350 -0.35500
