data_crystal

_cell_length_a 9.65150
_cell_length_b 11.65500
_cell_length_c 12.26400
_cell_angle_alpha 90.00000
_cell_angle_beta  99.14000
_cell_angle_gamma 90.00000

_symmetry_space_group_name_	'P 1'
_symmetry_space_group_name_H-M	'P 1'

loop_
_symmetry_equiv_pos_as_xyz
  x,y,z

loop_
_atom_site_label
_atom_site_type_symbol
_atom_site_fract_x
_atom_site_fract_y
_atom_site_fract_z
_atom_site_charge
Tb	Tb	0.71437 0.48614 0.33196 1.88400
Tb	Tb	0.78563 0.98614 0.16804 1.85000
Tb	Tb	0.28563 0.51386 0.66804 1.88400
Tb	Tb	0.21437 0.01386 0.83196 1.85000
C 	C 	0.69790 0.21250 0.29370 0.25300
C 	C 	0.99550 0.56570 0.50040 0.26800
C 	C 	0.56250 0.50010 0.54810 0.27900
C 	C 	0.79930 0.25630 0.21650 0.28200
C 	C 	0.80210 0.71250 0.20630 0.25300
C 	C 	0.50450 0.06570 0.99960 0.25600
C 	C 	0.93750 0.00010 0.95190 0.27000
C 	C 	0.70070 0.75630 0.28350 0.28200
C 	C 	0.30210 0.78750 0.70630 0.25300
C 	C 	0.00450 0.43430 0.49960 0.26800
C 	C 	0.43750 0.49990 0.45190 0.27900
C 	C 	0.20070 0.74370 0.78350 0.28200
C 	C 	0.19790 0.28750 0.79370 0.25300
C 	C 	0.49550 0.93430 0.00040 0.25600
C 	C 	0.06250 0.99990 0.04810 0.27000
C 	C 	0.29930 0.24370 0.71650 0.28200
O 	O 	0.63860 0.28690 0.34370 -0.36200
O 	O 	0.68120 0.10570 0.29790 -0.35500
O 	O 	0.89780 0.61080 0.43510 -0.35800
O 	O 	0.08610 0.61820 0.56680 -0.36500
O 	O 	0.68240 0.48860 0.52200 -0.37600
O 	O 	0.53290 0.51150 0.64310 -0.37200
O 	O 	0.86520 0.18180 0.17150 -0.37400
O 	O 	0.80890 0.36180 0.20630 -0.38700
O 	O 	0.86140 0.78690 0.15630 -0.36500
O 	O 	0.81880 0.60570 0.20210 -0.36400
O 	O 	0.60220 0.11080 0.06490 -0.34200
O 	O 	0.41390 0.11820 0.93320 -0.36400
O 	O 	0.81760 0.98860 0.97800 -0.36100
O 	O 	0.96710 0.01150 0.85690 -0.36500
O 	O 	0.63480 0.68180 0.32850 -0.38100
O 	O 	0.69110 0.86180 0.29370 -0.38600
O 	O 	0.36140 0.71310 0.65630 -0.36200
O 	O 	0.31880 0.89430 0.70210 -0.35500
O 	O 	0.10220 0.38920 0.56490 -0.35800
O 	O 	0.91390 0.38180 0.43320 -0.36500
O 	O 	0.31760 0.51140 0.47800 -0.37600
O 	O 	0.46710 0.48850 0.35690 -0.37200
O 	O 	0.13480 0.81820 0.82850 -0.37400
O 	O 	0.19110 0.63820 0.79370 -0.38700
O 	O 	0.13860 0.21310 0.84370 -0.36500
O 	O 	0.18120 0.39430 0.79790 -0.36400
O 	O 	0.39780 0.88920 0.93510 -0.34200
O 	O 	0.58610 0.88180 0.06680 -0.36400
O 	O 	0.18240 0.01140 0.02200 -0.36100
O 	O 	0.03290 0.98850 0.14310 -0.36500
O 	O 	0.36520 0.31820 0.67150 -0.38100
O 	O 	0.30890 0.13820 0.70630 -0.38600
