data_crystal

_cell_length_a 12.25380
_cell_length_b 12.25380
_cell_length_c 23.07750
_cell_angle_alpha 86.89910
_cell_angle_beta  86.89910
_cell_angle_gamma 66.51150

_symmetry_space_group_name_	'P 1'
_symmetry_space_group_name_H-M	'P 1'

loop_
_symmetry_equiv_pos_as_xyz
  x,y,z

loop_
_atom_site_label
_atom_site_type_symbol
_atom_site_fract_x
_atom_site_fract_y
_atom_site_fract_z
_atom_site_charge
Cd	Cd	0.47531 0.94675 0.26783 1.20900
Cd	Cd	0.05325 0.52469 0.23217 1.20800
Cd	Cd	0.52469 0.05325 0.73217 1.20900
Cd	Cd	0.94675 0.47531 0.76783 1.20800
H 	H 	0.46060 0.64360 0.14110 0.04500
H 	H 	0.50040 0.54540 0.05560 0.03600
H 	H 	0.69370 0.45570 0.01830 0.04300
H 	H 	0.84840 0.46700 0.06750 0.04800
H 	H 	0.34530 0.86470 0.15780 0.00300
H 	H 	0.24410 0.18410 0.20800 -0.01000
H 	H 	0.06290 0.28650 0.13950 0.01400
H 	H 	0.14180 0.24960 0.08240 0.01200
H 	H 	0.87690 0.30290 0.19050 0.30700
H 	H 	0.84330 0.19290 0.20260 0.29800
H 	H 	0.97740 0.17520 0.19880 0.30700
H 	H 	0.10810 0.25110 0.97850 0.27800
H 	H 	0.18840 0.13440 0.01220 0.27400
H 	H 	0.12550 0.12650 0.95610 0.28100
H 	H 	0.65170 0.23650 0.99820 0.28200
H 	H 	0.73580 0.11320 0.97350 0.28500
H 	H 	0.67420 0.11900 0.03530 0.28200
H 	H 	0.62610 0.25790 0.10180 0.02000
H 	H 	0.68400 0.27840 0.15680 0.02200
H 	H 	0.73390 0.85750 0.18150 0.01400
H 	H 	0.53790 0.18570 0.21060 0.00900
H 	H 	0.88270 0.07570 0.93440 0.02200
H 	H 	0.01170 0.07330 0.92990 0.01800
H 	H 	0.03420 0.22800 0.85440 -0.00900
H 	H 	0.70670 0.43810 0.83980 0.00100
H 	H 	0.35640 0.53940 0.35890 0.04500
H 	H 	0.45460 0.49960 0.44440 0.03600
H 	H 	0.54430 0.30630 0.48170 0.04200
H 	H 	0.53300 0.15160 0.43250 0.04700
H 	H 	0.13530 0.65470 0.34220 0.00300
H 	H 	0.81590 0.75590 0.29200 -0.01000
H 	H 	0.71350 0.93710 0.36050 0.01400
H 	H 	0.75040 0.85820 0.41760 0.01100
H 	H 	0.69710 0.12310 0.30950 0.30800
H 	H 	0.80710 0.15670 0.29740 0.30000
H 	H 	0.82480 0.02260 0.30120 0.30800
H 	H 	0.74890 0.89190 0.52150 0.28500
H 	H 	0.86560 0.81160 0.48780 0.28300
H 	H 	0.87350 0.87450 0.54390 0.28900
H 	H 	0.76350 0.34830 0.50180 0.29500
H 	H 	0.88680 0.26420 0.52650 0.29800
H 	H 	0.88100 0.32580 0.46470 0.29300
H 	H 	0.74210 0.37390 0.39820 0.01800
H 	H 	0.72160 0.31600 0.34320 0.02000
H 	H 	0.14250 0.26610 0.31850 0.01400
H 	H 	0.81430 0.46210 0.28940 0.00900
H 	H 	0.92430 0.11730 0.56560 0.01600
H 	H 	0.92670 0.98830 0.57010 0.00900
H 	H 	0.77200 0.96580 0.64560 -0.01200
H 	H 	0.56190 0.29330 0.66020 0.00100
H 	H 	0.53940 0.35640 0.85890 0.04500
H 	H 	0.49960 0.45460 0.94440 0.03600
H 	H 	0.30630 0.54430 0.98170 0.04300
H 	H 	0.15160 0.53300 0.93250 0.04800
H 	H 	0.65470 0.13530 0.84220 0.00300
H 	H 	0.75590 0.81590 0.79200 -0.01000
H 	H 	0.93710 0.71350 0.86050 0.01400
H 	H 	0.85820 0.75040 0.91760 0.01200
H 	H 	0.12310 0.69710 0.80950 0.30700
H 	H 	0.15670 0.80710 0.79740 0.29800
H 	H 	0.02260 0.82480 0.80120 0.30700
H 	H 	0.89190 0.74890 0.02150 0.27800
H 	H 	0.81160 0.86560 0.98780 0.27400
H 	H 	0.87450 0.87350 0.04390 0.28100
H 	H 	0.34830 0.76350 0.00180 0.28200
H 	H 	0.26420 0.88680 0.02650 0.28500
H 	H 	0.32580 0.88100 0.96470 0.28200
H 	H 	0.37390 0.74210 0.89820 0.02000
H 	H 	0.31600 0.72160 0.84320 0.02200
H 	H 	0.26610 0.14250 0.81850 0.01400
H 	H 	0.46210 0.81430 0.78940 0.00900
H 	H 	0.11730 0.92430 0.06560 0.02200
H 	H 	0.98830 0.92670 0.07010 0.01800
H 	H 	0.96580 0.77200 0.14560 -0.00900
H 	H 	0.29330 0.56190 0.16020 0.00100
H 	H 	0.64360 0.46060 0.64110 0.04500
H 	H 	0.54540 0.50040 0.55560 0.03600
H 	H 	0.45570 0.69370 0.51830 0.04200
H 	H 	0.46700 0.84840 0.56750 0.04700
H 	H 	0.86470 0.34530 0.65780 0.00300
H 	H 	0.18410 0.24410 0.70800 -0.01000
H 	H 	0.28650 0.06290 0.63950 0.01400
H 	H 	0.24960 0.14180 0.58240 0.01100
H 	H 	0.30290 0.87690 0.69050 0.30800
H 	H 	0.19290 0.84330 0.70260 0.30000
H 	H 	0.17520 0.97740 0.69880 0.30800
H 	H 	0.25110 0.10810 0.47850 0.28500
H 	H 	0.13440 0.18840 0.51220 0.28300
H 	H 	0.12650 0.12550 0.45610 0.28900
H 	H 	0.23650 0.65170 0.49820 0.29500
H 	H 	0.11320 0.73580 0.47350 0.29800
H 	H 	0.11900 0.67420 0.53530 0.29300
H 	H 	0.25790 0.62610 0.60180 0.01800
H 	H 	0.27840 0.68400 0.65680 0.02000
H 	H 	0.85750 0.73390 0.68150 0.01400
H 	H 	0.18570 0.53790 0.71060 0.00900
H 	H 	0.07570 0.88270 0.43440 0.01600
H 	H 	0.07330 0.01170 0.42990 0.00900
H 	H 	0.22800 0.03420 0.35440 -0.01200
H 	H 	0.43810 0.70670 0.33980 0.00100
C 	C 	0.60050 0.67550 0.21440 0.33600
C 	C 	0.63210 0.61310 0.15760 -0.04900
C 	C 	0.53870 0.60770 0.12670 -0.02500
C 	C 	0.56260 0.54920 0.07550 -0.04400
C 	C 	0.67840 0.49560 0.05290 -0.04700
C 	C 	0.77090 0.50250 0.08260 -0.02800
C 	C 	0.75000 0.56160 0.13480 -0.05400
C 	C 	0.85270 0.56470 0.16660 0.29700
C 	C 	0.30420 0.94660 0.16030 0.08300
C 	C 	0.25130 0.11710 0.18840 0.08900
C 	C 	0.09970 0.22250 0.11270 0.05000
C 	C 	0.00270 0.19690 0.08560 -0.27500
C 	C 	0.90410 0.20290 0.11980 0.38200
C 	C 	0.90000 0.22000 0.18360 -0.91400
C 	C 	0.80770 0.19350 0.09340 -0.26800
C 	C 	0.81460 0.16880 0.03480 0.34400
C 	C 	0.91760 0.15660 0.00120 -0.24900
C 	C 	0.01030 0.17450 0.02700 0.33600
C 	C 	0.11790 0.17130 0.99010 -0.82900
C 	C 	0.70950 0.15850 0.00800 -0.84600
C 	C 	0.69130 0.22090 0.12800 0.04000
C 	C 	0.70330 0.94030 0.17990 0.07000
C 	C 	0.59650 0.11690 0.19580 0.07900
C 	C 	0.92900 0.12280 0.93910 0.04000
C 	C 	0.95190 0.26330 0.85950 0.08900
C 	C 	0.77510 0.37530 0.85230 0.08600
C 	C 	0.32450 0.39950 0.28560 0.33600
C 	C 	0.38690 0.36790 0.34240 -0.04900
C 	C 	0.39230 0.46130 0.37330 -0.02500
C 	C 	0.45080 0.43740 0.42450 -0.04400
C 	C 	0.50440 0.32160 0.44710 -0.04700
C 	C 	0.49750 0.22910 0.41740 -0.02800
C 	C 	0.43840 0.25000 0.36520 -0.05400
C 	C 	0.43530 0.14730 0.33340 0.29700
C 	C 	0.05340 0.69580 0.33970 0.08300
C 	C 	0.88290 0.74870 0.31160 0.08900
C 	C 	0.77750 0.90030 0.38730 0.05400
C 	C 	0.80310 0.99730 0.41440 -0.28100
C 	C 	0.79710 0.09590 0.38020 0.38700
C 	C 	0.78000 0.10000 0.31640 -0.92000
C 	C 	0.80650 0.19230 0.40660 -0.27700
C 	C 	0.83120 0.18540 0.46520 0.36100
C 	C 	0.84340 0.08240 0.49880 -0.27200
C 	C 	0.82550 0.98970 0.47300 0.35500
C 	C 	0.82870 0.88210 0.50990 -0.85800
C 	C 	0.84150 0.29050 0.49200 -0.88400
C 	C 	0.77910 0.30870 0.37200 0.04400
C 	C 	0.05970 0.29670 0.32010 0.06900
C 	C 	0.88310 0.40350 0.30420 0.07900
C 	C 	0.87720 0.07100 0.56090 0.06200
C 	C 	0.73670 0.04810 0.64050 0.09400
C 	C 	0.62470 0.22490 0.64770 0.08600
C 	C 	0.39950 0.32450 0.78560 0.33600
C 	C 	0.36790 0.38690 0.84240 -0.04900
C 	C 	0.46130 0.39230 0.87330 -0.02500
C 	C 	0.43740 0.45080 0.92450 -0.04400
C 	C 	0.32160 0.50440 0.94710 -0.04700
C 	C 	0.22910 0.49750 0.91740 -0.02800
C 	C 	0.25000 0.43840 0.86520 -0.05400
C 	C 	0.14730 0.43530 0.83340 0.29700
C 	C 	0.69580 0.05340 0.83970 0.08300
C 	C 	0.74870 0.88290 0.81160 0.08900
C 	C 	0.90030 0.77750 0.88730 0.05000
C 	C 	0.99730 0.80310 0.91440 -0.27500
C 	C 	0.09590 0.79710 0.88020 0.38200
C 	C 	0.10000 0.78000 0.81640 -0.91400
C 	C 	0.19230 0.80650 0.90660 -0.26800
C 	C 	0.18540 0.83120 0.96520 0.34400
C 	C 	0.08240 0.84340 0.99880 -0.24900
C 	C 	0.98970 0.82550 0.97300 0.33600
C 	C 	0.88210 0.82870 0.00990 -0.82900
C 	C 	0.29050 0.84150 0.99200 -0.84600
C 	C 	0.30870 0.77910 0.87200 0.04000
C 	C 	0.29670 0.05970 0.82010 0.07000
C 	C 	0.40350 0.88310 0.80420 0.07900
C 	C 	0.07100 0.87720 0.06090 0.04000
C 	C 	0.04810 0.73670 0.14050 0.08900
C 	C 	0.22490 0.62470 0.14770 0.08600
C 	C 	0.67550 0.60050 0.71440 0.33600
C 	C 	0.61310 0.63210 0.65760 -0.04900
C 	C 	0.60770 0.53870 0.62670 -0.02500
C 	C 	0.54920 0.56260 0.57550 -0.04400
C 	C 	0.49560 0.67840 0.55290 -0.04700
C 	C 	0.50250 0.77090 0.58260 -0.02800
C 	C 	0.56160 0.75000 0.63480 -0.05400
C 	C 	0.56470 0.85270 0.66660 0.29700
C 	C 	0.94660 0.30420 0.66030 0.08300
C 	C 	0.11710 0.25130 0.68840 0.08900
C 	C 	0.22250 0.09970 0.61270 0.05400
C 	C 	0.19690 0.00270 0.58560 -0.28100
C 	C 	0.20290 0.90410 0.61980 0.38700
C 	C 	0.22000 0.90000 0.68360 -0.92000
C 	C 	0.19350 0.80770 0.59340 -0.27700
C 	C 	0.16880 0.81460 0.53480 0.36100
C 	C 	0.15660 0.91760 0.50120 -0.27200
C 	C 	0.17450 0.01030 0.52700 0.35500
C 	C 	0.17130 0.11790 0.49010 -0.85800
C 	C 	0.15850 0.70950 0.50800 -0.88400
C 	C 	0.22090 0.69130 0.62800 0.04400
C 	C 	0.94030 0.70330 0.67990 0.06900
C 	C 	0.11690 0.59650 0.69580 0.07900
C 	C 	0.12280 0.92900 0.43910 0.06200
C 	C 	0.26330 0.95190 0.35950 0.09400
C 	C 	0.37530 0.77510 0.35230 0.08600
N 	N 	0.32710 0.00930 0.20120 -0.23500
N 	N 	0.22080 0.00860 0.12480 -0.10400
N 	N 	0.18600 0.11960 0.14400 -0.11400
N 	N 	0.60610 0.00850 0.21110 -0.23200
N 	N 	0.75110 0.00250 0.14690 -0.10300
N 	N 	0.67800 0.11660 0.15790 -0.11100
N 	N 	0.88950 0.22430 0.89800 -0.10400
N 	N 	0.77230 0.29650 0.89400 -0.10000
N 	N 	0.88350 0.35690 0.83000 -0.24400
N 	N 	0.99070 0.67290 0.29880 -0.23500
N 	N 	0.99140 0.77920 0.37520 -0.10400
N 	N 	0.88040 0.81400 0.35600 -0.11400
N 	N 	0.99150 0.39390 0.28890 -0.23200
N 	N 	0.99750 0.24890 0.35310 -0.10300
N 	N 	0.88340 0.32200 0.34210 -0.11200
N 	N 	0.77570 0.11050 0.60200 -0.10700
N 	N 	0.70350 0.22770 0.60600 -0.10000
N 	N 	0.64310 0.11650 0.67000 -0.24500
N 	N 	0.67290 0.99070 0.79880 -0.23500
N 	N 	0.77920 0.99140 0.87520 -0.10400
N 	N 	0.81400 0.88040 0.85600 -0.11400
N 	N 	0.39390 0.99150 0.78890 -0.23200
N 	N 	0.24890 0.99750 0.85310 -0.10300
N 	N 	0.32200 0.88340 0.84210 -0.11100
N 	N 	0.11050 0.77570 0.10200 -0.10400
N 	N 	0.22770 0.70350 0.10600 -0.10000
N 	N 	0.11650 0.64310 0.17000 -0.24400
N 	N 	0.00930 0.32710 0.70120 -0.23500
N 	N 	0.00860 0.22080 0.62480 -0.10400
N 	N 	0.11960 0.18600 0.64400 -0.11400
N 	N 	0.00850 0.60610 0.71110 -0.23200
N 	N 	0.00250 0.75110 0.64690 -0.10300
N 	N 	0.11660 0.67800 0.65790 -0.11200
N 	N 	0.22430 0.88950 0.39800 -0.10700
N 	N 	0.29650 0.77230 0.39400 -0.10000
N 	N 	0.35690 0.88350 0.33000 -0.24500
O 	O 	0.55390 0.78690 0.20960 -0.41100
O 	O 	0.61640 0.61300 0.26080 -0.27600
O 	O 	0.83470 0.63710 0.20510 -0.35300
O 	O 	0.95590 0.49010 0.15370 -0.39500
O 	O 	0.21310 0.44610 0.29040 -0.41100
O 	O 	0.38700 0.38360 0.23920 -0.27600
O 	O 	0.36290 0.16530 0.29490 -0.35300
O 	O 	0.50990 0.04410 0.34630 -0.39700
O 	O 	0.44610 0.21310 0.79040 -0.41100
O 	O 	0.38360 0.38700 0.73920 -0.27600
O 	O 	0.16530 0.36290 0.79490 -0.35300
O 	O 	0.04410 0.50990 0.84630 -0.39500
O 	O 	0.78690 0.55390 0.70960 -0.41100
O 	O 	0.61300 0.61640 0.76080 -0.27600
O 	O 	0.63710 0.83470 0.70510 -0.35300
O 	O 	0.49010 0.95590 0.65370 -0.39700
