data_crystal

_cell_length_a 11.20730
_cell_length_b 28.64670
_cell_length_c 21.99600
_cell_angle_alpha 90.00000
_cell_angle_beta  117.76400
_cell_angle_gamma 90.00000

_symmetry_space_group_name_	'P 1'
_symmetry_space_group_name_H-M	'P 1'

loop_
_symmetry_equiv_pos_as_xyz
  x,y,z

loop_
_atom_site_label
_atom_site_type_symbol
_atom_site_fract_x
_atom_site_fract_y
_atom_site_fract_z
_atom_site_charge
Cu	Cu	0.49716 0.25132 0.29910 0.89200
Cu	Cu	0.50564 0.36738 0.28022 0.89200
O 	O 	0.10830 0.05860 0.02290 -0.39600
O 	O 	0.96010 0.10920 0.02460 -0.24600
O 	O 	0.17790 0.26370 0.05680 -0.25700
O 	O 	0.39370 0.26738 0.18780 -0.38200
O 	O 	0.41030 0.34457 0.17460 -0.39400
O 	O 	0.54090 0.31304 0.33870 -0.44700
N 	N 	0.00790 0.99810 0.09180 -0.23300
N 	N 	0.00040 0.99630 0.41010 -0.27000
N 	N 	0.48130 0.18090 0.28480 -0.22000
N 	N 	0.50640 0.93690 0.24090 -0.24300
N 	N 	0.31880 0.25050 0.30380 -0.23200
N 	N 	0.68380 0.24640 0.30470 -0.21100
N 	N 	0.32390 0.37330 0.28120 -0.21800
N 	N 	0.69170 0.36660 0.28300 -0.21600
C 	C 	0.06870 0.09860 0.02540 0.21600
C 	C 	0.16530 0.13900 0.03410 0.14400
C 	C 	0.28880 0.12960 0.03180 -0.36800
H 	H 	0.31040 0.09920 0.02580 0.14900
C 	C 	0.37670 0.16630 0.03850 0.46700
C 	C 	0.33870 0.21140 0.04760 -0.50200
H 	H 	0.39670 0.23600 0.05290 0.19700
C 	C 	0.22380 0.22050 0.04910 0.37700
C 	C 	0.13490 0.18410 0.04190 -0.31500
H 	H 	0.05410 0.19060 0.04240 0.14100
C 	C 	0.50800 0.15600 0.03770 -0.99400
H 	H 	0.57940 0.15430 0.08410 0.31500
H 	H 	0.52710 0.18040 0.01360 0.30800
H 	H 	0.50110 0.12680 0.01500 0.30500
C 	C 	0.27010 0.30260 0.07550 -0.12900
H 	H 	0.21910 0.33150 0.06190 0.06500
H 	H 	0.32270 0.30030 0.05090 0.05600
C 	C 	0.36660 0.30380 0.15380 0.35300
C 	C 	0.89530 0.98770 0.09660 0.10000
H 	H 	0.81680 0.98030 0.05700 -0.02300
C 	C 	0.89370 0.98780 0.15860 -0.10800
H 	H 	0.81380 0.98120 0.16000 0.07000
C 	C 	0.00810 0.99740 0.21860 0.04800
C 	C 	0.12580 0.00770 0.21400 -0.15000
H 	H 	0.20590 0.01430 0.25330 0.07500
C 	C 	0.12080 0.00800 0.15010 0.05300
H 	H 	0.19880 0.01530 0.14710 -0.00200
C 	C 	0.89250 0.00940 0.35220 0.07400
H 	H 	0.81420 0.01790 0.35410 -0.03000
C 	C 	0.89370 0.01070 0.28970 -0.12600
H 	H 	0.81820 0.02120 0.25070 0.06800
C 	C 	0.00610 0.99670 0.28510 0.04300
C 	C 	0.11880 0.98130 0.34560 -0.13800
H 	H 	0.19730 0.97170 0.34480 0.07500
C 	C 	0.10900 0.98100 0.40620 0.06500
H 	H 	0.18150 0.96970 0.44580 -0.03600
C 	C 	0.41710 0.16150 0.22280 0.05800
H 	H 	0.37030 0.18090 0.18510 0.01800
C 	C 	0.41660 0.11290 0.21160 -0.11400
H 	H 	0.36930 0.10020 0.16780 0.07100
C 	C 	0.49040 0.08450 0.26910 0.02100
C 	C 	0.55330 0.10430 0.33340 -0.11400
H 	H 	0.59940 0.08590 0.37230 0.05200
C 	C 	0.54630 0.15320 0.33920 0.05800
H 	H 	0.58860 0.16660 0.38270 -0.01900
C 	C 	0.50550 0.95430 0.29630 0.13700
H 	H 	0.50790 0.93360 0.32950 -0.02400
C 	C 	0.50100 0.00150 0.30740 -0.21600
H 	H 	0.50220 0.01190 0.34770 0.08500
C 	C 	0.49490 0.03330 0.25920 0.10000
C 	C 	0.49790 0.01580 0.20150 -0.19900
H 	H 	0.49560 0.03600 0.16790 0.08500
C 	C 	0.50430 0.96740 0.19340 0.11500
H 	H 	0.50720 0.95600 0.15450 -0.03700
C 	C 	0.19960 0.25330 0.24610 0.11100
H 	H 	0.20080 0.25610 0.20420 -0.00700
C 	C 	0.07730 0.25230 0.24560 -0.21600
H 	H 	0.99880 0.25520 0.20410 0.12300
C 	C 	0.06920 0.24710 0.30490 0.07000
C 	C 	0.19180 0.24360 0.36640 -0.15500
H 	H 	0.19250 0.23980 0.40860 0.07800
C 	C 	0.31250 0.24600 0.36190 0.09300
H 	H 	0.39320 0.24440 0.40250 -0.02900
C 	C 	0.69360 0.23860 0.24550 0.05300
H 	H 	0.61580 0.23360 0.20430 0.00300
C 	C 	0.81580 0.23810 0.24670 -0.11500
H 	H 	0.82000 0.23270 0.20600 0.06300
C 	C 	0.93310 0.24550 0.30590 0.04500
C 	C 	0.92390 0.25370 0.36550 -0.05400
H 	H 	0.00110 0.25970 0.40650 0.03200
C 	C 	0.79990 0.25300 0.36360 0.03900
H 	H 	0.79540 0.25730 0.40440 0.00900
C 	C 	0.21030 0.38060 0.22350 0.06600
H 	H 	0.21560 0.38600 0.18310 -0.00800
C 	C 	0.08420 0.38060 0.22100 -0.11700
H 	H 	0.00700 0.38540 0.17950 0.05100
C 	C 	0.07410 0.37350 0.28120 0.02000
C 	C 	0.19510 0.36710 0.34220 -0.11800
H 	H 	0.19380 0.36320 0.38380 0.06800
C 	C 	0.31680 0.36680 0.33960 0.06500
H 	H 	0.39620 0.36190 0.38000 -0.01400
C 	C 	0.70150 0.35810 0.22520 0.06400
H 	H 	0.62350 0.35080 0.18520 0.00300
C 	C 	0.82440 0.35970 0.22300 -0.13000
H 	H 	0.82860 0.35260 0.18280 0.07400
C 	C 	0.94070 0.37220 0.28260 0.07400
C 	C 	0.92870 0.38140 0.34070 -0.07400
H 	H 	0.00450 0.38880 0.38160 0.04000
C 	C 	0.80170 0.37940 0.33800 0.05800
H 	H 	0.79460 0.38760 0.37710 0.00000
Cu	Cu	0.50284 0.75132 0.20090 0.89000
Cu	Cu	0.49436 0.86738 0.21978 0.89200
O 	O 	0.89170 0.55860 0.47710 -0.38800
O 	O 	0.03990 0.60920 0.47540 -0.30800
O 	O 	0.82210 0.76370 0.44320 -0.23800
O 	O 	0.60630 0.76738 0.31220 -0.38400
O 	O 	0.58970 0.84457 0.32540 -0.39200
O 	O 	0.45910 0.81304 0.16130 -0.45300
N 	N 	0.99210 0.49810 0.40820 -0.20700
N 	N 	0.99960 0.49630 0.08990 -0.25000
N 	N 	0.51870 0.68090 0.21520 -0.22300
N 	N 	0.49360 0.43690 0.25910 -0.22700
N 	N 	0.68120 0.75050 0.19620 -0.21600
N 	N 	0.31620 0.74640 0.19530 -0.22800
N 	N 	0.67610 0.87330 0.21880 -0.22500
N 	N 	0.30830 0.86660 0.21700 -0.22500
C 	C 	0.93130 0.59860 0.47460 0.29500
C 	C 	0.83470 0.63900 0.46590 0.13800
C 	C 	0.71120 0.62960 0.46820 -0.36300
H 	H 	0.68960 0.59920 0.47420 0.15400
C 	C 	0.62330 0.66630 0.46150 0.47700
C 	C 	0.66130 0.71140 0.45240 -0.50100
H 	H 	0.60330 0.73600 0.44710 0.20100
C 	C 	0.77620 0.72050 0.45090 0.37900
C 	C 	0.86510 0.68410 0.45810 -0.30200
H 	H 	0.94590 0.69060 0.45760 0.16100
C 	C 	0.49200 0.65600 0.46230 -1.01300
H 	H 	0.42060 0.65430 0.41590 0.32000
H 	H 	0.47290 0.68040 0.48640 0.32100
H 	H 	0.49890 0.62680 0.48500 0.31900
C 	C 	0.72990 0.80260 0.42450 -0.14400
H 	H 	0.78090 0.83150 0.43810 0.08400
H 	H 	0.67730 0.80030 0.44910 0.06900
C 	C 	0.63340 0.80380 0.34620 0.36000
C 	C 	0.10470 0.48770 0.40340 0.05900
H 	H 	0.18320 0.48030 0.44300 -0.01000
C 	C 	0.10630 0.48780 0.34140 -0.17600
H 	H 	0.18620 0.48120 0.34000 0.08300
C 	C 	0.99190 0.49740 0.28140 0.08900
C 	C 	0.87420 0.50770 0.28600 -0.14200
H 	H 	0.79410 0.51430 0.24670 0.08000
C 	C 	0.87920 0.50800 0.34990 0.09000
H 	H 	0.80120 0.51530 0.35290 -0.00600
C 	C 	0.10750 0.50940 0.14780 0.05000
H 	H 	0.18580 0.51790 0.14590 -0.02900
C 	C 	0.10630 0.51070 0.21030 -0.17700
H 	H 	0.18180 0.52120 0.24930 0.08200
C 	C 	0.99390 0.49670 0.21490 0.08700
C 	C 	0.88120 0.48130 0.15440 -0.15100
H 	H 	0.80270 0.47170 0.15520 0.07500
C 	C 	0.89100 0.48100 0.09380 0.08000
H 	H 	0.81850 0.46970 0.05420 -0.04600
C 	C 	0.58290 0.66150 0.27720 0.06500
H 	H 	0.62970 0.68090 0.31490 0.01600
C 	C 	0.58340 0.61290 0.28840 -0.12500
H 	H 	0.63070 0.60020 0.33220 0.07800
C 	C 	0.50960 0.58450 0.23090 0.04200
C 	C 	0.44670 0.60430 0.16660 -0.12800
H 	H 	0.40060 0.58590 0.12770 0.05100
C 	C 	0.45370 0.65320 0.16080 0.06300
H 	H 	0.41140 0.66660 0.11730 -0.02900
C 	C 	0.49450 0.45430 0.20370 0.08000
H 	H 	0.49210 0.43360 0.17050 -0.01200
C 	C 	0.49900 0.50150 0.19260 -0.15000
H 	H 	0.49780 0.51190 0.15230 0.06400
C 	C 	0.50510 0.53330 0.24080 0.05600
C 	C 	0.50210 0.51580 0.29850 -0.13600
H 	H 	0.50440 0.53600 0.33210 0.06700
C 	C 	0.49570 0.46740 0.30660 0.06200
H 	H 	0.49280 0.45600 0.34550 -0.02000
C 	C 	0.80040 0.75330 0.25390 0.03400
H 	H 	0.79920 0.75610 0.29580 0.02800
C 	C 	0.92270 0.75230 0.25440 -0.05300
H 	H 	0.00120 0.75520 0.29590 0.02300
C 	C 	0.93080 0.74710 0.19510 0.04400
C 	C 	0.80820 0.74360 0.13360 -0.12800
H 	H 	0.80750 0.73980 0.09140 0.06700
C 	C 	0.68750 0.74600 0.13810 0.07700
H 	H 	0.60680 0.74440 0.09750 -0.03200
C 	C 	0.30640 0.73860 0.25450 0.06900
H 	H 	0.38420 0.73360 0.29570 -0.00300
C 	C 	0.18420 0.73810 0.25330 -0.14300
H 	H 	0.18000 0.73270 0.29400 0.06500
C 	C 	0.06690 0.74550 0.19410 0.06700
C 	C 	0.07610 0.75370 0.13450 -0.21400
H 	H 	0.99890 0.75970 0.09350 0.12100
C 	C 	0.20010 0.75300 0.13640 0.11100
H 	H 	0.20460 0.75730 0.09560 -0.03500
C 	C 	0.78970 0.88060 0.27650 0.08900
H 	H 	0.78440 0.88600 0.31690 -0.00700
C 	C 	0.91580 0.88060 0.27900 -0.14600
H 	H 	0.99300 0.88540 0.32050 0.08900
C 	C 	0.92590 0.87350 0.21880 0.08900
C 	C 	0.80490 0.86710 0.15780 -0.15000
H 	H 	0.80620 0.86320 0.11620 0.07800
C 	C 	0.68320 0.86680 0.16040 0.08400
H 	H 	0.60380 0.86190 0.12000 -0.02700
C 	C 	0.29850 0.85810 0.27480 0.06400
H 	H 	0.37650 0.85080 0.31480 0.00500
C 	C 	0.17560 0.85970 0.27700 -0.12200
H 	H 	0.17140 0.85260 0.31720 0.05900
C 	C 	0.05930 0.87220 0.21740 0.04300
C 	C 	0.07130 0.88140 0.15930 -0.19200
H 	H 	0.99550 0.88880 0.11840 0.11400
C 	C 	0.19830 0.87940 0.16200 0.11000
H 	H 	0.20540 0.88760 0.12290 -0.03100
Cu	Cu	0.50284 0.74868 0.70090 0.89100
Cu	Cu	0.49436 0.63262 0.71978 0.89200
O 	O 	0.89170 0.94140 0.97710 -0.36500
O 	O 	0.03990 0.89080 0.97540 -0.28900
O 	O 	0.82210 0.73630 0.94320 -0.23500
O 	O 	0.60630 0.73262 0.81220 -0.38400
O 	O 	0.58970 0.65543 0.82540 -0.39200
O 	O 	0.45910 0.68696 0.66130 -0.44900
N 	N 	0.99210 0.00190 0.90820 -0.21100
N 	N 	0.99960 0.00370 0.58990 -0.25700
N 	N 	0.51870 0.81910 0.71520 -0.22500
N 	N 	0.49360 0.06310 0.75910 -0.21000
N 	N 	0.68120 0.74950 0.69620 -0.21600
N 	N 	0.31620 0.75360 0.69530 -0.22700
N 	N 	0.67610 0.62670 0.71880 -0.22500
N 	N 	0.30830 0.63340 0.71700 -0.22500
C 	C 	0.93130 0.90140 0.97460 0.28700
C 	C 	0.83470 0.86100 0.96590 0.15500
C 	C 	0.71120 0.87040 0.96820 -0.37900
H 	H 	0.68960 0.90080 0.97420 0.16800
C 	C 	0.62330 0.83370 0.96150 0.50600
C 	C 	0.66130 0.78860 0.95240 -0.51600
H 	H 	0.60330 0.76400 0.94710 0.21000
C 	C 	0.77620 0.77950 0.95090 0.39400
C 	C 	0.86510 0.81590 0.95810 -0.31200
H 	H 	0.94590 0.80940 0.95760 0.16900
C 	C 	0.49200 0.84400 0.96230 -1.06200
H 	H 	0.42060 0.84570 0.91590 0.33700
H 	H 	0.47290 0.81960 0.98640 0.34400
H 	H 	0.49890 0.87320 0.98500 0.34400
C 	C 	0.72990 0.69740 0.92450 -0.14800
H 	H 	0.78090 0.66850 0.93810 0.09000
H 	H 	0.67730 0.69970 0.94910 0.07500
C 	C 	0.63340 0.69620 0.84620 0.36200
C 	C 	0.10470 0.01230 0.90340 0.05300
H 	H 	0.18320 0.01970 0.94300 0.00000
C 	C 	0.10630 0.01220 0.84140 -0.17000
H 	H 	0.18620 0.01880 0.84000 0.07800
C 	C 	0.99190 0.00260 0.78140 0.07100
C 	C 	0.87420 0.99230 0.78600 -0.11900
H 	H 	0.79410 0.98570 0.74670 0.07900
C 	C 	0.87920 0.99200 0.84990 0.10300
H 	H 	0.80120 0.98470 0.85290 -0.00300
C 	C 	0.10750 0.99060 0.64780 0.06400
H 	H 	0.18580 0.98210 0.64590 -0.02600
C 	C 	0.10630 0.98930 0.71030 -0.14800
H 	H 	0.18180 0.97880 0.74930 0.08100
C 	C 	0.99390 0.00330 0.71490 0.06500
C 	C 	0.88120 0.01870 0.65440 -0.14300
H 	H 	0.80270 0.02830 0.65520 0.07100
C 	C 	0.89100 0.01900 0.59380 0.07300
H 	H 	0.81850 0.03030 0.55420 -0.03900
C 	C 	0.58290 0.83850 0.77720 0.07200
H 	H 	0.62970 0.81910 0.81490 0.01400
C 	C 	0.58340 0.88710 0.78840 -0.13800
H 	H 	0.63070 0.89980 0.83220 0.08300
C 	C 	0.50960 0.91550 0.73090 0.06500
C 	C 	0.44670 0.89570 0.66660 -0.14100
H 	H 	0.40060 0.91410 0.62770 0.06200
C 	C 	0.45370 0.84680 0.66080 0.07200
H 	H 	0.41140 0.83340 0.61730 -0.02600
C 	C 	0.49450 0.04570 0.70370 0.02600
H 	H 	0.49210 0.06640 0.67050 0.00500
C 	C 	0.49900 0.99850 0.69260 -0.08500
H 	H 	0.49780 0.98810 0.65230 0.05000
C 	C 	0.50510 0.96670 0.74080 0.01500
C 	C 	0.50210 0.98420 0.79850 -0.07400
H 	H 	0.50440 0.96400 0.83210 0.05200
C 	C 	0.49570 0.03260 0.80660 0.01100
H 	H 	0.49280 0.04400 0.84550 -0.00300
C 	C 	0.80040 0.74670 0.75390 0.03700
H 	H 	0.79920 0.74390 0.79580 0.02800
C 	C 	0.92270 0.74770 0.75440 -0.05700
H 	H 	0.00120 0.74480 0.79590 0.02700
C 	C 	0.93080 0.75290 0.69510 0.04700
C 	C 	0.80820 0.75640 0.63360 -0.12800
H 	H 	0.80750 0.76020 0.59140 0.07500
C 	C 	0.68750 0.75400 0.63810 0.07900
H 	H 	0.60680 0.75560 0.59750 -0.02400
C 	C 	0.30640 0.76140 0.75450 0.07000
H 	H 	0.38420 0.76640 0.79570 -0.00300
C 	C 	0.18420 0.76190 0.75330 -0.14400
H 	H 	0.18000 0.76730 0.79400 0.06700
C 	C 	0.06690 0.75450 0.69410 0.07000
C 	C 	0.07610 0.74630 0.63450 -0.21300
H 	H 	0.99890 0.74030 0.59350 0.12800
C 	C 	0.20010 0.74700 0.63640 0.11200
H 	H 	0.20460 0.74270 0.59560 -0.02900
C 	C 	0.78970 0.61940 0.77650 0.08800
H 	H 	0.78440 0.61400 0.81690 -0.00600
C 	C 	0.91580 0.61940 0.77900 -0.14700
H 	H 	0.99300 0.61460 0.82050 0.09000
C 	C 	0.92590 0.62650 0.71880 0.08900
C 	C 	0.80490 0.63290 0.65780 -0.15000
H 	H 	0.80620 0.63680 0.61620 0.08400
C 	C 	0.68320 0.63320 0.66040 0.08400
H 	H 	0.60380 0.63810 0.62000 -0.02100
C 	C 	0.29850 0.64190 0.77480 0.06400
H 	H 	0.37650 0.64920 0.81480 0.00600
C 	C 	0.17560 0.64030 0.77700 -0.12300
H 	H 	0.17140 0.64740 0.81720 0.06200
C 	C 	0.05930 0.62780 0.71740 0.04500
C 	C 	0.07130 0.61860 0.65930 -0.19400
H 	H 	0.99550 0.61120 0.61840 0.12000
C 	C 	0.19830 0.62060 0.66200 0.11000
H 	H 	0.20540 0.61240 0.62290 -0.02700
Cu	Cu	0.49716 0.24868 0.79910 0.89200
Cu	Cu	0.50564 0.13262 0.78022 0.89200
O 	O 	0.10830 0.44140 0.52290 -0.38200
O 	O 	0.96010 0.39080 0.52460 -0.23500
O 	O 	0.17790 0.23630 0.55680 -0.25300
O 	O 	0.39370 0.23262 0.68780 -0.38300
O 	O 	0.41030 0.15543 0.67460 -0.39500
O 	O 	0.54090 0.18696 0.83870 -0.44300
N 	N 	0.00790 0.50190 0.59180 -0.24300
N 	N 	0.00040 0.50370 0.91010 -0.27500
N 	N 	0.48130 0.31910 0.78480 -0.22200
N 	N 	0.50640 0.56310 0.74090 -0.22700
N 	N 	0.31880 0.24950 0.80380 -0.23100
N 	N 	0.68380 0.25360 0.80470 -0.21100
N 	N 	0.32390 0.12670 0.78120 -0.21800
N 	N 	0.69170 0.13340 0.78300 -0.21600
C 	C 	0.06870 0.40140 0.52540 0.21400
C 	C 	0.16530 0.36100 0.53410 0.16000
C 	C 	0.28880 0.37040 0.53180 -0.38100
H 	H 	0.31040 0.40080 0.52580 0.16100
C 	C 	0.37670 0.33370 0.53850 0.49400
C 	C 	0.33870 0.28860 0.54760 -0.51600
H 	H 	0.39670 0.26400 0.55290 0.20600
C 	C 	0.22380 0.27950 0.54910 0.39100
C 	C 	0.13490 0.31590 0.54190 -0.32200
H 	H 	0.05410 0.30940 0.54240 0.14900
C 	C 	0.50800 0.34400 0.53770 -1.04000
H 	H 	0.57940 0.34570 0.58410 0.33200
H 	H 	0.52710 0.31960 0.51360 0.33100
H 	H 	0.50110 0.37320 0.51500 0.32900
C 	C 	0.27010 0.19740 0.57550 -0.13400
H 	H 	0.21910 0.16850 0.56190 0.07100
H 	H 	0.32270 0.19970 0.55090 0.06300
C 	C 	0.36660 0.19620 0.65380 0.35500
C 	C 	0.89530 0.51230 0.59660 0.09300
H 	H 	0.81680 0.51970 0.55700 -0.01500
C 	C 	0.89370 0.51220 0.65860 -0.10100
H 	H 	0.81380 0.51880 0.66000 0.06500
C 	C 	0.00810 0.50260 0.71860 0.02600
C 	C 	0.12580 0.49230 0.71400 -0.12400
H 	H 	0.20590 0.48570 0.75330 0.07400
C 	C 	0.12080 0.49200 0.65010 0.06800
H 	H 	0.19880 0.48470 0.64710 -0.00200
C 	C 	0.89250 0.49060 0.85220 0.08800
H 	H 	0.81420 0.48210 0.85410 -0.02700
C 	C 	0.89370 0.48930 0.78970 -0.10100
H 	H 	0.81820 0.47880 0.75070 0.06700
C 	C 	0.00610 0.50330 0.78510 0.02400
C 	C 	0.11880 0.51870 0.84560 -0.13200
H 	H 	0.19730 0.52830 0.84480 0.07100
C 	C 	0.10900 0.51900 0.90620 0.05900
H 	H 	0.18150 0.53030 0.94580 -0.02900
C 	C 	0.41710 0.33850 0.72280 0.06500
H 	H 	0.37030 0.31910 0.68510 0.01500
C 	C 	0.41660 0.38710 0.71160 -0.12600
H 	H 	0.36930 0.39980 0.66780 0.07700
C 	C 	0.49040 0.41550 0.76910 0.04400
C 	C 	0.55330 0.39570 0.83340 -0.12600
H 	H 	0.59940 0.41410 0.87230 0.06300
C 	C 	0.54630 0.34680 0.83920 0.06600
H 	H 	0.58860 0.33340 0.88270 -0.01600
C 	C 	0.50550 0.54570 0.79630 0.08300
H 	H 	0.50790 0.56640 0.82950 -0.00700
C 	C 	0.50100 0.49850 0.80740 -0.15000
H 	H 	0.50220 0.48810 0.84770 0.07200
C 	C 	0.49490 0.46670 0.75920 0.05900
C 	C 	0.49790 0.48420 0.70150 -0.13700
H 	H 	0.49560 0.46400 0.66790 0.06900
C 	C 	0.50430 0.53260 0.69340 0.06300
H 	H 	0.50720 0.54400 0.65450 -0.02000
C 	C 	0.19960 0.24670 0.74610 0.11100
H 	H 	0.20080 0.24390 0.70420 -0.00700
C 	C 	0.07730 0.24770 0.74560 -0.21400
H 	H 	0.99880 0.24480 0.70410 0.12300
C 	C 	0.06920 0.25290 0.80490 0.07200
C 	C 	0.19180 0.25640 0.86640 -0.15300
H 	H 	0.19250 0.26020 0.90860 0.08700
C 	C 	0.31250 0.25400 0.86190 0.09500
H 	H 	0.39320 0.25560 0.90250 -0.02200
C 	C 	0.69360 0.26140 0.74550 0.05600
H 	H 	0.61580 0.26640 0.70430 0.00300
C 	C 	0.81580 0.26190 0.74670 -0.11700
H 	H 	0.82000 0.26730 0.70600 0.06500
C 	C 	0.93310 0.25450 0.80590 0.04900
C 	C 	0.92390 0.24630 0.86550 -0.05900
H 	H 	0.00110 0.24030 0.90650 0.04300
C 	C 	0.79990 0.24700 0.86360 0.04400
H 	H 	0.79540 0.24270 0.90440 0.01400
C 	C 	0.21030 0.11940 0.72350 0.06600
H 	H 	0.21560 0.11400 0.68310 -0.00800
C 	C 	0.08420 0.11940 0.72100 -0.11800
H 	H 	0.00700 0.11460 0.67950 0.05200
C 	C 	0.07410 0.12650 0.78120 0.02200
C 	C 	0.19510 0.13290 0.84220 -0.11800
H 	H 	0.19380 0.13680 0.88380 0.07500
C 	C 	0.31680 0.13320 0.83960 0.06500
H 	H 	0.39620 0.13810 0.88000 -0.00800
C 	C 	0.70150 0.14190 0.72520 0.06500
H 	H 	0.62350 0.14920 0.68520 0.00400
C 	C 	0.82440 0.14030 0.72300 -0.13100
H 	H 	0.82860 0.14740 0.68280 0.07600
C 	C 	0.94070 0.12780 0.78260 0.07500
C 	C 	0.92870 0.11860 0.84070 -0.07800
H 	H 	0.00450 0.11120 0.88160 0.04800
C 	C 	0.80170 0.12060 0.83800 0.06000
H 	H 	0.79460 0.11240 0.87710 0.00500
Cu	Cu	-0.00000 0.00000 -0.00000 0.85700
Cu	Cu	0.00000 0.50000 0.50000 0.87900
Cu	Cu	0.00000 0.00000 0.50000 0.77300
Cu	Cu	-0.00000 0.50000 -0.00000 0.76900
