data_crystal

_cell_length_a 9.16710
_cell_length_b 15.52000
_cell_length_c 22.19900
_cell_angle_alpha 102.89000
_cell_angle_beta  101.79000
_cell_angle_gamma 104.14000

_symmetry_space_group_name_	'P 1'
_symmetry_space_group_name_H-M	'P 1'

loop_
_symmetry_equiv_pos_as_xyz
  x,y,z

loop_
_atom_site_label
_atom_site_type_symbol
_atom_site_fract_x
_atom_site_fract_y
_atom_site_fract_z
_atom_site_charge
Ho	Ho	0.51675 0.86169 0.80353 1.86800
Ho	Ho	0.02993 0.91146 0.85606 1.82200
C 	C 	0.17090 0.87620 0.72520 0.48500
C 	C 	0.09030 0.87560 0.65950 -0.16400
C 	C 	0.92650 0.85130 0.63810 0.10300
H 	H 	0.86750 0.83490 0.66560 0.00100
C 	C 	0.85140 0.85100 0.57810 -0.17100
H 	H 	0.74270 0.83400 0.56530 0.10100
C 	C 	0.93750 0.87620 0.53560 0.13100
C 	C 	0.09520 0.89910 0.55610 0.07700
C 	C 	0.17660 0.90120 0.61770 -0.00900
H 	H 	0.28540 0.91930 0.63040 0.05200
C 	C 	0.70790 0.85040 0.45170 -0.33000
H 	H 	0.66730 0.78790 0.45320 0.16000
H 	H 	0.66620 0.89050 0.47800 0.16300
H 	H 	0.67820 0.85270 0.40820 0.16000
C 	C 	0.21960 0.89720 0.40130 0.00700
C 	C 	0.07560 0.88360 0.36140 -0.09800
H 	H 	0.98520 0.84970 0.36850 0.09100
C 	C 	0.06720 0.92140 0.30980 0.07500
H 	H 	0.96980 0.91590 0.28400 0.02300
C 	C 	0.19720 0.96540 0.29680 -0.17000
C 	C 	0.34490 0.97740 0.33730 0.06200
H 	H 	0.43580 0.00800 0.32880 0.01400
C 	C 	0.35270 0.94250 0.39050 -0.09200
H 	H 	0.44920 0.95050 0.41810 0.08400
C 	C 	0.19140 0.00580 0.23980 0.51100
C 	C 	0.21280 0.74620 0.85580 0.49700
C 	C 	0.18130 0.65360 0.86890 -0.17800
C 	C 	0.06010 0.62470 0.89620 0.07800
H 	H 	0.00250 0.66470 0.90670 0.01500
C 	C 	0.02240 0.54090 0.90800 -0.10500
H 	H 	0.94610 0.52540 0.92890 0.09200
C 	C 	0.10250 0.47880 0.88740 0.00700
C 	C 	0.22200 0.50520 0.86020 -0.09500
H 	H 	0.27640 0.46420 0.84750 0.09300
C 	C 	0.26100 0.59250 0.85190 0.07200
H 	H 	0.34340 0.61020 0.83430 0.02600
C 	C 	0.26180 0.32950 0.98020 0.09600
C 	C 	0.21190 0.26780 0.01180 -0.04400
H 	H 	0.11550 0.26120 0.02070 0.06700
C 	C 	0.30360 0.21450 0.03110 -0.14800
C 	C 	0.44300 0.22350 0.01650 0.08700
H 	H 	0.50300 0.18650 0.02830 0.00500
C 	C 	0.49700 0.28560 0.98490 -0.16000
H 	H 	0.59270 0.29020 0.97580 0.10100
C 	C 	0.40870 0.34250 0.96610 0.11800
C 	C 	0.24250 0.15280 0.06920 0.45100
C 	C 	0.59700 0.42220 0.92330 -0.32900
H 	H 	0.67360 0.46660 0.96050 0.16600
H 	H 	0.62460 0.36570 0.91430 0.15800
H 	H 	0.59420 0.44650 0.88710 0.16200
C 	C 	0.70460 0.72960 0.79010 0.40400
C 	C 	0.75430 0.64540 0.77310 -0.11000
C 	C 	0.67630 0.56450 0.78490 -0.05700
H 	H 	0.59580 0.56430 0.80460 0.07800
C 	C 	0.71770 0.48480 0.76780 0.11000
C 	C 	0.84080 0.48260 0.73810 0.10500
C 	C 	0.91660 0.56280 0.72580 -0.13500
H 	H 	0.99680 0.56280 0.70600 0.08300
C 	C 	0.87530 0.64310 0.74260 0.04500
H 	H 	0.92750 0.69620 0.73360 0.02400
C 	C 	0.98990 0.39580 0.69380 -0.29700
H 	H 	0.96130 0.41060 0.65410 0.14300
H 	H 	0.08880 0.43880 0.71990 0.14200
H 	H 	0.99800 0.33390 0.68480 0.15300
C 	C 	0.44860 0.25190 0.76500 -0.00800
C 	C 	0.32590 0.23450 0.79140 -0.09200
H 	H 	0.25660 0.26930 0.78960 0.09500
C 	C 	0.30580 0.16320 0.82120 0.07200
H 	H 	0.22180 0.14930 0.83860 0.02200
C 	C 	0.41150 0.11470 0.82440 -0.17100
C 	C 	0.53000 0.13000 0.79500 0.06500
H 	H 	0.59540 0.09270 0.79500 0.02500
C 	C 	0.55390 0.20090 0.76520 -0.08400
H 	H 	0.63580 0.21320 0.74640 0.08700
C 	C 	0.39100 0.03860 0.85540 0.47000
O 	O 	0.08970 0.85780 0.76250 -0.49500
O 	O 	0.31640 0.89230 0.73800 -0.51200
O 	O 	0.87780 0.88070 0.47550 -0.12000
O 	O 	0.18820 0.92930 0.51620 -0.23000
O 	O 	0.10830 0.76610 0.45250 -0.24300
O 	O 	0.38660 0.85550 0.49410 -0.25700
O 	O 	0.05980 0.00420 0.21010 -0.50500
O 	O 	0.31640 0.03630 0.22750 -0.55600
O 	O 	0.13830 0.79950 0.87650 -0.50700
O 	O 	0.31480 0.76610 0.82710 -0.50700
O 	O 	0.90360 0.34930 0.91390 -0.24500
O 	O 	0.08030 0.30210 0.85370 -0.24800
O 	O 	0.18170 0.39320 0.96860 -0.24900
O 	O 	0.49890 0.00070 0.86450 -0.46200
O 	O 	0.26880 0.01610 0.87300 -0.51000
O 	O 	0.10860 0.14290 0.07600 -0.51200
O 	O 	0.33360 0.11260 0.09420 -0.50500
O 	O 	0.36440 0.38980 0.73720 -0.25900
O 	O 	0.64130 0.40500 0.78170 -0.24600
O 	O 	0.57290 0.71970 0.80040 -0.45800
O 	O 	0.44810 0.40390 0.93510 -0.12800
O 	O 	0.78980 0.80600 0.79060 -0.52300
O 	O 	0.87360 0.40160 0.72690 -0.12100
O 	O 	0.50430 0.31640 0.66960 -0.24800
S 	S 	0.22970 0.85080 0.46788 0.42700
S 	S 	0.05300 0.36940 0.90081 0.42600
S 	S 	0.47850 0.34350 0.73025 0.43800
Ho	Ho	0.48325 0.13831 0.19647 1.86700
Ho	Ho	0.97007 0.08854 0.14394 1.82100
C 	C 	0.82910 0.12380 0.27480 0.48400
C 	C 	0.90970 0.12440 0.34050 -0.16500
C 	C 	0.07350 0.14870 0.36190 0.10300
H 	H 	0.13250 0.16510 0.33440 0.00100
C 	C 	0.14860 0.14900 0.42190 -0.17100
H 	H 	0.25730 0.16600 0.43470 0.10100
C 	C 	0.06250 0.12380 0.46440 0.13100
C 	C 	0.90480 0.10090 0.44390 0.07700
C 	C 	0.82340 0.09880 0.38230 -0.00900
H 	H 	0.71460 0.08070 0.36960 0.05200
C 	C 	0.29210 0.14960 0.54830 -0.33000
H 	H 	0.33270 0.21210 0.54680 0.16000
H 	H 	0.33380 0.10950 0.52200 0.16300
H 	H 	0.32180 0.14730 0.59180 0.16000
C 	C 	0.78040 0.10280 0.59870 0.00700
C 	C 	0.92440 0.11640 0.63860 -0.09800
H 	H 	0.01480 0.15030 0.63150 0.09100
C 	C 	0.93280 0.07860 0.69020 0.07500
H 	H 	0.03020 0.08410 0.71600 0.02300
C 	C 	0.80280 0.03460 0.70320 -0.17000
C 	C 	0.65510 0.02260 0.66270 0.06200
H 	H 	0.56420 0.99200 0.67120 0.01400
C 	C 	0.64730 0.05750 0.60950 -0.09200
H 	H 	0.55080 0.04950 0.58190 0.08400
C 	C 	0.80860 0.99420 0.76020 0.51100
C 	C 	0.78720 0.25380 0.14420 0.49700
C 	C 	0.81870 0.34640 0.13110 -0.17800
C 	C 	0.93990 0.37530 0.10380 0.07800
H 	H 	0.99750 0.33530 0.09330 0.01500
C 	C 	0.97760 0.45910 0.09200 -0.10500
H 	H 	0.05390 0.47460 0.07110 0.09200
C 	C 	0.89750 0.52120 0.11260 0.00700
C 	C 	0.77800 0.49480 0.13980 -0.09500
H 	H 	0.72360 0.53580 0.15250 0.09300
C 	C 	0.73900 0.40750 0.14810 0.07200
H 	H 	0.65660 0.38980 0.16570 0.02600
C 	C 	0.73820 0.67050 0.01980 0.09600
C 	C 	0.78810 0.73220 0.98820 -0.04400
H 	H 	0.88450 0.73880 0.97930 0.06700
C 	C 	0.69640 0.78550 0.96890 -0.14800
C 	C 	0.55700 0.77650 0.98350 0.08700
H 	H 	0.49700 0.81350 0.97170 0.00500
C 	C 	0.50300 0.71440 0.01510 -0.16000
H 	H 	0.40730 0.70980 0.02420 0.10100
C 	C 	0.59130 0.65750 0.03390 0.11800
C 	C 	0.75750 0.84720 0.93080 0.45100
C 	C 	0.40300 0.57780 0.07670 -0.32900
H 	H 	0.32640 0.53340 0.03950 0.16600
H 	H 	0.37540 0.63430 0.08570 0.15800
H 	H 	0.40580 0.55350 0.11290 0.16200
C 	C 	0.29540 0.27040 0.20990 0.40400
C 	C 	0.24570 0.35460 0.22690 -0.11000
C 	C 	0.32370 0.43550 0.21510 -0.05700
H 	H 	0.40420 0.43570 0.19540 0.07800
C 	C 	0.28230 0.51520 0.23220 0.11000
C 	C 	0.15920 0.51740 0.26190 0.10500
C 	C 	0.08340 0.43720 0.27420 -0.13500
H 	H 	0.00320 0.43720 0.29400 0.08300
C 	C 	0.12470 0.35690 0.25740 0.04500
H 	H 	0.07250 0.30380 0.26640 0.02400
C 	C 	0.01010 0.60420 0.30620 -0.29700
H 	H 	0.03870 0.58940 0.34590 0.14300
H 	H 	0.91120 0.56120 0.28010 0.14200
H 	H 	0.00200 0.66610 0.31520 0.15300
C 	C 	0.55140 0.74810 0.23500 -0.00800
C 	C 	0.67410 0.76550 0.20860 -0.09200
H 	H 	0.74340 0.73070 0.21040 0.09500
C 	C 	0.69420 0.83680 0.17880 0.07200
H 	H 	0.77820 0.85070 0.16140 0.02200
C 	C 	0.58850 0.88530 0.17560 -0.17100
C 	C 	0.47000 0.87000 0.20500 0.06500
H 	H 	0.40460 0.90730 0.20500 0.02500
C 	C 	0.44610 0.79910 0.23480 -0.08400
H 	H 	0.36420 0.78680 0.25360 0.08700
C 	C 	0.60900 0.96140 0.14460 0.47000
O 	O 	0.91030 0.14220 0.23750 -0.49500
O 	O 	0.68360 0.10770 0.26200 -0.51200
O 	O 	0.12220 0.11930 0.52450 -0.12000
O 	O 	0.81180 0.07070 0.48380 -0.23000
O 	O 	0.89170 0.23390 0.54750 -0.24300
O 	O 	0.61340 0.14450 0.50590 -0.25700
O 	O 	0.94020 0.99580 0.78990 -0.50500
O 	O 	0.68360 0.96370 0.77250 -0.55600
O 	O 	0.86170 0.20050 0.12350 -0.50700
O 	O 	0.68520 0.23390 0.17290 -0.50700
O 	O 	0.09640 0.65070 0.08610 -0.24500
O 	O 	0.91970 0.69790 0.14630 -0.24800
O 	O 	0.81830 0.60680 0.03140 -0.24900
O 	O 	0.50110 0.99930 0.13550 -0.46200
O 	O 	0.73120 0.98390 0.12700 -0.51000
O 	O 	0.89140 0.85710 0.92400 -0.51200
O 	O 	0.66640 0.88740 0.90580 -0.50500
O 	O 	0.63560 0.61020 0.26280 -0.25900
O 	O 	0.35870 0.59500 0.21830 -0.24600
O 	O 	0.42710 0.28030 0.19960 -0.45800
O 	O 	0.55190 0.59610 0.06490 -0.12800
O 	O 	0.21020 0.19400 0.20940 -0.52300
O 	O 	0.12640 0.59840 0.27310 -0.12100
O 	O 	0.49570 0.68360 0.33040 -0.24800
S 	S 	0.77030 0.14920 0.53212 0.42700
S 	S 	0.94700 0.63060 0.09919 0.42600
S 	S 	0.52150 0.65650 0.26975 0.43800
