data_crystal

_cell_length_a 8.92000
_cell_length_b 9.17670
_cell_length_c 9.17670
_cell_angle_alpha 76.33710
_cell_angle_beta  60.92110
_cell_angle_gamma 60.92120

_symmetry_space_group_name_	'P 1'
_symmetry_space_group_name_H-M	'P 1'

loop_
_symmetry_equiv_pos_as_xyz
  x,y,z

loop_
_atom_site_label
_atom_site_type_symbol
_atom_site_fract_x
_atom_site_fract_y
_atom_site_fract_z
_atom_site_charge
K 	K 	0.50000 0.00000 -0.00000 0.46000
K 	K 	0.25000 0.50000 0.50000 0.63900
Ca	Ca	0.75000 0.50000 0.50000 1.52400
Zr	Zr	-0.00000 0.00000 -0.00000 3.06800
C 	C 	0.80240 0.21820 0.77800 0.22200
C 	C 	0.95760 0.27140 0.73820 0.42800
C 	C 	0.79860 0.78180 0.22200 0.21700
C 	C 	0.96720 0.72860 0.26180 0.43100
C 	C 	0.41960 0.77800 0.78180 0.23000
C 	C 	0.30420 0.73820 0.72860 0.31200
C 	C 	0.97940 0.22200 0.21820 0.69100
C 	C 	0.77100 0.26180 0.27140 0.11000
O 	O 	0.79640 0.10440 0.88600 -0.51500
O 	O 	0.05810 0.18920 0.81820 -0.73600
O 	O 	0.70050 0.28830 0.70370 -0.36500
O 	O 	0.97120 0.38450 0.63730 -0.37400
O 	O 	0.78680 0.89560 0.11400 -0.49600
O 	O 	0.06550 0.81080 0.18180 -0.75200
O 	O 	0.69250 0.71170 0.29630 -0.35800
O 	O 	0.99300 0.61550 0.36270 -0.38500
O 	O 	0.31760 0.88600 0.89560 -0.16800
O 	O 	0.12370 0.81820 0.81080 -0.42000
O 	O 	0.59580 0.70370 0.71170 -0.24900
O 	O 	0.39150 0.63730 0.61550 -0.37900
O 	O 	0.09920 0.11400 0.10440 -1.17500
O 	O 	0.75270 0.18180 0.18920 -0.78400
O 	O 	0.01120 0.29630 0.28830 -0.78100
O 	O 	0.64430 0.36270 0.38450 -0.39500
