data_crystal

_cell_length_a 9.33300
_cell_length_b 9.18300
_cell_length_c 9.16200
_cell_angle_alpha 88.45000
_cell_angle_beta  102.57000
_cell_angle_gamma 93.76000

_symmetry_space_group_name_	'P 1'
_symmetry_space_group_name_H-M	'P 1'

loop_
_symmetry_equiv_pos_as_xyz
  x,y,z

loop_
_atom_site_label
_atom_site_type_symbol
_atom_site_fract_x
_atom_site_fract_y
_atom_site_fract_z
_atom_site_charge
Al	Al	0.91240 0.06510 0.36330 2.40000
Al	Al	0.92330 0.65850 0.13100 2.39900
Al	Al	0.34480 0.87280 0.10610 2.39700
P 	P 	0.89990 0.31250 0.11920 0.79600
P 	P 	0.67820 0.88150 0.12710 0.77700
P 	P 	0.14110 0.85460 0.33110 0.70200
F 	F 	0.91920 0.88750 0.48780 -0.88300
O 	O 	0.28510 0.87910 0.27210 -0.70800
O 	O 	0.66090 0.94710 0.96970 -0.75300
O 	O 	0.76820 0.74710 0.13860 -0.74400
O 	O 	0.03540 0.30270 0.03680 -0.77400
O 	O 	0.92780 0.23770 0.26500 -0.66600
O 	O 	0.03870 0.97270 0.26790 -0.69200
O 	O 	0.07090 0.70470 0.27800 -0.73600
O 	O 	0.52230 0.82490 0.14950 -0.73600
O 	O 	0.19450 0.85420 0.50310 -0.52600
O 	O 	0.88010 0.47540 0.14080 -0.75700
O 	O 	0.73590 0.98500 0.25050 -0.67500
O 	O 	0.75920 0.25240 0.01360 -0.82100
Al	Al	0.08760 0.93490 0.63670 2.40000
Al	Al	0.07670 0.34150 0.86900 2.39900
Al	Al	0.65520 0.12720 0.89390 2.39700
P 	P 	0.10010 0.68750 0.88080 0.79600
P 	P 	0.32180 0.11850 0.87290 0.77700
P 	P 	0.85890 0.14540 0.66890 0.70200
F 	F 	0.08080 0.11250 0.51220 -0.88300
O 	O 	0.71490 0.12090 0.72790 -0.70800
O 	O 	0.33910 0.05290 0.03030 -0.75300
O 	O 	0.23180 0.25290 0.86140 -0.74400
O 	O 	0.96460 0.69730 0.96320 -0.77400
O 	O 	0.07220 0.76230 0.73500 -0.66600
O 	O 	0.96130 0.02730 0.73210 -0.69200
O 	O 	0.92910 0.29530 0.72200 -0.73600
O 	O 	0.47770 0.17510 0.85050 -0.73600
O 	O 	0.80550 0.14580 0.49690 -0.52600
O 	O 	0.11990 0.52460 0.85920 -0.75700
O 	O 	0.26410 0.01500 0.74950 -0.67500
O 	O 	0.24080 0.74760 0.98640 -0.82100
