data_crystal

_cell_length_a 10.08120
_cell_length_b 10.08120
_cell_length_c 6.19900
_cell_angle_alpha 90.00000
_cell_angle_beta  90.00000
_cell_angle_gamma 90.00000

_symmetry_space_group_name_	'P 1'
_symmetry_space_group_name_H-M	'P 1'

loop_
_symmetry_equiv_pos_as_xyz
  x,y,z

loop_
_atom_site_label
_atom_site_type_symbol
_atom_site_fract_x
_atom_site_fract_y
_atom_site_fract_z
_atom_site_charge
C 	C 	0.00310 0.09380 0.64930 0.00500
H 	H 	0.00180 0.15790 0.75700 0.03000
C 	C 	0.49690 0.40620 0.64930 0.00600
H 	H 	0.49820 0.34210 0.75700 0.03100
C 	C 	0.40620 0.00310 0.64930 0.00600
H 	H 	0.34210 0.00180 0.75700 0.03100
C 	C 	0.09380 0.49690 0.64930 0.00600
H 	H 	0.15790 0.49820 0.75700 0.03100
C 	C 	0.49690 0.09380 0.35070 0.00500
H 	H 	0.49820 0.15790 0.24300 0.02000
C 	C 	0.00310 0.40620 0.35070 0.00500
H 	H 	0.00180 0.34210 0.24300 0.02100
C 	C 	0.09380 0.00310 0.35070 0.00500
H 	H 	0.15790 0.00180 0.24300 0.02100
C 	C 	0.40620 0.49690 0.35070 0.00500
H 	H 	0.34210 0.49820 0.24300 0.02000
C 	C 	0.99690 0.90620 0.35070 0.00500
H 	H 	0.99820 0.84210 0.24300 0.02100
C 	C 	0.50310 0.59380 0.35070 0.00500
H 	H 	0.50180 0.65790 0.24300 0.02000
C 	C 	0.59380 0.99690 0.35070 0.00500
H 	H 	0.65790 0.99820 0.24300 0.02100
C 	C 	0.90620 0.50310 0.35070 0.00500
H 	H 	0.84210 0.50180 0.24300 0.02000
C 	C 	0.50310 0.90620 0.64930 0.00600
H 	H 	0.50180 0.84210 0.75700 0.03100
C 	C 	0.99690 0.59380 0.64930 0.00600
H 	H 	0.99820 0.65790 0.75700 0.03100
C 	C 	0.90620 0.99690 0.64930 0.00600
H 	H 	0.84210 0.99820 0.75700 0.03100
C 	C 	0.59380 0.50310 0.64930 0.00600
H 	H 	0.65790 0.50180 0.75700 0.03100
Co	Co	0.25000 0.25000 0.50000 1.14900
Co	Co	0.75000 0.75000 0.50000 1.14900
N 	N 	0.09850 0.09850 0.50000 -0.20400
N 	N 	0.40150 0.40150 0.50000 -0.20400
N 	N 	0.40150 0.09850 0.50000 -0.20400
N 	N 	0.09850 0.40150 0.50000 -0.20400
N 	N 	0.90150 0.90150 0.50000 -0.20400
N 	N 	0.59850 0.59850 0.50000 -0.20400
N 	N 	0.59850 0.90150 0.50000 -0.20400
N 	N 	0.90150 0.59850 0.50000 -0.20400
O 	O 	0.25000 0.25000 0.16650 -0.37200
O 	O 	0.25000 0.25000 0.83350 -0.34800
O 	O 	0.75000 0.75000 0.83350 -0.34800
O 	O 	0.75000 0.75000 0.16650 -0.37200
N 	N 	0.25000 0.25000 -0.00000 0.13800
N 	N 	0.75000 0.75000 -0.00000 0.13800
