data_crystal

_cell_length_a 9.72530
_cell_length_b 9.72530
_cell_length_c 6.64580
_cell_angle_alpha 90.00000
_cell_angle_beta  90.00000
_cell_angle_gamma 90.00000

_symmetry_space_group_name_	'P 1'
_symmetry_space_group_name_H-M	'P 1'

loop_
_symmetry_equiv_pos_as_xyz
  x,y,z

loop_
_atom_site_label
_atom_site_type_symbol
_atom_site_fract_x
_atom_site_fract_y
_atom_site_fract_z
_atom_site_charge
C 	C 	0.00840 0.09200 0.64840 0.00000
H 	H 	0.01170 0.15480 0.75380 -0.00100
C 	C 	0.49160 0.40800 0.64840 0.00000
H 	H 	0.48830 0.34520 0.75380 -0.00100
C 	C 	0.40800 0.00840 0.64840 0.00100
H 	H 	0.34520 0.01170 0.75380 -0.00000
C 	C 	0.09200 0.49160 0.64840 0.00100
H 	H 	0.15480 0.48830 0.75380 -0.00000
C 	C 	0.49160 0.09200 0.35160 0.00100
H 	H 	0.48830 0.15480 0.24620 -0.00000
C 	C 	0.00840 0.40800 0.35160 0.00100
H 	H 	0.01170 0.34520 0.24620 -0.00000
C 	C 	0.09200 0.00840 0.35160 0.00100
H 	H 	0.15480 0.01170 0.24620 -0.00000
C 	C 	0.40800 0.49160 0.35160 0.00100
H 	H 	0.34520 0.48830 0.24620 0.00000
C 	C 	0.99160 0.90800 0.35160 0.00100
H 	H 	0.98830 0.84520 0.24620 -0.00000
C 	C 	0.50840 0.59200 0.35160 0.00100
H 	H 	0.51170 0.65480 0.24620 0.00000
C 	C 	0.59200 0.99160 0.35160 0.00100
H 	H 	0.65480 0.98830 0.24620 -0.00000
C 	C 	0.90800 0.50840 0.35160 0.00100
H 	H 	0.84520 0.51170 0.24620 -0.00000
C 	C 	0.50840 0.90800 0.64840 0.00100
H 	H 	0.51170 0.84520 0.75380 -0.00000
C 	C 	0.99160 0.59200 0.64840 0.00100
H 	H 	0.98830 0.65480 0.75380 -0.00000
C 	C 	0.90800 0.99160 0.64840 0.00100
H 	H 	0.84520 0.98830 0.75380 -0.00000
C 	C 	0.59200 0.50840 0.64840 0.00100
H 	H 	0.65480 0.51170 0.75380 0.00000
Cu	Cu	0.25000 0.25000 0.50000 0.84200
Cu	Cu	0.75000 0.75000 0.50000 0.84200
N 	N 	0.10100 0.10100 0.50000 -0.21200
N 	N 	0.39900 0.39900 0.50000 -0.21200
N 	N 	0.39900 0.10100 0.50000 -0.21200
N 	N 	0.10100 0.39900 0.50000 -0.21200
N 	N 	0.89900 0.89900 0.50000 -0.21200
N 	N 	0.60100 0.60100 0.50000 -0.21200
N 	N 	0.60100 0.89900 0.50000 -0.21200
N 	N 	0.89900 0.60100 0.50000 -0.21200
