data_crystal

_cell_length_a 6.78750
_cell_length_b 10.56150
_cell_length_c 14.21180
_cell_angle_alpha 90.00000
_cell_angle_beta  97.56700
_cell_angle_gamma 90.00000

_symmetry_space_group_name_	'P 1'
_symmetry_space_group_name_H-M	'P 1'

loop_
_symmetry_equiv_pos_as_xyz
  x,y,z

loop_
_atom_site_label
_atom_site_type_symbol
_atom_site_fract_x
_atom_site_fract_y
_atom_site_fract_z
_atom_site_charge
O 	O 	0.74750 0.58977 0.49363 -0.55300
H 	H 	0.74560 0.67840 0.48730 0.20400
N 	N 	0.66990 0.35930 0.39243 -0.13600
N 	N 	0.86600 0.38660 0.38737 -0.17700
N 	N 	0.64980 0.10840 0.11073 -0.19600
N 	N 	0.84910 0.12910 0.10904 -0.19000
C 	C 	0.57120 0.28650 0.32750 -0.01500
H 	H 	0.43700 0.26850 0.33170 0.01100
C 	C 	0.66030 0.23410 0.25120 0.01500
C 	C 	0.55810 0.15750 0.17780 -0.02500
H 	H 	0.42180 0.14170 0.17760 0.00300
C 	C 	0.95800 0.34100 0.31930 0.12900
H 	H 	0.09250 0.36120 0.31790 -0.05800
C 	C 	0.85800 0.26120 0.24700 -0.08700
C 	C 	0.94900 0.20340 0.17230 0.12100
H 	H 	0.08400 0.21930 0.16840 -0.06900
O 	O 	0.25250 0.08977 0.00637 -0.64700
H 	H 	0.25440 0.17840 0.01270 0.16800
N 	N 	0.33010 0.85930 0.10757 -0.13300
N 	N 	0.13400 0.88660 0.11263 -0.13000
N 	N 	0.35020 0.60840 0.38927 -0.17200
N 	N 	0.15090 0.62910 0.39096 -0.12800
C 	C 	0.42880 0.78650 0.17250 0.03000
H 	H 	0.56300 0.76850 0.16830 0.00800
C 	C 	0.33970 0.73410 0.24880 -0.03700
C 	C 	0.44190 0.65750 0.32220 0.02900
H 	H 	0.57820 0.64170 0.32240 0.01200
C 	C 	0.04200 0.84100 0.18070 -0.10700
H 	H 	0.90750 0.86120 0.18210 0.10000
C 	C 	0.14200 0.76120 0.25300 0.07000
C 	C 	0.05100 0.70340 0.32770 -0.10600
H 	H 	0.91600 0.71930 0.33160 0.09300
O 	O 	0.25250 0.41023 0.50637 -0.56900
H 	H 	0.25440 0.32160 0.51270 0.17000
N 	N 	0.33010 0.64070 0.60757 -0.13900
N 	N 	0.13400 0.61340 0.61263 -0.14900
N 	N 	0.35020 0.89160 0.88927 -0.11100
N 	N 	0.15090 0.87090 0.89096 -0.07500
C 	C 	0.42880 0.71350 0.67250 0.03100
H 	H 	0.56300 0.73150 0.66830 0.02500
C 	C 	0.33970 0.76590 0.74880 -0.02000
C 	C 	0.44190 0.84250 0.82220 0.03700
H 	H 	0.57820 0.85830 0.82240 0.03900
C 	C 	0.04200 0.65900 0.68070 -0.09900
H 	H 	0.90750 0.63880 0.68210 0.09000
C 	C 	0.14200 0.73880 0.75300 0.06900
C 	C 	0.05100 0.79660 0.82770 -0.08800
H 	H 	0.91600 0.78070 0.83160 0.10000
O 	O 	0.74750 0.91023 0.99363 -0.38900
H 	H 	0.74560 0.82160 0.98730 0.19700
N 	N 	0.66990 0.14070 0.89243 -0.11900
N 	N 	0.86600 0.11340 0.88737 -0.16600
N 	N 	0.64980 0.39160 0.61073 -0.16300
N 	N 	0.84910 0.37090 0.60904 -0.15900
C 	C 	0.57120 0.21350 0.82750 -0.01400
H 	H 	0.43700 0.23150 0.83170 0.03400
C 	C 	0.66030 0.26590 0.75120 0.03100
C 	C 	0.55810 0.34250 0.67780 -0.01500
H 	H 	0.42180 0.35830 0.67760 0.02300
C 	C 	0.95800 0.15900 0.81930 0.13600
H 	H 	0.09250 0.13880 0.81790 -0.05900
C 	C 	0.85800 0.23880 0.74700 -0.08600
C 	C 	0.94900 0.29660 0.67230 0.13400
H 	H 	0.08400 0.28070 0.66840 -0.06300
Cu	Cu	0.50000 0.50000 0.50000 0.89900
Cu	Cu	0.50000 0.00000 -0.00000 0.79000
Cu	Cu	0.00000 0.50000 0.50000 0.88000
Cu	Cu	-0.00000 0.00000 -0.00000 0.77100
