data_crystal

_cell_length_a 18.25120
_cell_length_b 18.25120
_cell_length_c 34.28020
_cell_angle_alpha 90.00000
_cell_angle_beta  90.00000
_cell_angle_gamma 120.00000

_symmetry_space_group_name_	'P 1'
_symmetry_space_group_name_H-M	'P 1'

loop_
_symmetry_equiv_pos_as_xyz
  x,y,z

loop_
_atom_site_label
_atom_site_type_symbol
_atom_site_fract_x
_atom_site_fract_y
_atom_site_fract_z
_atom_site_charge
O 	O 	0.56267 0.58650 0.94869 -0.41200
O 	O 	0.51966 0.62920 0.00140 -0.40500
C 	C 	0.55150 0.63910 0.96718 0.36100
C 	C 	0.57540 0.72130 0.94869 -0.10600
C 	C 	0.61050 0.74140 0.91132 0.01700
H 	H 	0.62410 0.70440 0.89890 0.03800
C 	C 	0.71000 0.80560 0.83630 -0.07000
H 	H 	0.73670 0.78350 0.85410 0.05200
C 	C 	0.73080 0.81450 0.79720 -0.03200
H 	H 	0.76960 0.79990 0.78780 0.04200
C 	C 	0.61200 0.85330 0.82340 -0.11000
H 	H 	0.56670 0.86530 0.83250 0.06300
C 	C 	0.63570 0.77750 0.78370 0.08800
O 	O 	0.41350 0.97617 0.94869 -0.41200
O 	O 	0.37080 0.89046 0.00140 -0.40600
C 	C 	0.36090 0.91240 0.96718 0.36200
C 	C 	0.27870 0.85410 0.94869 -0.10600
C 	C 	0.25860 0.86910 0.91132 0.01700
H 	H 	0.29560 0.91970 0.89890 0.03800
C 	C 	0.19440 0.90440 0.83630 -0.07000
H 	H 	0.21650 0.95320 0.85410 0.05200
C 	C 	0.18550 0.91630 0.79720 -0.03200
H 	H 	0.20010 0.96970 0.78780 0.04200
C 	C 	0.14670 0.75870 0.82340 -0.11000
H 	H 	0.13470 0.70140 0.83250 0.06200
C 	C 	0.22250 0.85820 0.78370 0.08700
O 	O 	0.02383 0.43733 0.94869 -0.41300
O 	O 	0.10954 0.48034 0.00140 -0.40600
C 	C 	0.08760 0.44850 0.96718 0.36000
C 	C 	0.14590 0.42460 0.94869 -0.10700
C 	C 	0.13090 0.38950 0.91132 0.01600
H 	H 	0.08030 0.37590 0.89890 0.03700
C 	C 	0.09560 0.29000 0.83630 -0.07100
H 	H 	0.04680 0.26330 0.85410 0.05100
C 	C 	0.08370 0.26920 0.79720 -0.03300
H 	H 	0.03030 0.23040 0.78780 0.04100
C 	C 	0.24130 0.38800 0.82340 -0.11100
H 	H 	0.29860 0.43330 0.83250 0.06200
C 	C 	0.14180 0.36430 0.78370 0.08700
O 	O 	0.43733 0.41350 0.44869 -0.41300
O 	O 	0.48034 0.37080 0.50140 -0.40600
C 	C 	0.44850 0.36090 0.46718 0.36000
C 	C 	0.42460 0.27870 0.44869 -0.10700
C 	C 	0.38950 0.25860 0.41132 0.01600
H 	H 	0.37590 0.29560 0.39890 0.03700
C 	C 	0.29000 0.19440 0.33630 -0.07100
H 	H 	0.26330 0.21650 0.35410 0.05100
C 	C 	0.26920 0.18550 0.29720 -0.03300
H 	H 	0.23040 0.20010 0.28780 0.04100
C 	C 	0.38800 0.14670 0.32340 -0.11100
H 	H 	0.43330 0.13470 0.33250 0.06200
C 	C 	0.36430 0.22250 0.28370 0.08700
O 	O 	0.58650 0.02383 0.44869 -0.41300
O 	O 	0.62920 0.10954 0.50140 -0.40600
C 	C 	0.63910 0.08760 0.46718 0.36000
C 	C 	0.72130 0.14590 0.44869 -0.10700
C 	C 	0.74140 0.13090 0.41132 0.01600
H 	H 	0.70440 0.08030 0.39890 0.03700
C 	C 	0.80560 0.09560 0.33630 -0.07100
H 	H 	0.78350 0.04680 0.35410 0.05100
C 	C 	0.81450 0.08370 0.29720 -0.03300
H 	H 	0.79990 0.03030 0.28780 0.04100
C 	C 	0.85330 0.24130 0.32340 -0.11100
H 	H 	0.86530 0.29860 0.33250 0.06200
C 	C 	0.77750 0.14180 0.28370 0.08700
O 	O 	0.97617 0.56267 0.44869 -0.41300
O 	O 	0.89046 0.51966 0.50140 -0.40600
C 	C 	0.91240 0.55150 0.46718 0.36000
C 	C 	0.85410 0.57540 0.44869 -0.10700
C 	C 	0.86910 0.61050 0.41132 0.01600
H 	H 	0.91970 0.62410 0.39890 0.03700
C 	C 	0.90440 0.71000 0.33630 -0.07100
H 	H 	0.95320 0.73670 0.35410 0.05100
C 	C 	0.91630 0.73080 0.29720 -0.03300
H 	H 	0.96970 0.76960 0.28780 0.04100
C 	C 	0.75870 0.61200 0.32340 -0.11100
H 	H 	0.70140 0.56670 0.33250 0.06200
C 	C 	0.85820 0.63570 0.28370 0.08700
O 	O 	0.58650 0.56267 0.05131 -0.41300
O 	O 	0.62920 0.51966 0.99860 -0.40600
C 	C 	0.63910 0.55150 0.03282 0.36000
C 	C 	0.72130 0.57540 0.05131 -0.10700
C 	C 	0.74140 0.61050 0.08868 0.01600
H 	H 	0.70440 0.62410 0.10110 0.03700
C 	C 	0.80560 0.71000 0.16370 -0.07100
H 	H 	0.78350 0.73670 0.14590 0.05100
C 	C 	0.81450 0.73080 0.20280 -0.03300
H 	H 	0.79990 0.76960 0.21220 0.04100
C 	C 	0.85330 0.61200 0.17660 -0.11100
H 	H 	0.86530 0.56670 0.16750 0.06200
C 	C 	0.77750 0.63570 0.21630 0.08700
O 	O 	0.97617 0.41350 0.05131 -0.41300
O 	O 	0.89046 0.37080 0.99860 -0.40700
C 	C 	0.91240 0.36090 0.03282 0.36100
C 	C 	0.85410 0.27870 0.05131 -0.10700
C 	C 	0.86910 0.25860 0.08868 0.01600
H 	H 	0.91970 0.29560 0.10110 0.03700
C 	C 	0.90440 0.19440 0.16370 -0.07100
H 	H 	0.95320 0.21650 0.14590 0.05100
C 	C 	0.91630 0.18550 0.20280 -0.03300
H 	H 	0.96970 0.20010 0.21220 0.04100
C 	C 	0.75870 0.14670 0.17660 -0.11100
H 	H 	0.70140 0.13470 0.16750 0.06200
C 	C 	0.85820 0.22250 0.21630 0.08700
O 	O 	0.43733 0.02383 0.05131 -0.41300
O 	O 	0.48034 0.10954 0.99860 -0.40600
C 	C 	0.44850 0.08760 0.03282 0.36000
C 	C 	0.42460 0.14590 0.05131 -0.10700
C 	C 	0.38950 0.13090 0.08868 0.01600
H 	H 	0.37590 0.08030 0.10110 0.03700
C 	C 	0.29000 0.09560 0.16370 -0.07100
H 	H 	0.26330 0.04680 0.14590 0.05100
C 	C 	0.26920 0.08370 0.20280 -0.03300
H 	H 	0.23040 0.03030 0.21220 0.04100
C 	C 	0.38800 0.24130 0.17660 -0.11100
H 	H 	0.43330 0.29860 0.16750 0.06200
C 	C 	0.36430 0.14180 0.21630 0.08700
O 	O 	0.41350 0.43733 0.55131 -0.41300
O 	O 	0.37080 0.48034 0.49860 -0.40600
C 	C 	0.36090 0.44850 0.53282 0.36000
C 	C 	0.27870 0.42460 0.55131 -0.10700
C 	C 	0.25860 0.38950 0.58868 0.01600
H 	H 	0.29560 0.37590 0.60110 0.03700
C 	C 	0.19440 0.29000 0.66370 -0.07100
H 	H 	0.21650 0.26330 0.64590 0.05100
C 	C 	0.18550 0.26920 0.70280 -0.03300
H 	H 	0.20010 0.23040 0.71220 0.04100
C 	C 	0.14670 0.38800 0.67660 -0.11100
H 	H 	0.13470 0.43330 0.66750 0.06200
C 	C 	0.22250 0.36430 0.71630 0.08700
O 	O 	0.02383 0.58650 0.55131 -0.41300
O 	O 	0.10954 0.62920 0.49860 -0.40600
C 	C 	0.08760 0.63910 0.53282 0.36000
C 	C 	0.14590 0.72130 0.55131 -0.10700
C 	C 	0.13090 0.74140 0.58868 0.01600
H 	H 	0.08030 0.70440 0.60110 0.03700
C 	C 	0.09560 0.80560 0.66370 -0.07100
H 	H 	0.04680 0.78350 0.64590 0.05100
C 	C 	0.08370 0.81450 0.70280 -0.03300
H 	H 	0.03030 0.79990 0.71220 0.04100
C 	C 	0.24130 0.85330 0.67660 -0.11100
H 	H 	0.29860 0.86530 0.66750 0.06200
C 	C 	0.14180 0.77750 0.71630 0.08700
O 	O 	0.56267 0.97617 0.55131 -0.41300
O 	O 	0.51966 0.89046 0.49860 -0.40600
C 	C 	0.55150 0.91240 0.53282 0.36000
C 	C 	0.57540 0.85410 0.55131 -0.10700
C 	C 	0.61050 0.86910 0.58868 0.01600
H 	H 	0.62410 0.91970 0.60110 0.03700
C 	C 	0.71000 0.90440 0.66370 -0.07100
H 	H 	0.73670 0.95320 0.64590 0.05100
C 	C 	0.73080 0.91630 0.70280 -0.03300
H 	H 	0.76960 0.96970 0.71220 0.04100
C 	C 	0.61200 0.75870 0.67660 -0.11100
H 	H 	0.56670 0.70140 0.66750 0.06200
C 	C 	0.63570 0.85820 0.71630 0.08700
O 	O 	0.43733 0.41350 0.05131 -0.41300
O 	O 	0.48034 0.37080 0.99860 -0.40600
C 	C 	0.44850 0.36090 0.03282 0.36000
C 	C 	0.42460 0.27870 0.05131 -0.10700
C 	C 	0.38950 0.25860 0.08868 0.01600
H 	H 	0.37590 0.29560 0.10110 0.03700
C 	C 	0.29000 0.19440 0.16370 -0.07100
H 	H 	0.26330 0.21650 0.14590 0.05100
C 	C 	0.26920 0.18550 0.20280 -0.03300
H 	H 	0.23040 0.20010 0.21220 0.04100
C 	C 	0.38800 0.14670 0.17660 -0.11100
H 	H 	0.43330 0.13470 0.16750 0.06200
C 	C 	0.36430 0.22250 0.21630 0.08700
O 	O 	0.58650 0.02383 0.05131 -0.41300
O 	O 	0.62920 0.10954 0.99860 -0.40700
C 	C 	0.63910 0.08760 0.03282 0.36100
C 	C 	0.72130 0.14590 0.05131 -0.10700
C 	C 	0.74140 0.13090 0.08868 0.01600
H 	H 	0.70440 0.08030 0.10110 0.03700
C 	C 	0.80560 0.09560 0.16370 -0.07100
H 	H 	0.78350 0.04680 0.14590 0.05100
C 	C 	0.81450 0.08370 0.20280 -0.03300
H 	H 	0.79990 0.03030 0.21220 0.04100
C 	C 	0.85330 0.24130 0.17660 -0.11100
H 	H 	0.86530 0.29860 0.16750 0.06200
C 	C 	0.77750 0.14180 0.21630 0.08700
O 	O 	0.97617 0.56267 0.05131 -0.41300
O 	O 	0.89046 0.51966 0.99860 -0.40600
C 	C 	0.91240 0.55150 0.03282 0.36000
C 	C 	0.85410 0.57540 0.05131 -0.10700
C 	C 	0.86910 0.61050 0.08868 0.01600
H 	H 	0.91970 0.62410 0.10110 0.03700
C 	C 	0.90440 0.71000 0.16370 -0.07100
H 	H 	0.95320 0.73670 0.14590 0.05100
C 	C 	0.91630 0.73080 0.20280 -0.03300
H 	H 	0.96970 0.76960 0.21220 0.04100
C 	C 	0.75870 0.61200 0.17660 -0.11100
H 	H 	0.70140 0.56670 0.16750 0.06200
C 	C 	0.85820 0.63570 0.21630 0.08700
O 	O 	0.56267 0.58650 0.55131 -0.41300
O 	O 	0.51966 0.62920 0.49860 -0.40600
C 	C 	0.55150 0.63910 0.53282 0.36000
C 	C 	0.57540 0.72130 0.55131 -0.10700
C 	C 	0.61050 0.74140 0.58868 0.01600
H 	H 	0.62410 0.70440 0.60110 0.03700
C 	C 	0.71000 0.80560 0.66370 -0.07100
H 	H 	0.73670 0.78350 0.64590 0.05100
C 	C 	0.73080 0.81450 0.70280 -0.03300
H 	H 	0.76960 0.79990 0.71220 0.04100
C 	C 	0.61200 0.85330 0.67660 -0.11100
H 	H 	0.56670 0.86530 0.66750 0.06200
C 	C 	0.63570 0.77750 0.71630 0.08700
O 	O 	0.41350 0.97617 0.55131 -0.41300
O 	O 	0.37080 0.89046 0.49860 -0.40600
C 	C 	0.36090 0.91240 0.53282 0.36000
C 	C 	0.27870 0.85410 0.55131 -0.10700
C 	C 	0.25860 0.86910 0.58868 0.01600
H 	H 	0.29560 0.91970 0.60110 0.03700
C 	C 	0.19440 0.90440 0.66370 -0.07100
H 	H 	0.21650 0.95320 0.64590 0.05100
C 	C 	0.18550 0.91630 0.70280 -0.03300
H 	H 	0.20010 0.96970 0.71220 0.04100
C 	C 	0.14670 0.75870 0.67660 -0.11100
H 	H 	0.13470 0.70140 0.66750 0.06200
C 	C 	0.22250 0.85820 0.71630 0.08700
O 	O 	0.02383 0.43733 0.55131 -0.41300
O 	O 	0.10954 0.48034 0.49860 -0.40600
C 	C 	0.08760 0.44850 0.53282 0.36000
C 	C 	0.14590 0.42460 0.55131 -0.10700
C 	C 	0.13090 0.38950 0.58868 0.01600
H 	H 	0.08030 0.37590 0.60110 0.03700
C 	C 	0.09560 0.29000 0.66370 -0.07100
H 	H 	0.04680 0.26330 0.64590 0.05100
C 	C 	0.08370 0.26920 0.70280 -0.03300
H 	H 	0.03030 0.23040 0.71220 0.04100
C 	C 	0.24130 0.38800 0.67660 -0.11100
H 	H 	0.29860 0.43330 0.66750 0.06200
C 	C 	0.14180 0.36430 0.71630 0.08700
O 	O 	0.41350 0.43733 0.94869 -0.41300
O 	O 	0.37080 0.48034 0.00140 -0.40600
C 	C 	0.36090 0.44850 0.96718 0.36000
C 	C 	0.27870 0.42460 0.94869 -0.10700
C 	C 	0.25860 0.38950 0.91132 0.01600
H 	H 	0.29560 0.37590 0.89890 0.03700
C 	C 	0.19440 0.29000 0.83630 -0.07100
H 	H 	0.21650 0.26330 0.85410 0.05100
C 	C 	0.18550 0.26920 0.79720 -0.03300
H 	H 	0.20010 0.23040 0.78780 0.04100
C 	C 	0.14670 0.38800 0.82340 -0.11100
H 	H 	0.13470 0.43330 0.83250 0.06200
C 	C 	0.22250 0.36430 0.78370 0.08700
O 	O 	0.02383 0.58650 0.94869 -0.41300
O 	O 	0.10954 0.62920 0.00140 -0.40700
C 	C 	0.08760 0.63910 0.96718 0.36100
C 	C 	0.14590 0.72130 0.94869 -0.10700
C 	C 	0.13090 0.74140 0.91132 0.01600
H 	H 	0.08030 0.70440 0.89890 0.03700
C 	C 	0.09560 0.80560 0.83630 -0.07100
H 	H 	0.04680 0.78350 0.85410 0.05100
C 	C 	0.08370 0.81450 0.79720 -0.03300
H 	H 	0.03030 0.79990 0.78780 0.04100
C 	C 	0.24130 0.85330 0.82340 -0.11100
H 	H 	0.29860 0.86530 0.83250 0.06200
C 	C 	0.14180 0.77750 0.78370 0.08700
O 	O 	0.56267 0.97617 0.94869 -0.41300
O 	O 	0.51966 0.89046 0.00140 -0.40600
C 	C 	0.55150 0.91240 0.96718 0.36000
C 	C 	0.57540 0.85410 0.94869 -0.10700
C 	C 	0.61050 0.86910 0.91132 0.01600
H 	H 	0.62410 0.91970 0.89890 0.03700
C 	C 	0.71000 0.90440 0.83630 -0.07100
H 	H 	0.73670 0.95320 0.85410 0.05100
C 	C 	0.73080 0.91630 0.79720 -0.03300
H 	H 	0.76960 0.96970 0.78780 0.04100
C 	C 	0.61200 0.75870 0.82340 -0.11100
H 	H 	0.56670 0.70140 0.83250 0.06200
C 	C 	0.63570 0.85820 0.78370 0.08700
O 	O 	0.58650 0.56267 0.44869 -0.41300
O 	O 	0.62920 0.51966 0.50140 -0.40600
C 	C 	0.63910 0.55150 0.46718 0.36000
C 	C 	0.72130 0.57540 0.44869 -0.10700
C 	C 	0.74140 0.61050 0.41132 0.01600
H 	H 	0.70440 0.62410 0.39890 0.03700
C 	C 	0.80560 0.71000 0.33630 -0.07100
H 	H 	0.78350 0.73670 0.35410 0.05100
C 	C 	0.81450 0.73080 0.29720 -0.03300
H 	H 	0.79990 0.76960 0.28780 0.04100
C 	C 	0.85330 0.61200 0.32340 -0.11100
H 	H 	0.86530 0.56670 0.33250 0.06200
C 	C 	0.77750 0.63570 0.28370 0.08700
O 	O 	0.97617 0.41350 0.44869 -0.41300
O 	O 	0.89046 0.37080 0.50140 -0.40600
C 	C 	0.91240 0.36090 0.46718 0.36000
C 	C 	0.85410 0.27870 0.44869 -0.10700
C 	C 	0.86910 0.25860 0.41132 0.01600
H 	H 	0.91970 0.29560 0.39890 0.03700
C 	C 	0.90440 0.19440 0.33630 -0.07100
H 	H 	0.95320 0.21650 0.35410 0.05100
C 	C 	0.91630 0.18550 0.29720 -0.03300
H 	H 	0.96970 0.20010 0.28780 0.04100
C 	C 	0.75870 0.14670 0.32340 -0.11100
H 	H 	0.70140 0.13470 0.33250 0.06200
C 	C 	0.85820 0.22250 0.28370 0.08700
O 	O 	0.43733 0.02383 0.44869 -0.41300
O 	O 	0.48034 0.10954 0.50140 -0.40600
C 	C 	0.44850 0.08760 0.46718 0.36000
C 	C 	0.42460 0.14590 0.44869 -0.10700
C 	C 	0.38950 0.13090 0.41132 0.01600
H 	H 	0.37590 0.08030 0.39890 0.03700
C 	C 	0.29000 0.09560 0.33630 -0.07100
H 	H 	0.26330 0.04680 0.35410 0.05100
C 	C 	0.26920 0.08370 0.29720 -0.03300
H 	H 	0.23040 0.03030 0.28780 0.04100
C 	C 	0.38800 0.24130 0.32340 -0.11100
H 	H 	0.43330 0.29860 0.33250 0.06200
C 	C 	0.36430 0.14180 0.28370 0.08700
Cu	Cu	0.52528 0.47472 0.96903 0.91100
Cu	Cu	0.52528 0.05057 0.96903 0.91100
Cu	Cu	0.94943 0.47472 0.96903 0.91100
Cu	Cu	0.47472 0.52528 0.46903 0.91100
Cu	Cu	0.47472 0.94943 0.46903 0.91100
Cu	Cu	0.05057 0.52528 0.46903 0.91100
Cu	Cu	0.47472 0.52528 0.03097 0.91100
Cu	Cu	0.05057 0.52528 0.03097 0.91100
Cu	Cu	0.47472 0.94943 0.03097 0.91100
Cu	Cu	0.52528 0.47472 0.53097 0.91100
Cu	Cu	0.94943 0.47472 0.53097 0.91100
Cu	Cu	0.52528 0.05057 0.53097 0.91100
C 	C 	0.56060 0.78030 0.96635 0.05000
H 	H 	0.53920 0.76960 0.99160 0.04500
C 	C 	0.62520 0.81260 0.89250 -0.05600
C 	C 	0.65420 0.82710 0.84892 0.11700
C 	C 	0.69240 0.84620 0.77132 -0.04700
C 	C 	0.21970 0.78030 0.96635 0.05000
H 	H 	0.23040 0.76960 0.99160 0.04500
C 	C 	0.18740 0.81260 0.89250 -0.05600
C 	C 	0.17290 0.82710 0.84892 0.11700
C 	C 	0.15380 0.84620 0.77132 -0.04700
C 	C 	0.21970 0.43940 0.96635 0.05000
H 	H 	0.23040 0.46080 0.99160 0.04500
C 	C 	0.18740 0.37480 0.89250 -0.05600
C 	C 	0.17290 0.34580 0.84892 0.11700
C 	C 	0.15380 0.30760 0.77132 -0.04700
C 	C 	0.43940 0.21970 0.46635 0.05000
H 	H 	0.46080 0.23040 0.49160 0.04500
C 	C 	0.37480 0.18740 0.39250 -0.05600
C 	C 	0.34580 0.17290 0.34892 0.11700
C 	C 	0.30760 0.15380 0.27132 -0.04700
C 	C 	0.78030 0.21970 0.46635 0.05000
H 	H 	0.76960 0.23040 0.49160 0.04500
C 	C 	0.81260 0.18740 0.39250 -0.05600
C 	C 	0.82710 0.17290 0.34892 0.11700
C 	C 	0.84620 0.15380 0.27132 -0.04700
C 	C 	0.78030 0.56060 0.46635 0.05000
H 	H 	0.76960 0.53920 0.49160 0.04500
C 	C 	0.81260 0.62520 0.39250 -0.05600
C 	C 	0.82710 0.65420 0.34892 0.11700
C 	C 	0.84620 0.69240 0.27132 -0.04700
C 	C 	0.78030 0.56060 0.03365 0.05000
H 	H 	0.76960 0.53920 0.00840 0.04500
C 	C 	0.81260 0.62520 0.10750 -0.05600
C 	C 	0.82710 0.65420 0.15108 0.11700
C 	C 	0.84620 0.69240 0.22868 -0.04700
C 	C 	0.78030 0.21970 0.03365 0.05000
H 	H 	0.76960 0.23040 0.00840 0.04500
C 	C 	0.81260 0.18740 0.10750 -0.05600
C 	C 	0.82710 0.17290 0.15108 0.11700
C 	C 	0.84620 0.15380 0.22868 -0.04700
C 	C 	0.43940 0.21970 0.03365 0.05000
H 	H 	0.46080 0.23040 0.00840 0.04500
C 	C 	0.37480 0.18740 0.10750 -0.05600
C 	C 	0.34580 0.17290 0.15108 0.11700
C 	C 	0.30760 0.15380 0.22868 -0.04700
C 	C 	0.21970 0.43940 0.53365 0.05000
H 	H 	0.23040 0.46080 0.50840 0.04500
C 	C 	0.18740 0.37480 0.60750 -0.05600
C 	C 	0.17290 0.34580 0.65108 0.11700
C 	C 	0.15380 0.30760 0.72868 -0.04700
C 	C 	0.21970 0.78030 0.53365 0.05000
H 	H 	0.23040 0.76960 0.50840 0.04500
C 	C 	0.18740 0.81260 0.60750 -0.05600
C 	C 	0.17290 0.82710 0.65108 0.11700
C 	C 	0.15380 0.84620 0.72868 -0.04700
C 	C 	0.56060 0.78030 0.53365 0.05000
H 	H 	0.53920 0.76960 0.50840 0.04500
C 	C 	0.62520 0.81260 0.60750 -0.05600
C 	C 	0.65420 0.82710 0.65108 0.11700
C 	C 	0.69240 0.84620 0.72868 -0.04700
C 	C 	0.59120 0.71360 0.75000 -0.24800
H 	H 	0.53040 0.69040 0.75000 0.09900
H 	H 	0.60430 0.66820 0.75000 0.10100
C 	C 	0.28640 0.87760 0.75000 -0.24800
H 	H 	0.30960 0.84000 0.75000 0.09900
H 	H 	0.33180 0.93610 0.75000 0.10100
C 	C 	0.12240 0.40880 0.75000 -0.24800
H 	H 	0.16000 0.46960 0.75000 0.09900
H 	H 	0.06390 0.39570 0.75000 0.10100
C 	C 	0.40880 0.28640 0.25000 -0.24800
H 	H 	0.46960 0.30960 0.25000 0.09900
H 	H 	0.39570 0.33180 0.25000 0.10100
C 	C 	0.71360 0.12240 0.25000 -0.24800
H 	H 	0.69040 0.16000 0.25000 0.09900
H 	H 	0.66820 0.06390 0.25000 0.10100
C 	C 	0.87760 0.59120 0.25000 -0.24800
H 	H 	0.84000 0.53040 0.25000 0.09900
H 	H 	0.93610 0.60430 0.25000 0.10100
C 	C 	0.71360 0.59120 0.25000 -0.24800
H 	H 	0.69040 0.53040 0.25000 0.09900
H 	H 	0.66820 0.60430 0.25000 0.10100
C 	C 	0.87760 0.28640 0.25000 -0.24800
H 	H 	0.84000 0.30960 0.25000 0.09900
H 	H 	0.93610 0.33180 0.25000 0.10100
C 	C 	0.40880 0.12240 0.25000 -0.24800
H 	H 	0.46960 0.16000 0.25000 0.09900
H 	H 	0.39570 0.06390 0.25000 0.10100
C 	C 	0.28640 0.40880 0.75000 -0.24800
H 	H 	0.30960 0.46960 0.75000 0.09900
H 	H 	0.33180 0.39570 0.75000 0.10100
C 	C 	0.12240 0.71360 0.75000 -0.24800
H 	H 	0.16000 0.69040 0.75000 0.09900
H 	H 	0.06390 0.66820 0.75000 0.10100
C 	C 	0.59120 0.87760 0.75000 -0.24800
H 	H 	0.53040 0.84000 0.75000 0.09900
H 	H 	0.60430 0.93610 0.75000 0.10100
