data_crystal

_cell_length_a 14.87200
_cell_length_b 14.87200
_cell_length_c 15.01900
_cell_angle_alpha 90.00000
_cell_angle_beta  90.00000
_cell_angle_gamma 120.00000

_symmetry_space_group_name_	'P 1'
_symmetry_space_group_name_H-M	'P 1'

loop_
_symmetry_equiv_pos_as_xyz
  x,y,z

loop_
_atom_site_label
_atom_site_type_symbol
_atom_site_fract_x
_atom_site_fract_y
_atom_site_fract_z
_atom_site_charge
Eu	Eu	0.33333 0.66666 0.25000 2.09300
Eu	Eu	0.66667 0.33334 0.25000 2.09200
Eu	Eu	0.66667 0.33334 0.75000 2.10800
Eu	Eu	0.33333 0.66666 0.75000 2.10800
Cu	Cu	0.50000 0.50000 -0.00000 0.89100
Cu	Cu	0.00000 0.50000 -0.00000 0.85800
Cu	Cu	0.50000 0.00000 -0.00000 0.85800
Cu	Cu	-0.00000 0.50000 0.50000 0.91500
Cu	Cu	0.50000 0.50000 0.50000 0.94900
Cu	Cu	0.50000 0.00000 0.50000 0.91500
H 	H 	0.79220 0.15810 0.83890 0.11800
H 	H 	0.71440 0.08840 0.76420 0.08000
H 	H 	0.36590 0.20780 0.83890 0.09800
H 	H 	0.37400 0.28560 0.76420 0.08900
H 	H 	0.84190 0.63410 0.83890 0.13500
H 	H 	0.91160 0.62600 0.76420 0.12900
H 	H 	0.20780 0.84190 0.83890 0.11600
H 	H 	0.28560 0.91160 0.76420 0.11800
H 	H 	0.63410 0.79220 0.83890 0.13600
H 	H 	0.62600 0.71440 0.76420 0.11000
H 	H 	0.15810 0.36590 0.83890 0.09900
H 	H 	0.08840 0.37400 0.76420 0.07000
H 	H 	0.63410 0.84190 0.66110 0.12000
H 	H 	0.62600 0.91160 0.73580 0.13100
H 	H 	0.15810 0.79220 0.66110 0.10200
H 	H 	0.08840 0.71440 0.73580 0.08200
H 	H 	0.20780 0.36590 0.66110 0.08200
H 	H 	0.28560 0.37400 0.73580 0.09100
H 	H 	0.36590 0.15810 0.66110 0.08300
H 	H 	0.37400 0.08840 0.73580 0.07200
H 	H 	0.84190 0.20780 0.66110 0.10000
H 	H 	0.91160 0.28560 0.73580 0.12000
H 	H 	0.79220 0.63410 0.66110 0.12100
H 	H 	0.71440 0.62600 0.73580 0.11300
H 	H 	0.20780 0.84190 0.16110 0.08000
H 	H 	0.28560 0.91160 0.23580 0.11000
H 	H 	0.63410 0.79220 0.16110 0.10100
H 	H 	0.62600 0.71440 0.23580 0.10200
H 	H 	0.15810 0.36590 0.16110 0.06100
H 	H 	0.08840 0.37400 0.23580 0.06100
H 	H 	0.79220 0.15810 0.16110 0.08200
H 	H 	0.71440 0.08840 0.23580 0.07200
H 	H 	0.36590 0.20780 0.16110 0.06100
H 	H 	0.37400 0.28560 0.23580 0.08000
H 	H 	0.84190 0.63410 0.16110 0.09900
H 	H 	0.91160 0.62600 0.23580 0.12100
H 	H 	0.36590 0.15810 0.33890 0.07700
H 	H 	0.37400 0.08840 0.26420 0.06000
H 	H 	0.84190 0.20780 0.33890 0.09500
H 	H 	0.91160 0.28560 0.26420 0.11000
H 	H 	0.79220 0.63410 0.33890 0.11600
H 	H 	0.71440 0.62600 0.26420 0.10100
H 	H 	0.63410 0.84190 0.33890 0.11400
H 	H 	0.62600 0.91160 0.26420 0.12000
H 	H 	0.15810 0.79220 0.33890 0.09700
H 	H 	0.08840 0.71440 0.26420 0.07100
H 	H 	0.20780 0.36590 0.33890 0.07600
H 	H 	0.28560 0.37400 0.26420 0.07900
C 	C 	0.12990 0.64440 0.36030 0.42100
C 	C 	0.85180 0.26570 0.69780 -0.21300
C 	C 	0.51450 0.87010 0.36030 0.43200
C 	C 	0.41390 0.14820 0.69780 -0.18900
C 	C 	0.35560 0.48550 0.36030 0.41600
C 	C 	0.73430 0.58610 0.69780 -0.22600
C 	C 	0.87010 0.35560 0.36030 0.42400
C 	C 	0.14820 0.73430 0.69780 -0.20500
C 	C 	0.48550 0.12990 0.36030 0.41300
C 	C 	0.58610 0.85180 0.69780 -0.22900
C 	C 	0.64440 0.51450 0.36030 0.43200
C 	C 	0.26570 0.41390 0.69780 -0.19400
C 	C 	0.48550 0.35560 0.13970 0.41300
C 	C 	0.58610 0.73430 0.80220 -0.22300
C 	C 	0.64440 0.12990 0.13970 0.41700
C 	C 	0.26570 0.85180 0.80220 -0.21000
C 	C 	0.87010 0.51450 0.13970 0.42900
C 	C 	0.14820 0.41390 0.80220 -0.18600
C 	C 	0.51450 0.64440 0.13970 0.42900
C 	C 	0.41390 0.26570 0.80220 -0.19100
C 	C 	0.35560 0.87010 0.13970 0.42100
C 	C 	0.73430 0.14820 0.80220 -0.20200
C 	C 	0.12990 0.48550 0.13970 0.40900
C 	C 	0.85180 0.58610 0.80220 -0.22600
C 	C 	0.87010 0.35560 0.63970 0.42800
C 	C 	0.14820 0.73430 0.30220 -0.19500
C 	C 	0.48550 0.12990 0.63970 0.41700
C 	C 	0.58610 0.85180 0.30220 -0.22000
C 	C 	0.64440 0.51450 0.63970 0.43600
C 	C 	0.26570 0.41390 0.30220 -0.18400
C 	C 	0.12990 0.64440 0.63970 0.42500
C 	C 	0.85180 0.26570 0.30220 -0.20400
C 	C 	0.51450 0.87010 0.63970 0.43600
C 	C 	0.41390 0.14820 0.30220 -0.17900
C 	C 	0.35560 0.48550 0.63970 0.42100
C 	C 	0.73430 0.58610 0.30220 -0.21700
C 	C 	0.51450 0.64440 0.86030 0.43300
C 	C 	0.41390 0.26570 0.19780 -0.18300
C 	C 	0.35560 0.87010 0.86030 0.42600
C 	C 	0.73430 0.14820 0.19780 -0.19400
C 	C 	0.12990 0.48550 0.86030 0.41500
C 	C 	0.85180 0.58610 0.19780 -0.21900
C 	C 	0.48550 0.35560 0.86030 0.41800
C 	C 	0.58610 0.73430 0.19780 -0.21600
C 	C 	0.64440 0.12990 0.86030 0.42200
C 	C 	0.26570 0.85180 0.19780 -0.20300
C 	C 	0.87010 0.51450 0.86030 0.43400
C 	C 	0.14820 0.41390 0.19780 -0.17800
O 	O 	0.19400 0.61360 0.35720 -0.47200
O 	O 	0.05090 0.60800 0.40910 -0.43600
O 	O 	0.41960 0.80600 0.35720 -0.45800
O 	O 	0.55710 0.94910 0.40910 -0.37200
O 	O 	0.38640 0.58040 0.35720 -0.46400
O 	O 	0.39200 0.44290 0.40910 -0.41500
O 	O 	0.80600 0.38640 0.35720 -0.45600
O 	O 	0.94910 0.39200 0.40910 -0.37400
O 	O 	0.58040 0.19400 0.35720 -0.47000
O 	O 	0.44290 0.05090 0.40910 -0.43800
O 	O 	0.61360 0.41960 0.35720 -0.46800
O 	O 	0.60800 0.55710 0.40910 -0.40900
O 	O 	0.58040 0.38640 0.14280 -0.48400
O 	O 	0.44290 0.39200 0.09090 -0.44700
O 	O 	0.61360 0.19400 0.14280 -0.49100
O 	O 	0.60800 0.05090 0.09090 -0.46800
O 	O 	0.80600 0.41960 0.14280 -0.47700
O 	O 	0.94910 0.55710 0.09090 -0.40300
O 	O 	0.41960 0.61360 0.14280 -0.48700
O 	O 	0.55710 0.60800 0.09090 -0.44200
O 	O 	0.38640 0.80600 0.14280 -0.47600
O 	O 	0.39200 0.94910 0.09090 -0.40600
O 	O 	0.19400 0.58040 0.14280 -0.49000
O 	O 	0.05090 0.44290 0.09090 -0.47000
O 	O 	0.80600 0.38640 0.64280 -0.46000
O 	O 	0.94910 0.39200 0.59090 -0.37600
O 	O 	0.58040 0.19400 0.64280 -0.47300
O 	O 	0.44290 0.05090 0.59090 -0.43900
O 	O 	0.61360 0.41960 0.64280 -0.47100
O 	O 	0.60800 0.55710 0.59090 -0.41000
O 	O 	0.19400 0.61360 0.64280 -0.47500
O 	O 	0.05090 0.60800 0.59090 -0.43700
O 	O 	0.41960 0.80600 0.64280 -0.46100
O 	O 	0.55710 0.94910 0.59090 -0.37300
O 	O 	0.38640 0.58040 0.64280 -0.46700
O 	O 	0.39200 0.44290 0.59090 -0.41600
O 	O 	0.41960 0.61360 0.85720 -0.44400
O 	O 	0.55710 0.60800 0.90910 -0.35400
O 	O 	0.38640 0.80600 0.85720 -0.43400
O 	O 	0.39200 0.94910 0.90910 -0.32100
O 	O 	0.19400 0.58040 0.85720 -0.44700
O 	O 	0.05090 0.44290 0.90910 -0.38200
O 	O 	0.58040 0.38640 0.85720 -0.44100
O 	O 	0.44290 0.39200 0.90910 -0.35800
O 	O 	0.61360 0.19400 0.85720 -0.44900
O 	O 	0.60800 0.05090 0.90910 -0.38000
O 	O 	0.80600 0.41960 0.85720 -0.43500
O 	O 	0.94910 0.55710 0.90910 -0.31800
O 	O 	0.76340 0.23660 0.75000 -0.24100
O 	O 	0.47320 0.23660 0.75000 -0.25200
O 	O 	0.76340 0.52680 0.75000 -0.22900
O 	O 	0.23660 0.76340 0.75000 -0.24100
O 	O 	0.52680 0.76340 0.75000 -0.22900
O 	O 	0.23660 0.47320 0.75000 -0.25200
O 	O 	0.23660 0.76340 0.25000 -0.24900
O 	O 	0.52680 0.76340 0.25000 -0.23700
O 	O 	0.23660 0.47320 0.25000 -0.26000
O 	O 	0.76340 0.23660 0.25000 -0.24800
O 	O 	0.47320 0.23660 0.25000 -0.26000
O 	O 	0.76340 0.52680 0.25000 -0.23700
