data_crystal

_cell_length_a 14.47830
_cell_length_b 14.47830
_cell_length_c 15.29300
_cell_angle_alpha 90.00000
_cell_angle_beta  90.00000
_cell_angle_gamma 120.00000

_symmetry_space_group_name_	'P 1'
_symmetry_space_group_name_H-M	'P 1'

loop_
_symmetry_equiv_pos_as_xyz
  x,y,z

loop_
_atom_site_label
_atom_site_type_symbol
_atom_site_fract_x
_atom_site_fract_y
_atom_site_fract_z
_atom_site_charge
O 	O 	0.94670 0.38650 0.08990 -0.41200
C 	C 	0.86890 0.35240 0.13810 0.43300
O 	O 	0.80580 0.38620 0.14440 -0.44100
C 	C 	0.85410 0.25990 0.19540 -0.18900
H 	H 	0.84010 0.19760 0.15910 0.07500
H 	H 	0.91870 0.28080 0.23120 0.10700
O 	O 	0.61350 0.56020 0.08990 -0.44600
C 	C 	0.64760 0.51650 0.13810 0.44200
O 	O 	0.61380 0.41960 0.14440 -0.45300
C 	C 	0.74010 0.59420 0.19540 -0.20000
H 	H 	0.80240 0.64250 0.15910 0.09800
H 	H 	0.71920 0.63790 0.23120 0.09700
O 	O 	0.43980 0.05330 0.08990 -0.47500
C 	C 	0.48350 0.13110 0.13810 0.42600
O 	O 	0.58040 0.19420 0.14440 -0.45700
C 	C 	0.40580 0.14590 0.19540 -0.17100
H 	H 	0.35750 0.15990 0.15910 0.06000
H 	H 	0.36210 0.08130 0.23120 0.05700
O 	O 	0.05330 0.61350 0.08990 -0.47200
C 	C 	0.13110 0.64760 0.13810 0.43300
O 	O 	0.19420 0.61380 0.14440 -0.45800
C 	C 	0.14590 0.74010 0.19540 -0.18400
H 	H 	0.15990 0.80240 0.15910 0.08100
H 	H 	0.08130 0.71920 0.23120 0.06700
O 	O 	0.38650 0.43980 0.08990 -0.45300
C 	C 	0.35240 0.48350 0.13810 0.42800
O 	O 	0.38620 0.58040 0.14440 -0.45000
C 	C 	0.25990 0.40580 0.19540 -0.17500
H 	H 	0.19760 0.35750 0.15910 0.05800
H 	H 	0.28080 0.36210 0.23120 0.07700
O 	O 	0.56020 0.94670 0.08990 -0.40800
C 	C 	0.51650 0.86890 0.13810 0.44000
O 	O 	0.41960 0.80580 0.14440 -0.44200
C 	C 	0.59420 0.85410 0.19540 -0.20200
H 	H 	0.64250 0.84010 0.15910 0.09500
H 	H 	0.63790 0.91870 0.23120 0.11700
O 	O 	0.38650 0.94670 0.41010 -0.37900
C 	C 	0.35240 0.86890 0.36190 0.43600
O 	O 	0.38620 0.80580 0.35560 -0.42200
C 	C 	0.25990 0.85410 0.30460 -0.18900
H 	H 	0.19760 0.84010 0.34090 0.09000
H 	H 	0.28080 0.91870 0.26880 0.10700
O 	O 	0.56020 0.61350 0.41010 -0.41300
C 	C 	0.51650 0.64760 0.36190 0.44400
O 	O 	0.41960 0.61380 0.35560 -0.43400
C 	C 	0.59420 0.74010 0.30460 -0.20000
H 	H 	0.64250 0.80240 0.34090 0.11300
H 	H 	0.63790 0.71920 0.26880 0.09700
O 	O 	0.05330 0.43980 0.41010 -0.44200
C 	C 	0.13110 0.48350 0.36190 0.42800
O 	O 	0.19420 0.58040 0.35560 -0.43800
C 	C 	0.14590 0.40580 0.30460 -0.17200
H 	H 	0.15990 0.35750 0.34090 0.07600
H 	H 	0.08130 0.36210 0.26880 0.05700
O 	O 	0.61350 0.05330 0.41010 -0.43900
C 	C 	0.64760 0.13110 0.36190 0.43500
O 	O 	0.61380 0.19420 0.35560 -0.44000
C 	C 	0.74010 0.14590 0.30460 -0.18400
H 	H 	0.80240 0.15990 0.34090 0.09600
H 	H 	0.71920 0.08130 0.26880 0.06700
O 	O 	0.43980 0.38650 0.41010 -0.41900
C 	C 	0.48350 0.35240 0.36190 0.43000
O 	O 	0.58040 0.38620 0.35560 -0.43100
C 	C 	0.40580 0.25990 0.30460 -0.17500
H 	H 	0.35750 0.19760 0.34090 0.07300
H 	H 	0.36210 0.28080 0.26880 0.07700
O 	O 	0.94670 0.56020 0.41010 -0.37600
C 	C 	0.86890 0.51650 0.36190 0.44200
O 	O 	0.80580 0.41960 0.35560 -0.42400
C 	C 	0.85410 0.59420 0.30460 -0.20200
H 	H 	0.84010 0.64250 0.34090 0.11000
H 	H 	0.91870 0.63790 0.26880 0.11700
O 	O 	0.05330 0.61350 0.91010 -0.38200
C 	C 	0.13110 0.64760 0.86190 0.43300
O 	O 	0.19420 0.61380 0.85560 -0.41600
C 	C 	0.14590 0.74010 0.80460 -0.18700
H 	H 	0.15990 0.80240 0.84090 0.11500
H 	H 	0.08130 0.71920 0.76880 0.07400
O 	O 	0.38650 0.43980 0.91010 -0.36200
C 	C 	0.35240 0.48350 0.86190 0.42900
O 	O 	0.38620 0.58040 0.85560 -0.40800
C 	C 	0.25990 0.40580 0.80460 -0.17800
H 	H 	0.19760 0.35750 0.84090 0.09400
H 	H 	0.28080 0.36210 0.76880 0.08500
O 	O 	0.56020 0.94670 0.91010 -0.32100
C 	C 	0.51650 0.86890 0.86190 0.44100
O 	O 	0.41960 0.80580 0.85560 -0.40100
C 	C 	0.59420 0.85410 0.80460 -0.20400
H 	H 	0.64250 0.84010 0.84090 0.12900
H 	H 	0.63790 0.91870 0.76880 0.12400
O 	O 	0.94670 0.38650 0.91010 -0.32400
C 	C 	0.86890 0.35240 0.86190 0.43400
O 	O 	0.80580 0.38620 0.85560 -0.39900
C 	C 	0.85410 0.25990 0.80460 -0.19200
H 	H 	0.84010 0.19760 0.84090 0.11000
H 	H 	0.91870 0.28080 0.76880 0.11400
O 	O 	0.61350 0.56020 0.91010 -0.35600
C 	C 	0.64760 0.51650 0.86190 0.44200
O 	O 	0.61380 0.41960 0.85560 -0.41100
C 	C 	0.74010 0.59420 0.80460 -0.20300
H 	H 	0.80240 0.64250 0.84090 0.13200
H 	H 	0.71920 0.63790 0.76880 0.10400
O 	O 	0.43980 0.05330 0.91010 -0.38500
C 	C 	0.48350 0.13110 0.86190 0.42700
O 	O 	0.58040 0.19420 0.85560 -0.41500
C 	C 	0.40580 0.14590 0.80460 -0.17500
H 	H 	0.35750 0.15990 0.84090 0.09600
H 	H 	0.36210 0.08130 0.76880 0.06500
O 	O 	0.61350 0.05330 0.58990 -0.44000
C 	C 	0.64760 0.13110 0.63810 0.43800
O 	O 	0.61380 0.19420 0.64440 -0.44200
C 	C 	0.74010 0.14590 0.69540 -0.19000
H 	H 	0.80240 0.15990 0.65910 0.10000
H 	H 	0.71920 0.08130 0.73120 0.07600
O 	O 	0.43980 0.38650 0.58990 -0.42000
C 	C 	0.48350 0.35240 0.63810 0.43300
O 	O 	0.58040 0.38620 0.64440 -0.43400
C 	C 	0.40580 0.25990 0.69540 -0.18100
H 	H 	0.35750 0.19760 0.65910 0.07800
H 	H 	0.36210 0.28080 0.73120 0.08600
O 	O 	0.94670 0.56020 0.58990 -0.37700
C 	C 	0.86890 0.51650 0.63810 0.44500
O 	O 	0.80580 0.41960 0.64440 -0.42600
C 	C 	0.85410 0.59420 0.69540 -0.20700
H 	H 	0.84010 0.64250 0.65910 0.11400
H 	H 	0.91870 0.63790 0.73120 0.12500
O 	O 	0.38650 0.94670 0.58990 -0.38000
C 	C 	0.35240 0.86890 0.63810 0.43800
O 	O 	0.38620 0.80580 0.64440 -0.42500
C 	C 	0.25990 0.85410 0.69540 -0.19500
H 	H 	0.19760 0.84010 0.65910 0.09400
H 	H 	0.28080 0.91870 0.73120 0.11500
O 	O 	0.56020 0.61350 0.58990 -0.41300
C 	C 	0.51650 0.64760 0.63810 0.44600
O 	O 	0.41960 0.61380 0.64440 -0.43600
C 	C 	0.59420 0.74010 0.69540 -0.20600
H 	H 	0.64250 0.80240 0.65910 0.11700
H 	H 	0.63790 0.71920 0.73120 0.10600
O 	O 	0.05330 0.43980 0.58990 -0.44300
C 	C 	0.13110 0.48350 0.63810 0.43100
O 	O 	0.19420 0.58040 0.64440 -0.44100
C 	C 	0.14590 0.40580 0.69540 -0.17800
H 	H 	0.15990 0.35750 0.65910 0.08000
H 	H 	0.08130 0.36210 0.73120 0.06600
Gd	Gd	0.66667 0.33333 0.25000 1.73500
Gd	Gd	0.33333 0.66667 0.25000 1.73500
Gd	Gd	0.33333 0.66667 0.75000 1.74700
Gd	Gd	0.66667 0.33333 0.75000 1.74700
Cu	Cu	-0.00000 0.50000 -0.00000 0.85400
Cu	Cu	0.50000 0.50000 -0.00000 0.88700
Cu	Cu	0.50000 0.00000 -0.00000 0.85400
Cu	Cu	0.50000 0.00000 0.50000 0.91100
Cu	Cu	0.50000 0.50000 0.50000 0.94500
Cu	Cu	-0.00000 0.50000 0.50000 0.91100
O 	O 	0.76480 0.23520 0.25000 -0.22200
O 	O 	0.76480 0.52960 0.25000 -0.21200
O 	O 	0.47040 0.23520 0.25000 -0.23200
O 	O 	0.23520 0.76480 0.25000 -0.22200
O 	O 	0.23520 0.47040 0.25000 -0.23200
O 	O 	0.52960 0.76480 0.25000 -0.21200
O 	O 	0.23520 0.76480 0.75000 -0.21600
O 	O 	0.23520 0.47040 0.75000 -0.22600
O 	O 	0.52960 0.76480 0.75000 -0.20600
O 	O 	0.76480 0.23520 0.75000 -0.21600
O 	O 	0.76480 0.52960 0.75000 -0.20600
O 	O 	0.47040 0.23520 0.75000 -0.22600
