data_crystal

_cell_length_a 7.62100
_cell_length_b 9.63400
_cell_length_c 10.50000
_cell_angle_alpha 106.40900
_cell_angle_beta  105.27300
_cell_angle_gamma 100.88000

_symmetry_space_group_name_	'P 1'
_symmetry_space_group_name_H-M	'P 1'

loop_
_symmetry_equiv_pos_as_xyz
  x,y,z

loop_
_atom_site_label
_atom_site_type_symbol
_atom_site_fract_x
_atom_site_fract_y
_atom_site_fract_z
_atom_site_charge
Ho	Ho	0.75333 0.96738 0.54823 1.82300
Ho	Ho	0.24667 0.03262 0.45177 1.82300
H 	H 	0.53790 0.80040 0.04820 0.18100
H 	H 	0.81580 0.48880 0.96380 0.18400
H 	H 	0.54840 0.62280 0.65400 0.19000
H 	H 	0.36380 0.87600 0.87750 0.19500
H 	H 	0.26140 0.73670 0.73290 0.18600
H 	H 	0.63550 0.67730 0.21590 0.19800
H 	H 	0.76740 0.56840 0.19080 0.18700
H 	H 	0.85040 0.39750 0.73560 0.19600
H 	H 	0.77530 0.47070 0.62010 0.18400
H 	H 	0.46210 0.19960 0.95180 0.18000
H 	H 	0.18420 0.51120 0.03620 0.18300
H 	H 	0.45160 0.37720 0.34600 0.18900
H 	H 	0.63620 0.12400 0.12250 0.19400
H 	H 	0.73860 0.26330 0.26710 0.18600
H 	H 	0.36450 0.32270 0.78410 0.19800
H 	H 	0.23260 0.43160 0.80920 0.18700
H 	H 	0.14960 0.60250 0.26440 0.19600
H 	H 	0.22470 0.52930 0.37990 0.18400
C 	C 	0.52220 0.72610 0.84480 0.42200
C 	C 	0.57750 0.73420 0.98300 -0.48200
C 	C 	0.68850 0.64930 0.02970 0.43600
C 	C 	0.74260 0.55040 0.93350 -0.48100
C 	C 	0.69140 0.54040 0.79430 0.42300
C 	C 	0.58250 0.62850 0.74940 -0.46200
C 	C 	0.38470 0.81140 0.79420 -0.60900
C 	C 	0.44360 0.90910 0.71480 0.56800
C 	C 	0.74300 0.66330 0.18230 -0.58600
C 	C 	0.91720 0.79380 0.27500 0.48800
C 	C 	0.73990 0.42530 0.68670 -0.60300
C 	C 	0.57540 0.28580 0.60590 0.53800
C 	C 	0.47780 0.27390 0.15520 0.42200
C 	C 	0.42250 0.26580 0.01700 -0.48200
C 	C 	0.31150 0.35070 0.97030 0.43600
C 	C 	0.25740 0.44960 0.06650 -0.48100
C 	C 	0.30860 0.45960 0.20570 0.42300
C 	C 	0.41750 0.37150 0.25060 -0.46200
C 	C 	0.61530 0.18860 0.20580 -0.60900
C 	C 	0.55640 0.09090 0.28520 0.56800
C 	C 	0.25700 0.33670 0.81770 -0.58600
C 	C 	0.08280 0.20620 0.72500 0.48800
C 	C 	0.26010 0.57470 0.31330 -0.60300
C 	C 	0.42460 0.71420 0.39410 0.53800
O 	O 	0.60770 0.93180 0.70840 -0.52200
O 	O 	0.31470 0.96080 0.65540 -0.50700
O 	O 	0.04390 0.83380 0.22770 -0.44900
O 	O 	0.93670 0.86220 0.40410 -0.59600
O 	O 	0.41150 0.29620 0.55850 -0.50600
O 	O 	0.60070 0.15500 0.58340 -0.59400
O 	O 	0.39230 0.06820 0.29160 -0.52200
O 	O 	0.68530 0.03920 0.34460 -0.50700
O 	O 	0.95610 0.16620 0.77230 -0.44900
O 	O 	0.06330 0.13780 0.59590 -0.59600
O 	O 	0.58850 0.70380 0.44150 -0.50600
O 	O 	0.39930 0.84500 0.41660 -0.59400
