data_crystal

_cell_length_a 5.74200
_cell_length_b 8.55000
_cell_length_c 18.51200
_cell_angle_alpha 90.00000
_cell_angle_beta  90.00000
_cell_angle_gamma 90.00000

_symmetry_space_group_name_	'P 1'
_symmetry_space_group_name_H-M	'P 1'

loop_
_symmetry_equiv_pos_as_xyz
  x,y,z

loop_
_atom_site_label
_atom_site_type_symbol
_atom_site_fract_x
_atom_site_fract_y
_atom_site_fract_z
_atom_site_charge
Np	Np	0.49210 0.08055 0.51614 0.00800
Np	Np	0.00790 0.91945 0.01614 0.00800
Np	Np	0.50790 0.58055 0.98386 0.00800
Np	Np	0.99210 0.41945 0.48386 0.00900
H 	H 	0.86480 0.19820 0.14800 0.04600
H 	H 	0.44120 0.95840 0.13970 0.06200
H 	H 	0.93330 0.26310 0.26570 0.08400
H 	H 	0.52110 0.00980 0.25960 0.08100
H 	H 	0.63520 0.80180 0.64800 0.04600
H 	H 	0.05880 0.04160 0.63970 0.06300
H 	H 	0.56670 0.73690 0.76570 0.08500
H 	H 	0.97890 0.99020 0.75960 0.08100
H 	H 	0.13520 0.69820 0.35200 0.04600
H 	H 	0.55880 0.45840 0.36030 0.06300
H 	H 	0.06670 0.76310 0.23430 0.08400
H 	H 	0.47890 0.50980 0.24040 0.08100
H 	H 	0.36480 0.30180 0.85200 0.04600
H 	H 	0.94120 0.54160 0.86030 0.06200
H 	H 	0.43330 0.23690 0.73430 0.08500
H 	H 	0.02110 0.49020 0.74040 0.08100
C 	C 	0.99700 0.15900 0.17050 0.05900
C 	C 	0.33600 0.01740 0.16630 0.04600
C 	C 	0.04000 0.20030 0.24130 -0.07500
C 	C 	0.38880 0.05150 0.23800 -0.07300
C 	C 	0.24040 0.14900 0.27660 -0.00200
C 	C 	0.28310 0.18640 0.35420 0.27100
C 	C 	0.50300 0.84100 0.67050 0.06000
C 	C 	0.16400 0.98260 0.66630 0.04600
C 	C 	0.46000 0.79970 0.74130 -0.07600
C 	C 	0.11120 0.94850 0.73800 -0.07400
C 	C 	0.25960 0.85100 0.77660 -0.00100
C 	C 	0.21690 0.81360 0.85420 0.27100
C 	C 	0.00300 0.65900 0.32950 0.05800
C 	C 	0.66400 0.51740 0.33370 0.04500
C 	C 	0.96000 0.70030 0.25870 -0.07500
C 	C 	0.61120 0.55150 0.26200 -0.07300
C 	C 	0.75960 0.64900 0.22340 -0.00200
C 	C 	0.71690 0.68640 0.14580 0.27100
C 	C 	0.49700 0.34100 0.82950 0.06000
C 	C 	0.83600 0.48260 0.83370 0.04600
C 	C 	0.54000 0.29970 0.75870 -0.07600
C 	C 	0.88880 0.44850 0.76200 -0.07300
C 	C 	0.74040 0.35100 0.72340 -0.00200
C 	C 	0.78310 0.31360 0.64580 0.27100
N 	N 	0.13650 0.06630 0.13310 -0.08600
N 	N 	0.36350 0.93370 0.63310 -0.08600
N 	N 	0.86350 0.56630 0.36690 -0.08500
N 	N 	0.63650 0.43370 0.86690 -0.08600
O 	O 	0.42310 0.10330 0.38680 -0.18800
O 	O 	0.17830 0.30390 0.37930 -0.18600
O 	O 	0.25380 0.22090 0.52960 -0.04900
O 	O 	0.07690 0.89670 0.88680 -0.18800
O 	O 	0.32170 0.69610 0.87930 -0.18500
O 	O 	0.24620 0.77910 0.02960 -0.04800
O 	O 	0.57690 0.60330 0.11320 -0.18800
O 	O 	0.82170 0.80390 0.12070 -0.18600
O 	O 	0.74620 0.72090 0.97040 -0.04900
O 	O 	0.92310 0.39670 0.61320 -0.18800
O 	O 	0.67830 0.19610 0.62070 -0.18500
O 	O 	0.75380 0.27910 0.47040 -0.04800
