data_crystal

_cell_length_a 7.79690
_cell_length_b 8.50170
_cell_length_c 9.01790
_cell_angle_alpha 78.66900
_cell_angle_beta  68.37200
_cell_angle_gamma 83.63400

_symmetry_space_group_name_	'P 1'
_symmetry_space_group_name_H-M	'P 1'

loop_
_symmetry_equiv_pos_as_xyz
  x,y,z

loop_
_atom_site_label
_atom_site_type_symbol
_atom_site_fract_x
_atom_site_fract_y
_atom_site_fract_z
_atom_site_charge
Ba	Ba	0.40382 0.85107 0.27183 1.57500
Ba	Ba	0.59618 0.14893 0.72817 1.57500
V 	V 	0.96696 0.31852 0.88245 1.78400
V 	V 	0.03304 0.68148 0.11755 1.78400
H 	H 	0.79990 0.68300 0.71730 0.00200
H 	H 	0.98110 0.86100 0.72480 -0.03100
H 	H 	0.20010 0.31700 0.28270 0.00200
H 	H 	0.01890 0.13900 0.27520 -0.03100
C 	C 	0.05610 0.58820 0.63420 0.37100
C 	C 	0.88560 0.64180 0.76670 -0.06500
C 	C 	0.94890 0.77090 0.83310 -0.03200
C 	C 	0.78220 0.81990 0.96970 0.33100
C 	C 	0.94390 0.41180 0.36580 0.37100
C 	C 	0.11440 0.35820 0.23330 -0.06500
C 	C 	0.05110 0.22910 0.16690 -0.03200
C 	C 	0.21780 0.18010 0.03030 0.33100
O 	O 	0.12780 0.67700 0.50590 -0.49400
O 	O 	0.64070 0.88070 0.94540 -0.52900
O 	O 	0.11620 0.44330 0.67090 -0.55900
O 	O 	0.79230 0.78370 0.11120 -0.63500
O 	O 	0.81190 0.51200 0.89080 -0.48300
O 	O 	0.09230 0.71150 0.88850 -0.48700
O 	O 	0.13470 0.81560 0.15650 -0.74800
O 	O 	0.87220 0.32300 0.49410 -0.49400
O 	O 	0.35930 0.11930 0.05460 -0.52900
O 	O 	0.88380 0.55670 0.32910 -0.55900
O 	O 	0.20770 0.21630 0.88880 -0.63500
O 	O 	0.18810 0.48800 0.10920 -0.48300
O 	O 	0.90770 0.28850 0.11150 -0.48700
O 	O 	0.86530 0.18440 0.84350 -0.74800
