data_crystal

_cell_length_a 5.23520
_cell_length_b 15.43700
_cell_length_c 17.97500
_cell_angle_alpha 90.00000
_cell_angle_beta  91.78600
_cell_angle_gamma 90.00000

_symmetry_space_group_name_	'P 1'
_symmetry_space_group_name_H-M	'P 1'

loop_
_symmetry_equiv_pos_as_xyz
  x,y,z

loop_
_atom_site_label
_atom_site_type_symbol
_atom_site_fract_x
_atom_site_fract_y
_atom_site_fract_z
_atom_site_charge
Zn	Zn	0.06150 0.76500 0.69878 1.21400
Zn	Zn	0.56730 0.89155 0.74338 1.22100
Zn	Zn	0.42480 0.59512 0.69630 1.22300
Zn	Zn	0.89050 0.72522 0.93184 1.23900
P 	P 	0.53930 0.76250 0.60560 0.56000
P 	P 	0.07330 0.88570 0.83850 0.55900
P 	P 	0.93930 0.59980 0.79400 0.55500
O 	O 	0.82480 0.77810 0.61670 -0.50100
O 	O 	0.10250 0.64390 0.73270 -0.63900
O 	O 	0.40120 0.80870 0.67110 -0.64000
O 	O 	0.91710 0.85150 0.76800 -0.65800
O 	O 	0.00380 0.50390 0.79100 -0.51300
O 	O 	0.35220 0.86280 0.82700 -0.47500
O 	O 	0.02800 0.98270 0.84510 -0.48800
O 	O 	0.65910 0.61930 0.77840 -0.52000
O 	O 	0.46780 0.66860 0.60780 -0.49300
O 	O 	0.98410 0.84170 0.90820 -0.43800
O 	O 	0.02400 0.63580 0.86990 -0.46500
O 	O 	0.45110 0.80580 0.53380 -0.45900
O 	O 	0.51180 0.72540 0.90670 -0.53900
H 	H 	0.45320 0.67690 0.91380 0.25300
Zn	Zn	0.43850 0.26500 0.80122 1.21400
Zn	Zn	0.93270 0.39155 0.75662 1.21900
Zn	Zn	0.07520 0.09512 0.80370 1.22500
Zn	Zn	0.60950 0.22522 0.56816 1.24100
P 	P 	0.96070 0.26250 0.89440 0.54500
P 	P 	0.42670 0.38570 0.66150 0.55700
P 	P 	0.56070 0.09980 0.70600 0.56700
O 	O 	0.67520 0.27810 0.88330 -0.50000
O 	O 	0.39750 0.14390 0.76730 -0.64300
O 	O 	0.09880 0.30870 0.82890 -0.63300
O 	O 	0.58290 0.35150 0.73200 -0.65700
O 	O 	0.49620 0.00390 0.70900 -0.52100
O 	O 	0.14780 0.36280 0.67300 -0.47100
O 	O 	0.47200 0.48270 0.65490 -0.48800
O 	O 	0.84090 0.11930 0.72160 -0.52300
O 	O 	0.03220 0.16860 0.89220 -0.48600
O 	O 	0.51590 0.34170 0.59180 -0.43600
O 	O 	0.47600 0.13580 0.63010 -0.47000
O 	O 	0.04890 0.30580 0.96620 -0.45200
O 	O 	0.98820 0.22540 0.59330 -0.54600
H 	H 	0.04680 0.17690 0.58620 0.25900
Zn	Zn	0.93850 0.23500 0.30122 1.21500
Zn	Zn	0.43270 0.10845 0.25662 1.22200
Zn	Zn	0.57520 0.40488 0.30370 1.22400
Zn	Zn	0.10950 0.27478 0.06816 1.24000
P 	P 	0.46070 0.23750 0.39440 0.56100
P 	P 	0.92670 0.11430 0.16150 0.56000
P 	P 	0.06070 0.40020 0.20600 0.55500
O 	O 	0.17520 0.22190 0.38330 -0.50100
O 	O 	0.89750 0.35610 0.26730 -0.63900
O 	O 	0.59880 0.19130 0.32890 -0.64000
O 	O 	0.08290 0.14850 0.23200 -0.65800
O 	O 	0.99620 0.49610 0.20900 -0.51300
O 	O 	0.64780 0.13720 0.17300 -0.47500
O 	O 	0.97200 0.01730 0.15490 -0.48800
O 	O 	0.34090 0.38070 0.22160 -0.52000
O 	O 	0.53220 0.33140 0.39220 -0.49300
O 	O 	0.01590 0.15830 0.09180 -0.43800
O 	O 	0.97600 0.36420 0.13010 -0.46500
O 	O 	0.54890 0.19420 0.46620 -0.45900
O 	O 	0.48820 0.27460 0.09330 -0.53900
H 	H 	0.54680 0.32310 0.08620 0.25300
Zn	Zn	0.56150 0.73500 0.19878 1.21400
Zn	Zn	0.06730 0.60845 0.24338 1.21900
Zn	Zn	0.92480 0.90488 0.19630 1.22500
Zn	Zn	0.39050 0.77478 0.43184 1.24100
P 	P 	0.03930 0.73750 0.10560 0.54500
P 	P 	0.57330 0.61430 0.33850 0.55700
P 	P 	0.43930 0.90020 0.29400 0.56700
O 	O 	0.32480 0.72190 0.11670 -0.50000
O 	O 	0.60250 0.85610 0.23270 -0.64300
O 	O 	0.90120 0.69130 0.17110 -0.63300
O 	O 	0.41710 0.64850 0.26800 -0.65700
O 	O 	0.50380 0.99610 0.29100 -0.52100
O 	O 	0.85220 0.63720 0.32700 -0.47100
O 	O 	0.52800 0.51730 0.34510 -0.48800
O 	O 	0.15910 0.88070 0.27840 -0.52300
O 	O 	0.96780 0.83140 0.10780 -0.48600
O 	O 	0.48410 0.65830 0.40820 -0.43600
O 	O 	0.52400 0.86420 0.36990 -0.47000
O 	O 	0.95110 0.69420 0.03380 -0.45200
O 	O 	0.01180 0.77460 0.40670 -0.54600
H 	H 	0.95320 0.82310 0.41380 0.25900
