data_crystal

_cell_length_a 9.55100
_cell_length_b 9.97900
_cell_length_c 10.00000
_cell_angle_alpha 107.67000
_cell_angle_beta  97.92000
_cell_angle_gamma 114.91000

_symmetry_space_group_name_	'P 1'
_symmetry_space_group_name_H-M	'P 1'

loop_
_symmetry_equiv_pos_as_xyz
  x,y,z

loop_
_atom_site_label
_atom_site_type_symbol
_atom_site_fract_x
_atom_site_fract_y
_atom_site_fract_z
_atom_site_charge
Co	Co	0.68560 0.20660 0.15670 1.19400
Co	Co	0.86380 0.03300 0.61260 1.18400
P 	P 	0.82510 0.59930 0.27000 0.51400
P 	P 	0.84420 0.02920 0.30630 0.47700
P 	P 	0.66310 0.96950 0.83850 0.52700
O 	O 	0.65880 0.10940 0.94920 -0.43500
O 	O 	0.82300 0.15920 0.27570 -0.39300
O 	O 	0.82900 0.44130 0.21080 -0.36400
O 	O 	0.50920 0.81080 0.79660 -0.40100
O 	O 	0.75050 0.96460 0.40380 -0.37900
O 	O 	0.99350 0.73600 0.30180 -0.38700
O 	O 	0.69380 0.99960 0.70320 -0.38900
O 	O 	0.02620 0.09310 0.37420 -0.38700
O 	O 	0.69570 0.60440 0.16800 -0.19000
O 	O 	0.78100 0.61560 0.41970 -0.19500
O 	O 	0.78090 0.88220 0.15130 -0.17800
O 	O 	0.81310 0.95460 0.90830 -0.19600
Co	Co	0.31440 0.79340 0.84330 1.19300
Co	Co	0.13620 0.96700 0.38740 1.18300
P 	P 	0.17490 0.40070 0.73000 0.51300
P 	P 	0.15580 0.97080 0.69370 0.47600
P 	P 	0.33690 0.03050 0.16150 0.52700
O 	O 	0.34120 0.89060 0.05080 -0.43500
O 	O 	0.17700 0.84080 0.72430 -0.39300
O 	O 	0.17100 0.55870 0.78920 -0.36400
O 	O 	0.49080 0.18920 0.20340 -0.40100
O 	O 	0.24950 0.03540 0.59620 -0.37900
O 	O 	0.00650 0.26400 0.69820 -0.38700
O 	O 	0.30620 0.00040 0.29680 -0.38900
O 	O 	0.97380 0.90690 0.62580 -0.38700
O 	O 	0.30430 0.39560 0.83200 -0.19000
O 	O 	0.21900 0.38440 0.58030 -0.19500
O 	O 	0.21910 0.11780 0.84870 -0.17800
O 	O 	0.18690 0.04540 0.09170 -0.19600
