data_crystal

_cell_length_a 18.34800
_cell_length_b 18.34800
_cell_length_c 34.63100
_cell_angle_alpha 90.00000
_cell_angle_beta  90.00000
_cell_angle_gamma 120.00000

_symmetry_space_group_name_	'P 1'
_symmetry_space_group_name_H-M	'P 1'

loop_
_symmetry_equiv_pos_as_xyz
  x,y,z

loop_
_atom_site_label
_atom_site_type_symbol
_atom_site_fract_x
_atom_site_fract_y
_atom_site_fract_z
_atom_site_charge
O 	O 	0.70400 0.14440 0.16416 -0.44600
O 	O 	0.74480 0.10120 0.11235 -0.43800
N 	N 	0.76200 0.31120 0.24280 -0.04700
C 	C 	0.59590 0.06040 0.07392 -0.02600
H 	H 	0.63440 0.04940 0.06160 0.06700
C 	C 	0.61210 0.09240 0.11085 -0.07700
C 	C 	0.69300 0.11350 0.13075 0.37900
C 	C 	0.85250 0.38440 0.24270 0.03000
C 	C 	0.72380 0.31970 0.28030 0.02800
O 	O 	0.37067 0.47773 0.49749 -0.44600
O 	O 	0.41147 0.43453 0.44568 -0.43800
N 	N 	0.42867 0.64453 0.57613 -0.04700
C 	C 	0.26257 0.39373 0.40725 -0.02600
H 	H 	0.30107 0.38273 0.39493 0.06700
C 	C 	0.27877 0.42573 0.44418 -0.07700
C 	C 	0.35967 0.44683 0.46408 0.37900
C 	C 	0.51917 0.71773 0.57603 0.03000
C 	C 	0.39047 0.65303 0.61363 0.02800
O 	O 	0.03733 0.81107 0.83083 -0.44600
O 	O 	0.07813 0.76787 0.77902 -0.43800
N 	N 	0.09533 0.97787 0.90947 -0.04700
C 	C 	0.92923 0.72707 0.74059 -0.02600
H 	H 	0.96773 0.71607 0.72827 0.06700
C 	C 	0.94543 0.75907 0.77752 -0.07600
C 	C 	0.02633 0.78017 0.79742 0.37900
C 	C 	0.18583 0.05107 0.90937 0.03000
C 	C 	0.05713 0.98637 0.94697 0.02800
O 	O 	0.85560 0.55960 0.16416 -0.44600
O 	O 	0.89880 0.64360 0.11235 -0.43800
N 	N 	0.68880 0.45080 0.24280 -0.04700
C 	C 	0.93960 0.53550 0.07392 -0.02600
H 	H 	0.95060 0.58500 0.06160 0.06700
C 	C 	0.90760 0.51970 0.11085 -0.07700
C 	C 	0.88650 0.57950 0.13075 0.37900
C 	C 	0.61560 0.46810 0.24270 0.03000
C 	C 	0.68030 0.40410 0.28030 0.02800
O 	O 	0.52227 0.89293 0.49749 -0.44600
O 	O 	0.56547 0.97693 0.44568 -0.43800
N 	N 	0.35547 0.78413 0.57613 -0.04700
C 	C 	0.60627 0.86883 0.40725 -0.02600
H 	H 	0.61727 0.91833 0.39493 0.06700
C 	C 	0.57427 0.85303 0.44418 -0.07700
C 	C 	0.55317 0.91283 0.46408 0.37900
C 	C 	0.28227 0.80143 0.57603 0.03000
C 	C 	0.34697 0.73743 0.61363 0.02800
O 	O 	0.18893 0.22627 0.83083 -0.44600
O 	O 	0.23213 0.31027 0.77902 -0.43800
N 	N 	0.02213 0.11747 0.90947 -0.04700
C 	C 	0.27293 0.20217 0.74059 -0.02600
H 	H 	0.28393 0.25167 0.72827 0.06700
C 	C 	0.24093 0.18637 0.77752 -0.07800
C 	C 	0.21983 0.24617 0.79742 0.37800
C 	C 	0.94893 0.13477 0.90937 0.02900
C 	C 	0.01363 0.07077 0.94697 0.02700
O 	O 	0.44040 0.29600 0.16416 -0.44700
O 	O 	0.35640 0.25520 0.11235 -0.43900
N 	N 	0.54920 0.23800 0.24280 -0.04800
C 	C 	0.46450 0.40410 0.07392 -0.02700
H 	H 	0.41500 0.36560 0.06160 0.06600
C 	C 	0.48030 0.38790 0.11085 -0.07800
C 	C 	0.42050 0.30700 0.13075 0.37800
C 	C 	0.53190 0.14750 0.24270 0.02900
C 	C 	0.59590 0.27620 0.28030 0.02700
O 	O 	0.10707 0.62933 0.49749 -0.44700
O 	O 	0.02307 0.58853 0.44568 -0.43900
N 	N 	0.21587 0.57133 0.57613 -0.04800
C 	C 	0.13117 0.73743 0.40725 -0.02700
H 	H 	0.08167 0.69893 0.39493 0.06600
C 	C 	0.14697 0.72123 0.44418 -0.07800
C 	C 	0.08717 0.64033 0.46408 0.37800
C 	C 	0.19857 0.48083 0.57603 0.02900
C 	C 	0.26257 0.60953 0.61363 0.02700
O 	O 	0.77373 0.96267 0.83083 -0.44700
O 	O 	0.68973 0.92187 0.77902 -0.43900
N 	N 	0.88253 0.90467 0.90947 -0.04800
C 	C 	0.79783 0.07077 0.74059 -0.02700
H 	H 	0.74833 0.03227 0.72827 0.06600
C 	C 	0.81363 0.05457 0.77752 -0.07800
C 	C 	0.75383 0.97367 0.79742 0.37800
C 	C 	0.86523 0.81417 0.90937 0.02900
C 	C 	0.92923 0.94287 0.94697 0.02700
O 	O 	0.14440 0.70400 0.83584 -0.44700
O 	O 	0.10120 0.74480 0.88765 -0.43900
N 	N 	0.31120 0.76200 0.75720 -0.04800
C 	C 	0.06040 0.59590 0.92608 -0.02700
H 	H 	0.04940 0.63440 0.93840 0.06600
C 	C 	0.09240 0.61210 0.88915 -0.07800
C 	C 	0.11350 0.69300 0.86925 0.37800
C 	C 	0.38440 0.85250 0.75730 0.02900
C 	C 	0.31970 0.72380 0.71970 0.02700
O 	O 	0.81107 0.03733 0.16917 -0.44700
O 	O 	0.76787 0.07813 0.22098 -0.43900
N 	N 	0.97787 0.09533 0.09053 -0.04800
C 	C 	0.72707 0.92923 0.25941 -0.02700
H 	H 	0.71607 0.96773 0.27173 0.06600
C 	C 	0.75907 0.94543 0.22248 -0.07700
C 	C 	0.78017 0.02633 0.20258 0.37800
C 	C 	0.05107 0.18583 0.09063 0.02900
C 	C 	0.98637 0.05713 0.05303 0.02700
O 	O 	0.47773 0.37067 0.50251 -0.44700
O 	O 	0.43453 0.41147 0.55432 -0.43900
N 	N 	0.64453 0.42867 0.42387 -0.04800
C 	C 	0.39373 0.26257 0.59275 -0.02700
H 	H 	0.38273 0.30107 0.60507 0.06600
C 	C 	0.42573 0.27877 0.55582 -0.07800
C 	C 	0.44683 0.35967 0.53592 0.37800
C 	C 	0.71773 0.51917 0.42397 0.02900
C 	C 	0.65303 0.39047 0.38637 0.02700
O 	O 	0.55960 0.85560 0.83584 -0.44700
O 	O 	0.64360 0.89880 0.88765 -0.43900
N 	N 	0.45080 0.68880 0.75720 -0.04800
C 	C 	0.53550 0.93960 0.92608 -0.02700
H 	H 	0.58500 0.95060 0.93840 0.06600
C 	C 	0.51970 0.90760 0.88915 -0.07800
C 	C 	0.57950 0.88650 0.86925 0.37800
C 	C 	0.46810 0.61560 0.75730 0.02900
C 	C 	0.40410 0.68030 0.71970 0.02700
O 	O 	0.22627 0.18893 0.16917 -0.44700
O 	O 	0.31027 0.23213 0.22098 -0.43900
N 	N 	0.11747 0.02213 0.09053 -0.04800
C 	C 	0.20217 0.27293 0.25941 -0.02700
H 	H 	0.25167 0.28393 0.27173 0.06600
C 	C 	0.18637 0.24093 0.22248 -0.07800
C 	C 	0.24617 0.21983 0.20258 0.37800
C 	C 	0.13477 0.94893 0.09063 0.02900
C 	C 	0.07077 0.01363 0.05303 0.02700
O 	O 	0.89293 0.52227 0.50251 -0.44700
O 	O 	0.97693 0.56547 0.55432 -0.43900
N 	N 	0.78413 0.35547 0.42387 -0.04800
C 	C 	0.86883 0.60627 0.59275 -0.02700
H 	H 	0.91833 0.61727 0.60507 0.06600
C 	C 	0.85303 0.57427 0.55582 -0.07800
C 	C 	0.91283 0.55317 0.53592 0.37800
C 	C 	0.80143 0.28227 0.42397 0.02900
C 	C 	0.73743 0.34697 0.38637 0.02700
O 	O 	0.29600 0.44040 0.83584 -0.44700
O 	O 	0.25520 0.35640 0.88765 -0.43900
N 	N 	0.23800 0.54920 0.75720 -0.04800
C 	C 	0.40410 0.46450 0.92608 -0.02700
H 	H 	0.36560 0.41500 0.93840 0.06600
C 	C 	0.38790 0.48030 0.88915 -0.07800
C 	C 	0.30700 0.42050 0.86925 0.37800
C 	C 	0.14750 0.53190 0.75730 0.02900
C 	C 	0.27620 0.59590 0.71970 0.02700
O 	O 	0.96267 0.77373 0.16917 -0.44700
O 	O 	0.92187 0.68973 0.22098 -0.43900
N 	N 	0.90467 0.88253 0.09053 -0.04800
C 	C 	0.07077 0.79783 0.25941 -0.02700
H 	H 	0.03227 0.74833 0.27173 0.06600
C 	C 	0.05457 0.81363 0.22248 -0.07800
C 	C 	0.97367 0.75383 0.20258 0.37800
C 	C 	0.81417 0.86523 0.09063 0.02900
C 	C 	0.94287 0.92923 0.05303 0.02700
O 	O 	0.62933 0.10707 0.50251 -0.44700
O 	O 	0.58853 0.02307 0.55432 -0.43900
N 	N 	0.57133 0.21587 0.42387 -0.04800
C 	C 	0.73743 0.13117 0.59275 -0.02700
H 	H 	0.69893 0.08167 0.60507 0.06600
C 	C 	0.72123 0.14697 0.55582 -0.07800
C 	C 	0.64033 0.08717 0.53592 0.37800
C 	C 	0.48083 0.19857 0.42397 0.02900
C 	C 	0.60953 0.26257 0.38637 0.02700
O 	O 	0.29600 0.85560 0.83584 -0.44700
O 	O 	0.25520 0.89880 0.88765 -0.43900
N 	N 	0.23800 0.68880 0.75720 -0.04800
C 	C 	0.40410 0.93960 0.92608 -0.02700
H 	H 	0.36560 0.95060 0.93840 0.06600
C 	C 	0.38790 0.90760 0.88915 -0.07800
C 	C 	0.30700 0.88650 0.86925 0.37800
C 	C 	0.14750 0.61560 0.75730 0.02900
C 	C 	0.27620 0.68030 0.71970 0.02700
O 	O 	0.96267 0.18893 0.16917 -0.44700
O 	O 	0.92187 0.23213 0.22098 -0.43900
N 	N 	0.90467 0.02213 0.09053 -0.04800
C 	C 	0.07077 0.27293 0.25941 -0.02700
H 	H 	0.03227 0.28393 0.27173 0.06600
C 	C 	0.05457 0.24093 0.22248 -0.07700
C 	C 	0.97367 0.21983 0.20258 0.37800
C 	C 	0.81417 0.94893 0.09063 0.02900
C 	C 	0.94287 0.01363 0.05303 0.02700
O 	O 	0.62933 0.52227 0.50251 -0.44700
O 	O 	0.58853 0.56547 0.55432 -0.43900
N 	N 	0.57133 0.35547 0.42387 -0.04800
C 	C 	0.73743 0.60627 0.59275 -0.02700
H 	H 	0.69893 0.61727 0.60507 0.06600
C 	C 	0.72123 0.57427 0.55582 -0.07800
C 	C 	0.64033 0.55317 0.53592 0.37800
C 	C 	0.48083 0.28227 0.42397 0.02900
C 	C 	0.60953 0.34697 0.38637 0.02700
O 	O 	0.14440 0.44040 0.83584 -0.44700
O 	O 	0.10120 0.35640 0.88765 -0.43900
N 	N 	0.31120 0.54920 0.75720 -0.04800
C 	C 	0.06040 0.46450 0.92608 -0.02700
H 	H 	0.04940 0.41500 0.93840 0.06600
C 	C 	0.09240 0.48030 0.88915 -0.07800
C 	C 	0.11350 0.42050 0.86925 0.37800
C 	C 	0.38440 0.53190 0.75730 0.02900
C 	C 	0.31970 0.59590 0.71970 0.02700
O 	O 	0.81107 0.77373 0.16917 -0.44700
O 	O 	0.76787 0.68973 0.22098 -0.43900
N 	N 	0.97787 0.88253 0.09053 -0.04800
C 	C 	0.72707 0.79783 0.25941 -0.02700
H 	H 	0.71607 0.74833 0.27173 0.06600
C 	C 	0.75907 0.81363 0.22248 -0.07800
C 	C 	0.78017 0.75383 0.20258 0.37800
C 	C 	0.05107 0.86523 0.09063 0.02900
C 	C 	0.98637 0.92923 0.05303 0.02700
O 	O 	0.47773 0.10707 0.50251 -0.44700
O 	O 	0.43453 0.02307 0.55432 -0.43900
N 	N 	0.64453 0.21587 0.42387 -0.04800
C 	C 	0.39373 0.13117 0.59275 -0.02700
H 	H 	0.38273 0.08167 0.60507 0.06600
C 	C 	0.42573 0.14697 0.55582 -0.07800
C 	C 	0.44683 0.08717 0.53592 0.37800
C 	C 	0.71773 0.19857 0.42397 0.02900
C 	C 	0.65303 0.26257 0.38637 0.02700
O 	O 	0.55960 0.70400 0.83584 -0.44700
O 	O 	0.64360 0.74480 0.88765 -0.43900
N 	N 	0.45080 0.76200 0.75720 -0.04800
C 	C 	0.53550 0.59590 0.92608 -0.02700
H 	H 	0.58500 0.63440 0.93840 0.06600
C 	C 	0.51970 0.61210 0.88915 -0.07800
C 	C 	0.57950 0.69300 0.86925 0.37800
C 	C 	0.46810 0.85250 0.75730 0.02900
C 	C 	0.40410 0.72380 0.71970 0.02700
O 	O 	0.22627 0.03733 0.16917 -0.44700
O 	O 	0.31027 0.07813 0.22098 -0.43900
N 	N 	0.11747 0.09533 0.09053 -0.04800
C 	C 	0.20217 0.92923 0.25941 -0.02700
H 	H 	0.25167 0.96773 0.27173 0.06600
C 	C 	0.18637 0.94543 0.22248 -0.07800
C 	C 	0.24617 0.02633 0.20258 0.37800
C 	C 	0.13477 0.18583 0.09063 0.02900
C 	C 	0.07077 0.05713 0.05303 0.02700
O 	O 	0.89293 0.37067 0.50251 -0.44700
O 	O 	0.97693 0.41147 0.55432 -0.43900
N 	N 	0.78413 0.42867 0.42387 -0.04800
C 	C 	0.86883 0.26257 0.59275 -0.02700
H 	H 	0.91833 0.30107 0.60507 0.06600
C 	C 	0.85303 0.27877 0.55582 -0.07800
C 	C 	0.91283 0.35967 0.53592 0.37800
C 	C 	0.80143 0.51917 0.42397 0.02900
C 	C 	0.73743 0.39047 0.38637 0.02700
O 	O 	0.85560 0.29600 0.16416 -0.44700
O 	O 	0.89880 0.25520 0.11235 -0.43900
N 	N 	0.68880 0.23800 0.24280 -0.04800
C 	C 	0.93960 0.40410 0.07392 -0.02700
H 	H 	0.95060 0.36560 0.06160 0.06600
C 	C 	0.90760 0.38790 0.11085 -0.07800
C 	C 	0.88650 0.30700 0.13075 0.37800
C 	C 	0.61560 0.14750 0.24270 0.02900
C 	C 	0.68030 0.27620 0.28030 0.02700
O 	O 	0.52227 0.62933 0.49749 -0.44700
O 	O 	0.56547 0.58853 0.44568 -0.43900
N 	N 	0.35547 0.57133 0.57613 -0.04800
C 	C 	0.60627 0.73743 0.40725 -0.02700
H 	H 	0.61727 0.69893 0.39493 0.06600
C 	C 	0.57427 0.72123 0.44418 -0.07800
C 	C 	0.55317 0.64033 0.46408 0.37800
C 	C 	0.28227 0.48083 0.57603 0.02900
C 	C 	0.34697 0.60953 0.61363 0.02700
O 	O 	0.18893 0.96267 0.83083 -0.44700
O 	O 	0.23213 0.92187 0.77902 -0.43900
N 	N 	0.02213 0.90467 0.90947 -0.04800
C 	C 	0.27293 0.07077 0.74059 -0.02700
H 	H 	0.28393 0.03227 0.72827 0.06600
C 	C 	0.24093 0.05457 0.77752 -0.07700
C 	C 	0.21983 0.97367 0.79742 0.37800
C 	C 	0.94893 0.81417 0.90937 0.02900
C 	C 	0.01363 0.94287 0.94697 0.02700
O 	O 	0.44040 0.14440 0.16416 -0.44700
O 	O 	0.35640 0.10120 0.11235 -0.43900
N 	N 	0.54920 0.31120 0.24280 -0.04800
C 	C 	0.46450 0.06040 0.07392 -0.02700
H 	H 	0.41500 0.04940 0.06160 0.06600
C 	C 	0.48030 0.09240 0.11085 -0.07800
C 	C 	0.42050 0.11350 0.13075 0.37800
C 	C 	0.53190 0.38440 0.24270 0.02900
C 	C 	0.59590 0.31970 0.28030 0.02700
O 	O 	0.10707 0.47773 0.49749 -0.44700
O 	O 	0.02307 0.43453 0.44568 -0.43900
N 	N 	0.21587 0.64453 0.57613 -0.04800
C 	C 	0.13117 0.39373 0.40725 -0.02700
H 	H 	0.08167 0.38273 0.39493 0.06600
C 	C 	0.14697 0.42573 0.44418 -0.07800
C 	C 	0.08717 0.44683 0.46408 0.37800
C 	C 	0.19857 0.71773 0.57603 0.02900
C 	C 	0.26257 0.65303 0.61363 0.02700
O 	O 	0.77373 0.81107 0.83083 -0.44700
O 	O 	0.68973 0.76787 0.77902 -0.43900
N 	N 	0.88253 0.97787 0.90947 -0.04800
C 	C 	0.79783 0.72707 0.74059 -0.02700
H 	H 	0.74833 0.71607 0.72827 0.06600
C 	C 	0.81363 0.75907 0.77752 -0.07800
C 	C 	0.75383 0.78017 0.79742 0.37800
C 	C 	0.86523 0.05107 0.90937 0.02900
C 	C 	0.92923 0.98637 0.94697 0.02700
O 	O 	0.70400 0.55960 0.16416 -0.44700
O 	O 	0.74480 0.64360 0.11235 -0.43900
N 	N 	0.76200 0.45080 0.24280 -0.04800
C 	C 	0.59590 0.53550 0.07392 -0.02700
H 	H 	0.63440 0.58500 0.06160 0.06600
C 	C 	0.61210 0.51970 0.11085 -0.07800
C 	C 	0.69300 0.57950 0.13075 0.37800
C 	C 	0.85250 0.46810 0.24270 0.02900
C 	C 	0.72380 0.40410 0.28030 0.02700
O 	O 	0.37067 0.89293 0.49749 -0.44700
O 	O 	0.41147 0.97693 0.44568 -0.43900
N 	N 	0.42867 0.78413 0.57613 -0.04800
C 	C 	0.26257 0.86883 0.40725 -0.02700
H 	H 	0.30107 0.91833 0.39493 0.06600
C 	C 	0.27877 0.85303 0.44418 -0.07800
C 	C 	0.35967 0.91283 0.46408 0.37800
C 	C 	0.51917 0.80143 0.57603 0.02900
C 	C 	0.39047 0.73743 0.61363 0.02700
O 	O 	0.03733 0.22627 0.83083 -0.44700
O 	O 	0.07813 0.31027 0.77902 -0.43900
N 	N 	0.09533 0.11747 0.90947 -0.04800
C 	C 	0.92923 0.20217 0.74059 -0.02700
H 	H 	0.96773 0.25167 0.72827 0.06600
C 	C 	0.94543 0.18637 0.77752 -0.07800
C 	C 	0.02633 0.24617 0.79742 0.37800
C 	C 	0.18583 0.13477 0.90937 0.02900
C 	C 	0.05713 0.07077 0.94697 0.02700
Zn	Zn	0.80414 0.19586 0.20159 1.22900
O 	O 	0.76208 0.23792 0.24354 -0.28000
C 	C 	0.69910 0.30090 0.20980 0.03400
Zn	Zn	0.47081 0.52919 0.53492 1.22900
O 	O 	0.42875 0.57125 0.57687 -0.28000
C 	C 	0.36577 0.63423 0.54313 0.03400
Zn	Zn	0.13747 0.86253 0.86826 1.22900
O 	O 	0.09541 0.90459 0.91021 -0.28000
C 	C 	0.03243 0.96757 0.87647 0.03400
Zn	Zn	0.80414 0.60828 0.20159 1.22900
O 	O 	0.76208 0.52416 0.24354 -0.28000
C 	C 	0.69910 0.39820 0.20980 0.03400
Zn	Zn	0.47081 0.94162 0.53492 1.22900
O 	O 	0.42875 0.85749 0.57687 -0.28000
C 	C 	0.36577 0.73153 0.54313 0.03400
Zn	Zn	0.13747 0.27495 0.86826 1.22900
O 	O 	0.09541 0.19083 0.91021 -0.28000
C 	C 	0.03243 0.06487 0.87647 0.03400
Zn	Zn	0.39172 0.19586 0.20159 1.22900
O 	O 	0.47584 0.23792 0.24354 -0.28000
C 	C 	0.60180 0.30090 0.20980 0.03400
Zn	Zn	0.05838 0.52919 0.53492 1.22900
O 	O 	0.14251 0.57125 0.57687 -0.28000
C 	C 	0.26847 0.63423 0.54313 0.03400
Zn	Zn	0.72505 0.86253 0.86826 1.22900
O 	O 	0.80917 0.90459 0.91021 -0.28000
C 	C 	0.93513 0.96757 0.87647 0.03400
Zn	Zn	0.19586 0.80414 0.79841 1.22900
O 	O 	0.23792 0.76208 0.75646 -0.28000
C 	C 	0.30090 0.69910 0.79020 0.03400
Zn	Zn	0.86253 0.13747 0.13174 1.22900
O 	O 	0.90459 0.09541 0.08979 -0.28000
C 	C 	0.96757 0.03243 0.12353 0.03400
Zn	Zn	0.52919 0.47081 0.46508 1.22900
O 	O 	0.57125 0.42875 0.42313 -0.28000
C 	C 	0.63423 0.36577 0.45687 0.03400
Zn	Zn	0.60828 0.80414 0.79841 1.22900
O 	O 	0.52416 0.76208 0.75646 -0.28000
C 	C 	0.39820 0.69910 0.79020 0.03400
Zn	Zn	0.27495 0.13747 0.13174 1.22900
O 	O 	0.19083 0.09541 0.08979 -0.28000
C 	C 	0.06487 0.03243 0.12353 0.03400
Zn	Zn	0.94162 0.47081 0.46508 1.22900
O 	O 	0.85749 0.42875 0.42313 -0.28000
C 	C 	0.73153 0.36577 0.45687 0.03400
Zn	Zn	0.19586 0.39172 0.79841 1.22900
O 	O 	0.23792 0.47584 0.75646 -0.28000
C 	C 	0.30090 0.60180 0.79020 0.03400
Zn	Zn	0.86253 0.72505 0.13174 1.22900
O 	O 	0.90459 0.80917 0.08979 -0.28000
C 	C 	0.96757 0.93513 0.12353 0.03400
Zn	Zn	0.52919 0.05838 0.46508 1.22900
O 	O 	0.57125 0.14251 0.42313 -0.28000
C 	C 	0.63423 0.26847 0.45687 0.03400
C 	C 	0.50575 0.01150 0.01600 -0.00800
C 	C 	0.52205 0.04410 0.05460 0.02100
C 	C 	0.55415 0.10830 0.12960 0.02200
H 	H 	0.56480 0.12960 0.15460 0.05700
C 	C 	0.17242 0.34483 0.34933 -0.00800
C 	C 	0.18872 0.37743 0.38793 0.02100
C 	C 	0.22082 0.44163 0.46293 0.02200
H 	H 	0.23147 0.46293 0.48793 0.05700
C 	C 	0.83908 0.67817 0.68267 -0.00800
C 	C 	0.85538 0.71077 0.72127 0.02100
C 	C 	0.88748 0.77497 0.79627 0.02200
H 	H 	0.89813 0.79627 0.82127 0.05700
C 	C 	0.98850 0.49425 0.01600 -0.00800
C 	C 	0.95590 0.47795 0.05460 0.02100
C 	C 	0.89170 0.44585 0.12960 0.02200
H 	H 	0.87040 0.43520 0.15460 0.05700
C 	C 	0.65517 0.82758 0.34933 -0.00800
C 	C 	0.62257 0.81128 0.38793 0.02100
C 	C 	0.55837 0.77918 0.46293 0.02200
H 	H 	0.53707 0.76853 0.48793 0.05700
C 	C 	0.32183 0.16092 0.68267 -0.00800
C 	C 	0.28923 0.14462 0.72127 0.02100
C 	C 	0.22503 0.11252 0.79627 0.02200
H 	H 	0.20373 0.10187 0.82127 0.05700
C 	C 	0.50575 0.49425 0.01600 -0.00800
C 	C 	0.52205 0.47795 0.05460 0.02100
C 	C 	0.55415 0.44585 0.12960 0.02200
H 	H 	0.56480 0.43520 0.15460 0.05700
C 	C 	0.17242 0.82758 0.34933 -0.00800
C 	C 	0.18872 0.81128 0.38793 0.02100
C 	C 	0.22082 0.77918 0.46293 0.02200
H 	H 	0.23147 0.76853 0.48793 0.05700
C 	C 	0.83908 0.16092 0.68267 -0.00800
C 	C 	0.85538 0.14462 0.72127 0.02100
C 	C 	0.88748 0.11252 0.79627 0.02200
H 	H 	0.89813 0.10187 0.82127 0.05700
C 	C 	0.01150 0.50575 0.98400 -0.00800
C 	C 	0.04410 0.52205 0.94540 0.02100
C 	C 	0.10830 0.55415 0.87040 0.02200
H 	H 	0.12960 0.56480 0.84540 0.05700
C 	C 	0.67817 0.83908 0.31733 -0.00800
C 	C 	0.71077 0.85538 0.27873 0.02100
C 	C 	0.77497 0.88748 0.20373 0.02200
H 	H 	0.79627 0.89813 0.17873 0.05700
C 	C 	0.34483 0.17242 0.65067 -0.00800
C 	C 	0.37743 0.18872 0.61207 0.02100
C 	C 	0.44163 0.22082 0.53707 0.02200
H 	H 	0.46293 0.23147 0.51207 0.05700
C 	C 	0.49425 0.98850 0.98400 -0.00800
C 	C 	0.47795 0.95590 0.94540 0.02100
C 	C 	0.44585 0.89170 0.87040 0.02200
H 	H 	0.43520 0.87040 0.84540 0.05700
C 	C 	0.16092 0.32183 0.31733 -0.00800
C 	C 	0.14462 0.28923 0.27873 0.02100
C 	C 	0.11252 0.22503 0.20373 0.02200
H 	H 	0.10187 0.20373 0.17873 0.05700
C 	C 	0.82758 0.65517 0.65067 -0.00800
C 	C 	0.81128 0.62257 0.61207 0.02100
C 	C 	0.77918 0.55837 0.53707 0.02200
H 	H 	0.76853 0.53707 0.51207 0.05700
C 	C 	0.49425 0.50575 0.98400 -0.00800
C 	C 	0.47795 0.52205 0.94540 0.02100
C 	C 	0.44585 0.55415 0.87040 0.02200
H 	H 	0.43520 0.56480 0.84540 0.05700
C 	C 	0.16092 0.83908 0.31733 -0.00800
C 	C 	0.14462 0.85538 0.27873 0.02100
C 	C 	0.11252 0.88748 0.20373 0.02200
H 	H 	0.10187 0.89813 0.17873 0.05700
C 	C 	0.82758 0.17242 0.65067 -0.00800
C 	C 	0.81128 0.18872 0.61207 0.02100
C 	C 	0.77918 0.22082 0.53707 0.02200
H 	H 	0.76853 0.23147 0.51207 0.05700
