data_crystal

_cell_length_a 8.71420
_cell_length_b 10.80750
_cell_length_c 18.07400
_cell_angle_alpha 90.00000
_cell_angle_beta  90.00000
_cell_angle_gamma 90.00000

_symmetry_space_group_name_	'P 1'
_symmetry_space_group_name_H-M	'P 1'

loop_
_symmetry_equiv_pos_as_xyz
  x,y,z

loop_
_atom_site_label
_atom_site_type_symbol
_atom_site_fract_x
_atom_site_fract_y
_atom_site_fract_z
_atom_site_charge
Co	Co	0.84020 0.67345 0.87976 1.12500
Co	Co	0.83880 0.95076 0.95588 1.07000
Cl	Cl	0.71080 0.86460 0.84610 -0.67100
P 	P 	0.84170 0.28190 0.53307 0.44800
N 	N 	0.72280 0.29750 0.67820 -0.10700
H 	H 	0.82370 0.28640 0.68930 0.07900
C 	C 	0.65400 0.37790 0.73820 -0.14100
H 	H 	0.56140 0.41810 0.71930 0.10300
C 	C 	0.61200 0.29080 0.79930 0.02100
H 	H 	0.68390 0.29820 0.83990 -0.01100
H 	H 	0.50980 0.31000 0.81770 0.00900
C 	C 	0.61500 0.16280 0.76870 -0.16500
H 	H 	0.51800 0.12160 0.77790 0.08000
H 	H 	0.69610 0.11520 0.79210 0.06500
C 	C 	0.64370 0.17270 0.68630 -0.01700
H 	H 	0.54810 0.17070 0.65890 0.04700
H 	H 	0.70930 0.10610 0.66920 0.01800
C 	C 	0.76540 0.47540 0.76490 0.32300
C 	C 	0.71500 0.34960 0.60240 -0.23800
H 	H 	0.73740 0.43740 0.60550 0.08200
H 	H 	0.61020 0.34150 0.58490 0.10100
O 	O 	0.71320 0.54700 0.81390 -0.42600
O 	O 	0.90130 0.47580 0.74020 -0.32900
O 	O 	0.00760 0.29650 0.55950 -0.53800
O 	O 	0.79910 0.14590 0.52600 -0.47100
O 	O 	0.80700 0.35900 0.46450 -0.45700
Co	Co	0.65980 0.32655 0.37976 1.12600
Co	Co	0.66120 0.04924 0.45588 1.07200
Cl	Cl	0.78920 0.13540 0.34610 -0.66800
P 	P 	0.65830 0.71810 0.03307 0.44600
N 	N 	0.77720 0.70250 0.17820 -0.10700
H 	H 	0.67630 0.71360 0.18930 0.07900
C 	C 	0.84600 0.62210 0.23820 -0.14200
H 	H 	0.93860 0.58190 0.21930 0.10300
C 	C 	0.88800 0.70920 0.29930 0.02100
H 	H 	0.81610 0.70180 0.33990 -0.01200
H 	H 	0.99020 0.69000 0.31770 0.00900
C 	C 	0.88500 0.83720 0.26870 -0.16500
H 	H 	0.98200 0.87840 0.27790 0.08000
H 	H 	0.80390 0.88480 0.29210 0.06500
C 	C 	0.85630 0.82730 0.18630 -0.01700
H 	H 	0.95190 0.82930 0.15890 0.04700
H 	H 	0.79070 0.89390 0.16920 0.01800
C 	C 	0.73460 0.52460 0.26490 0.32300
C 	C 	0.78500 0.65040 0.10240 -0.23800
H 	H 	0.76260 0.56260 0.10550 0.08200
H 	H 	0.88980 0.65850 0.08490 0.10100
O 	O 	0.78680 0.45300 0.31390 -0.42500
O 	O 	0.59870 0.52420 0.24020 -0.32900
O 	O 	0.49240 0.70350 0.05950 -0.53700
O 	O 	0.70090 0.85410 0.02600 -0.47100
O 	O 	0.69300 0.64100 0.96450 -0.45700
Co	Co	0.15980 0.17345 0.62024 1.12500
Co	Co	0.16120 0.45076 0.54412 1.07100
Cl	Cl	0.28920 0.36460 0.65390 -0.66900
P 	P 	0.15830 0.78190 0.96693 0.44800
N 	N 	0.27720 0.79750 0.82180 -0.10700
H 	H 	0.17630 0.78640 0.81070 0.07900
C 	C 	0.34600 0.87790 0.76180 -0.14100
H 	H 	0.43860 0.91810 0.78070 0.10200
C 	C 	0.38800 0.79080 0.70070 0.02100
H 	H 	0.31610 0.79820 0.66010 -0.01200
H 	H 	0.49020 0.81000 0.68230 0.00800
C 	C 	0.38500 0.66280 0.73130 -0.16400
H 	H 	0.48200 0.62160 0.72210 0.08000
H 	H 	0.30390 0.61520 0.70790 0.06400
C 	C 	0.35630 0.67270 0.81370 -0.01700
H 	H 	0.45190 0.67070 0.84110 0.04700
H 	H 	0.29070 0.60610 0.83080 0.01800
C 	C 	0.23460 0.97540 0.73510 0.32200
C 	C 	0.28500 0.84960 0.89760 -0.23800
H 	H 	0.26260 0.93740 0.89450 0.08200
H 	H 	0.38980 0.84150 0.91510 0.10100
O 	O 	0.28680 0.04700 0.68610 -0.42500
O 	O 	0.09870 0.97580 0.75980 -0.32900
O 	O 	0.99240 0.79650 0.94050 -0.53800
O 	O 	0.20090 0.64590 0.97400 -0.47100
O 	O 	0.19300 0.85900 0.03550 -0.45700
Co	Co	0.34020 0.82655 0.12024 1.12600
Co	Co	0.33880 0.54924 0.04412 1.07100
Cl	Cl	0.21080 0.63540 0.15390 -0.67000
P 	P 	0.34170 0.21810 0.46693 0.44600
N 	N 	0.22280 0.20250 0.32180 -0.10700
H 	H 	0.32370 0.21360 0.31070 0.07900
C 	C 	0.15400 0.12210 0.26180 -0.14100
H 	H 	0.06140 0.08190 0.28070 0.10200
C 	C 	0.11200 0.20920 0.20070 0.02100
H 	H 	0.18390 0.20180 0.16010 -0.01200
H 	H 	0.00980 0.19000 0.18230 0.00800
C 	C 	0.11500 0.33720 0.23130 -0.16500
H 	H 	0.01800 0.37840 0.22210 0.07900
H 	H 	0.19610 0.38480 0.20790 0.06400
C 	C 	0.14370 0.32730 0.31370 -0.01700
H 	H 	0.04810 0.32930 0.34110 0.04700
H 	H 	0.20930 0.39390 0.33080 0.01800
C 	C 	0.26540 0.02460 0.23510 0.32000
C 	C 	0.21500 0.15040 0.39760 -0.23700
H 	H 	0.23740 0.06260 0.39450 0.08100
H 	H 	0.11020 0.15850 0.41510 0.10000
O 	O 	0.21320 0.95300 0.18610 -0.42300
O 	O 	0.40130 0.02420 0.25980 -0.32800
O 	O 	0.50760 0.20350 0.44050 -0.53700
O 	O 	0.29910 0.35410 0.47400 -0.47200
O 	O 	0.30700 0.14100 0.53550 -0.45700
