data_crystal

_cell_length_a 10.62610
_cell_length_b 10.62610
_cell_length_c 10.62610
_cell_angle_alpha 103.64500
_cell_angle_beta  112.46100
_cell_angle_gamma 112.46100

_symmetry_space_group_name_	'P 1'
_symmetry_space_group_name_H-M	'P 1'

loop_
_symmetry_equiv_pos_as_xyz
  x,y,z

loop_
_atom_site_label
_atom_site_type_symbol
_atom_site_fract_x
_atom_site_fract_y
_atom_site_fract_z
_atom_site_charge
Co	Co	0.49422 0.69464 0.79958 1.10300
Co	Co	0.50578 0.30536 0.20042 1.10100
Co	Co	0.10494 0.79958 0.30536 1.07200
Co	Co	0.89506 0.20042 0.69464 1.13200
Mo	Mo	-0.00000 0.74996 0.74996 0.99200
Mo	Mo	0.00000 0.25004 0.25004 0.99000
H 	H 	0.34010 0.75310 0.58700 0.21000
H 	H 	0.65990 0.24690 0.41300 0.21700
H 	H 	0.83390 0.58700 0.24690 0.22000
H 	H 	0.16610 0.41300 0.75310 0.20700
C 	C 	0.19654 0.71049 0.80479 -0.16600
C 	C 	0.78741 0.02739 0.07936 -0.05300
C 	C 	0.80346 0.60825 0.51395 -0.07100
C 	C 	0.21259 0.29195 0.23998 -0.15600
C 	C 	0.09430 0.80479 0.60825 -0.20000
C 	C 	0.05197 0.07936 0.29195 -0.18300
C 	C 	0.90570 0.51395 0.71049 -0.03800
C 	C 	0.94803 0.23998 0.02739 -0.01800
C 	C 	0.80346 0.28951 0.19521 -0.07000
C 	C 	0.21259 0.97261 0.92064 -0.16900
C 	C 	0.19654 0.39175 0.48605 -0.16500
C 	C 	0.78741 0.70805 0.76002 -0.06600
C 	C 	0.90570 0.19521 0.39175 -0.03700
C 	C 	0.94803 0.92064 0.70805 -0.03100
C 	C 	0.09430 0.48605 0.28951 -0.19900
C 	C 	0.05197 0.76002 0.97261 -0.19600
N 	N 	0.30638 0.69863 0.83161 -0.20800
N 	N 	0.67170 0.91420 0.98504 -0.22700
N 	N 	0.69362 0.52523 0.39225 -0.21800
N 	N 	0.32830 0.31334 0.24250 -0.20800
N 	N 	0.13298 0.83161 0.52523 -0.22000
N 	N 	0.07084 0.98504 0.31334 -0.23200
N 	N 	0.86702 0.39225 0.69863 -0.20700
N 	N 	0.92916 0.24250 0.91420 -0.20800
N 	N 	0.69362 0.30137 0.16839 -0.21700
N 	N 	0.32830 0.08580 0.01496 -0.20000
N 	N 	0.30638 0.47477 0.60775 -0.20700
N 	N 	0.67170 0.68666 0.75750 -0.21700
N 	N 	0.86702 0.16839 0.47477 -0.20600
N 	N 	0.92916 0.01496 0.68666 -0.19900
N 	N 	0.13298 0.60775 0.30137 -0.21900
N 	N 	0.07084 0.75750 0.08580 -0.22400
O 	O 	0.43941 0.79121 0.64820 -0.50300
O 	O 	0.56059 0.20879 0.35180 -0.50300
O 	O 	0.85699 0.64820 0.20879 -0.43700
O 	O 	0.14301 0.35180 0.79121 -0.56600
