data_crystal

_cell_length_a 15.04010
_cell_length_b 12.53660
_cell_length_c 16.53200
_cell_angle_alpha 90.00000
_cell_angle_beta  90.00000
_cell_angle_gamma 90.00000

_symmetry_space_group_name_	'P 1'
_symmetry_space_group_name_H-M	'P 1'

loop_
_symmetry_equiv_pos_as_xyz
  x,y,z

loop_
_atom_site_label
_atom_site_type_symbol
_atom_site_fract_x
_atom_site_fract_y
_atom_site_fract_z
_atom_site_charge
Mn	Mn	0.60380 0.48718 0.58350 1.30700
O 	O 	0.59280 0.35540 0.67340 -0.38000
O 	O 	0.66800 0.49330 0.70970 -0.35800
O 	O 	0.52870 0.38080 0.50790 -0.45100
O 	O 	0.49990 0.58920 0.62165 -0.41800
O 	O 	0.69980 0.63540 0.55690 -0.35100
O 	O 	0.70690 0.48880 0.49060 -0.41200
C 	C 	0.63330 0.40530 0.72460 0.36300
C 	C 	0.63950 0.36340 0.80980 -0.15400
C 	C 	0.59150 0.27290 0.83260 0.14800
C 	C 	0.69340 0.41250 0.86710 0.13800
C 	C 	0.59630 0.23230 0.91060 -0.17200
C 	C 	0.70180 0.36980 0.94440 -0.14900
C 	C 	0.53880 0.13980 0.93380 0.39900
C 	C 	0.65230 0.28070 0.96550 0.13300
C 	C 	0.76880 0.42040 0.00190 0.36500
Mn	Mn	0.89620 0.51282 0.08350 1.30500
O 	O 	0.90720 0.64460 0.17340 -0.38200
O 	O 	0.83200 0.50670 0.20970 -0.36000
O 	O 	0.97130 0.61920 0.00790 -0.45400
O 	O 	0.00010 0.41080 0.12165 -0.41900
O 	O 	0.80020 0.36460 0.05690 -0.35200
O 	O 	0.79310 0.51120 0.99060 -0.40800
C 	C 	0.86670 0.59470 0.22460 0.36300
C 	C 	0.86050 0.63660 0.30980 -0.15400
C 	C 	0.90850 0.72710 0.33260 0.14700
C 	C 	0.80660 0.58750 0.36710 0.13800
C 	C 	0.90370 0.76770 0.41060 -0.17100
C 	C 	0.79820 0.63020 0.44440 -0.15200
C 	C 	0.96120 0.86020 0.43380 0.39400
C 	C 	0.84770 0.71930 0.46550 0.13200
C 	C 	0.73120 0.57960 0.50190 0.37100
Mn	Mn	0.39620 0.98718 0.91650 1.30400
O 	O 	0.40720 0.85540 0.82660 -0.38200
O 	O 	0.33200 0.99330 0.79030 -0.36100
O 	O 	0.47130 0.88080 0.99210 -0.45600
O 	O 	0.50010 0.08920 0.87835 -0.41900
O 	O 	0.30020 0.13540 0.94310 -0.35100
O 	O 	0.29310 0.98880 0.00940 -0.40700
C 	C 	0.36670 0.90530 0.77540 0.36300
C 	C 	0.36050 0.86340 0.69020 -0.15400
C 	C 	0.40850 0.77290 0.66740 0.14700
C 	C 	0.30660 0.91250 0.63290 0.13800
C 	C 	0.40370 0.73230 0.58940 -0.17100
C 	C 	0.29820 0.86980 0.55560 -0.15200
C 	C 	0.46120 0.63980 0.56620 0.39400
C 	C 	0.34770 0.78070 0.53450 0.13200
C 	C 	0.23120 0.92040 0.49810 0.37100
Mn	Mn	0.10380 0.01282 0.41650 1.30600
O 	O 	0.09280 0.14460 0.32660 -0.38100
O 	O 	0.16800 0.00670 0.29030 -0.36000
O 	O 	0.02870 0.11920 0.49210 -0.45200
O 	O 	0.99990 0.91080 0.37835 -0.41900
O 	O 	0.19980 0.86460 0.44310 -0.35100
O 	O 	0.20690 0.01120 0.50940 -0.41100
C 	C 	0.13330 0.09470 0.27540 0.36300
C 	C 	0.13950 0.13660 0.19020 -0.15400
C 	C 	0.09150 0.22710 0.16740 0.14700
C 	C 	0.19340 0.08750 0.13290 0.13800
C 	C 	0.09630 0.26770 0.08940 -0.17200
C 	C 	0.20180 0.13020 0.05560 -0.15300
C 	C 	0.03880 0.36020 0.06620 0.39600
C 	C 	0.15230 0.21930 0.03450 0.13300
C 	C 	0.26880 0.07960 0.99810 0.37100
Mn	Mn	0.39620 0.51282 0.41650 1.30600
O 	O 	0.40720 0.64460 0.32660 -0.38100
O 	O 	0.33200 0.50670 0.29030 -0.35900
O 	O 	0.47130 0.61920 0.49210 -0.45200
O 	O 	0.50010 0.41080 0.37835 -0.41900
O 	O 	0.30020 0.36460 0.44310 -0.35200
O 	O 	0.29310 0.51120 0.50940 -0.41200
C 	C 	0.36670 0.59470 0.27540 0.36300
C 	C 	0.36050 0.63660 0.19020 -0.15400
C 	C 	0.40850 0.72710 0.16740 0.14800
C 	C 	0.30660 0.58750 0.13290 0.13800
C 	C 	0.40370 0.76770 0.08940 -0.17200
C 	C 	0.29820 0.63020 0.05560 -0.14900
C 	C 	0.46120 0.86020 0.06620 0.39900
C 	C 	0.34770 0.71930 0.03450 0.13300
C 	C 	0.23120 0.57960 0.99810 0.36500
Mn	Mn	0.10380 0.48718 0.91650 1.30500
O 	O 	0.09280 0.35540 0.82660 -0.38200
O 	O 	0.16800 0.49330 0.79030 -0.36000
O 	O 	0.02870 0.38080 0.99210 -0.45400
O 	O 	0.99990 0.58920 0.87835 -0.41900
O 	O 	0.19980 0.63540 0.94310 -0.35200
O 	O 	0.20690 0.48880 0.00940 -0.40800
C 	C 	0.13330 0.40530 0.77540 0.36300
C 	C 	0.13950 0.36340 0.69020 -0.15400
C 	C 	0.09150 0.27290 0.66740 0.14700
C 	C 	0.19340 0.41250 0.63290 0.13800
C 	C 	0.09630 0.23230 0.58940 -0.17100
C 	C 	0.20180 0.36980 0.55560 -0.15200
C 	C 	0.03880 0.13980 0.56620 0.39400
C 	C 	0.15230 0.28070 0.53450 0.13200
C 	C 	0.26880 0.42040 0.49810 0.37100
Mn	Mn	0.60380 0.01282 0.08350 1.30400
O 	O 	0.59280 0.14460 0.17340 -0.38200
O 	O 	0.66800 0.00670 0.20970 -0.36100
O 	O 	0.52870 0.11920 0.00790 -0.45600
O 	O 	0.49990 0.91080 0.12165 -0.41900
O 	O 	0.69980 0.86460 0.05690 -0.35100
O 	O 	0.70690 0.01120 0.99060 -0.40700
C 	C 	0.63330 0.09470 0.22460 0.36300
C 	C 	0.63950 0.13660 0.30980 -0.15400
C 	C 	0.59150 0.22710 0.33260 0.14700
C 	C 	0.69340 0.08750 0.36710 0.13800
C 	C 	0.59630 0.26770 0.41060 -0.17100
C 	C 	0.70180 0.13020 0.44440 -0.15200
C 	C 	0.53880 0.36020 0.43380 0.39400
C 	C 	0.65230 0.21930 0.46550 0.13200
C 	C 	0.76880 0.07960 0.50190 0.37100
Mn	Mn	0.89620 0.98718 0.58350 1.30600
O 	O 	0.90720 0.85540 0.67340 -0.38100
O 	O 	0.83200 0.99330 0.70970 -0.36000
O 	O 	0.97130 0.88080 0.50790 -0.45200
O 	O 	0.00010 0.08920 0.62165 -0.41900
O 	O 	0.80020 0.13540 0.55690 -0.35100
O 	O 	0.79310 0.98880 0.49060 -0.41100
C 	C 	0.86670 0.90530 0.72460 0.36300
C 	C 	0.86050 0.86340 0.80980 -0.15400
C 	C 	0.90850 0.77290 0.83260 0.14700
C 	C 	0.80660 0.91250 0.86710 0.13800
C 	C 	0.90370 0.73230 0.91060 -0.17200
C 	C 	0.79820 0.86980 0.94440 -0.15300
C 	C 	0.96120 0.63980 0.93380 0.39600
C 	C 	0.84770 0.78070 0.96550 0.13300
C 	C 	0.73120 0.92040 0.00190 0.37100
