data_crystal

_cell_length_a 14.77160
_cell_length_b 12.42600
_cell_length_c 16.62770
_cell_angle_alpha 90.00000
_cell_angle_beta  90.00000
_cell_angle_gamma 90.00000

_symmetry_space_group_name_	'P 1'
_symmetry_space_group_name_H-M	'P 1'

loop_
_symmetry_equiv_pos_as_xyz
  x,y,z

loop_
_atom_site_label
_atom_site_type_symbol
_atom_site_fract_x
_atom_site_fract_y
_atom_site_fract_z
_atom_site_charge
Mn	Mn	0.60476 0.48355 0.57927 1.30400
O 	O 	0.59329 0.34818 0.66732 -0.35800
O 	O 	0.67367 0.48897 0.70250 -0.34600
O 	O 	0.70911 0.48089 0.48541 -0.38400
O 	O 	0.69819 0.63237 0.55128 -0.34300
O 	O 	0.49845 0.58148 0.62566 -0.40600
O 	O 	0.52509 0.38039 0.50320 -0.44900
C 	C 	0.63627 0.40077 0.71923 0.30100
C 	C 	0.64164 0.35903 0.80374 -0.07100
C 	C 	0.69506 0.41174 0.86066 0.02800
C 	C 	0.59283 0.26833 0.82635 0.04000
H 	H 	0.72560 0.47440 0.84660 0.06400
C 	C 	0.70289 0.37115 0.93850 -0.07900
H 	H 	0.55750 0.23260 0.78850 0.06200
C 	C 	0.59623 0.23029 0.90516 -0.10100
C 	C 	0.65274 0.28084 0.96068 0.05500
C 	C 	0.76852 0.42228 0.99609 0.31400
C 	C 	0.53783 0.13685 0.92947 0.36000
H 	H 	0.65700 0.25420 0.01280 0.03200
Mn	Mn	0.89524 0.51645 0.07927 1.30300
O 	O 	0.90671 0.65182 0.16732 -0.35900
O 	O 	0.82633 0.51103 0.20250 -0.34600
O 	O 	0.79089 0.51911 0.98541 -0.38600
O 	O 	0.80181 0.36763 0.05128 -0.34700
O 	O 	0.00155 0.41852 0.12566 -0.40600
O 	O 	0.97491 0.61961 0.00320 -0.44900
C 	C 	0.86373 0.59923 0.21923 0.29900
C 	C 	0.85836 0.64097 0.30374 -0.06900
C 	C 	0.80494 0.58826 0.36066 0.02300
C 	C 	0.90717 0.73167 0.32635 0.03400
H 	H 	0.77440 0.52560 0.34660 0.06400
C 	C 	0.79711 0.62885 0.43850 -0.07500
H 	H 	0.94250 0.76740 0.28850 0.06200
C 	C 	0.90377 0.76971 0.40516 -0.09500
C 	C 	0.84726 0.71916 0.46068 0.04300
C 	C 	0.73148 0.57772 0.49609 0.30900
C 	C 	0.96217 0.86315 0.42947 0.35200
H 	H 	0.84300 0.74580 0.51280 0.03800
Mn	Mn	0.39524 0.98355 0.92073 1.30100
O 	O 	0.40671 0.84818 0.83268 -0.35900
O 	O 	0.32633 0.98897 0.79750 -0.34800
O 	O 	0.29089 0.98089 0.01459 -0.37300
O 	O 	0.30181 0.13237 0.94872 -0.33500
O 	O 	0.50155 0.08148 0.87434 -0.40600
O 	O 	0.47491 0.88039 0.99680 -0.45700
C 	C 	0.36373 0.90077 0.78077 0.29900
C 	C 	0.35836 0.85903 0.69626 -0.06900
C 	C 	0.30494 0.91174 0.63934 0.02300
C 	C 	0.40717 0.76833 0.67365 0.03400
H 	H 	0.27440 0.97440 0.65340 0.06400
C 	C 	0.29711 0.87115 0.56150 -0.07500
H 	H 	0.44250 0.73260 0.71150 0.06200
C 	C 	0.40377 0.73029 0.59484 -0.09500
C 	C 	0.34726 0.78084 0.53932 0.04300
C 	C 	0.23148 0.92228 0.50391 0.30900
C 	C 	0.46217 0.63685 0.57053 0.35200
H 	H 	0.34300 0.75420 0.48720 0.03800
Mn	Mn	0.10476 0.01645 0.42073 1.30300
O 	O 	0.09329 0.15182 0.33268 -0.35900
O 	O 	0.17367 0.01103 0.29750 -0.34700
O 	O 	0.20911 0.01911 0.51459 -0.38400
O 	O 	0.19819 0.86763 0.44872 -0.34300
O 	O 	0.99845 0.91852 0.37434 -0.40600
O 	O 	0.02509 0.11961 0.49680 -0.45000
C 	C 	0.13627 0.09923 0.28077 0.29700
C 	C 	0.14164 0.14097 0.19626 -0.06500
C 	C 	0.19506 0.08826 0.13934 0.01700
C 	C 	0.09283 0.23167 0.17365 0.03000
H 	H 	0.22560 0.02560 0.15340 0.06500
C 	C 	0.20289 0.12885 0.06150 -0.06600
H 	H 	0.05750 0.26740 0.21150 0.06300
C 	C 	0.09623 0.26971 0.09484 -0.08900
C 	C 	0.15274 0.21916 0.03932 0.03000
C 	C 	0.26852 0.07772 0.00391 0.29200
C 	C 	0.03783 0.36315 0.07053 0.34800
H 	H 	0.15700 0.24580 0.98720 0.04500
Mn	Mn	0.39524 0.51645 0.42073 1.30300
O 	O 	0.40671 0.65182 0.33268 -0.35900
O 	O 	0.32633 0.51103 0.29750 -0.34700
O 	O 	0.29089 0.51911 0.51459 -0.38500
O 	O 	0.30181 0.36763 0.44872 -0.34400
O 	O 	0.50155 0.41852 0.37434 -0.40700
O 	O 	0.47491 0.61961 0.49680 -0.45000
C 	C 	0.36373 0.59923 0.28077 0.30000
C 	C 	0.35836 0.64097 0.19626 -0.07200
C 	C 	0.30494 0.58826 0.13934 0.02700
C 	C 	0.40717 0.73167 0.17365 0.03900
H 	H 	0.27440 0.52560 0.15340 0.06300
C 	C 	0.29711 0.62885 0.06150 -0.08000
H 	H 	0.44250 0.76740 0.21150 0.06100
C 	C 	0.40377 0.76971 0.09484 -0.10100
C 	C 	0.34726 0.71916 0.03932 0.05500
C 	C 	0.23148 0.57772 0.00391 0.31400
C 	C 	0.46217 0.86315 0.07053 0.36000
H 	H 	0.34300 0.74580 0.98720 0.03200
Mn	Mn	0.10476 0.48355 0.92073 1.30300
O 	O 	0.09329 0.34818 0.83268 -0.35900
O 	O 	0.17367 0.48897 0.79750 -0.34600
O 	O 	0.20911 0.48089 0.01459 -0.38600
O 	O 	0.19819 0.63237 0.94872 -0.34700
O 	O 	0.99845 0.58148 0.87434 -0.40600
O 	O 	0.02509 0.38039 0.99680 -0.44900
C 	C 	0.13627 0.40077 0.78077 0.29900
C 	C 	0.14164 0.35903 0.69626 -0.06900
C 	C 	0.19506 0.41174 0.63934 0.02300
C 	C 	0.09283 0.26833 0.67365 0.03400
H 	H 	0.22560 0.47440 0.65340 0.06400
C 	C 	0.20289 0.37115 0.56150 -0.07500
H 	H 	0.05750 0.23260 0.71150 0.06200
C 	C 	0.09623 0.23029 0.59484 -0.09500
C 	C 	0.15274 0.28084 0.53932 0.04300
C 	C 	0.26852 0.42228 0.50391 0.30900
C 	C 	0.03783 0.13685 0.57053 0.35200
H 	H 	0.15700 0.25420 0.48720 0.03800
Mn	Mn	0.60476 0.01645 0.07927 1.30100
O 	O 	0.59329 0.15182 0.16732 -0.35900
O 	O 	0.67367 0.01103 0.20250 -0.34800
O 	O 	0.70911 0.01911 0.98541 -0.37300
O 	O 	0.69819 0.86763 0.05128 -0.33500
O 	O 	0.49845 0.91852 0.12566 -0.40600
O 	O 	0.52509 0.11961 0.00320 -0.45700
C 	C 	0.63627 0.09923 0.21923 0.29900
C 	C 	0.64164 0.14097 0.30374 -0.06900
C 	C 	0.69506 0.08826 0.36066 0.02300
C 	C 	0.59283 0.23167 0.32635 0.03400
H 	H 	0.72560 0.02560 0.34660 0.06400
C 	C 	0.70289 0.12885 0.43850 -0.07500
H 	H 	0.55750 0.26740 0.28850 0.06200
C 	C 	0.59623 0.26971 0.40516 -0.09500
C 	C 	0.65274 0.21916 0.46068 0.04300
C 	C 	0.76852 0.07772 0.49609 0.30900
C 	C 	0.53783 0.36315 0.42947 0.35200
H 	H 	0.65700 0.24580 0.51280 0.03800
Mn	Mn	0.89524 0.98355 0.57927 1.30300
O 	O 	0.90671 0.84818 0.66732 -0.35900
O 	O 	0.82633 0.98897 0.70250 -0.34700
O 	O 	0.79089 0.98089 0.48541 -0.38400
O 	O 	0.80181 0.13237 0.55128 -0.34300
O 	O 	0.00155 0.08148 0.62566 -0.40600
O 	O 	0.97491 0.88039 0.50320 -0.45000
C 	C 	0.86373 0.90077 0.71923 0.29700
C 	C 	0.85836 0.85903 0.80374 -0.06500
C 	C 	0.80494 0.91174 0.86066 0.01700
C 	C 	0.90717 0.76833 0.82635 0.03000
H 	H 	0.77440 0.97440 0.84660 0.06500
C 	C 	0.79711 0.87115 0.93850 -0.06600
H 	H 	0.94250 0.73260 0.78850 0.06300
C 	C 	0.90377 0.73029 0.90516 -0.08900
C 	C 	0.84726 0.78084 0.96068 0.03000
C 	C 	0.73148 0.92228 0.99609 0.29200
C 	C 	0.96217 0.63685 0.92947 0.34800
H 	H 	0.84300 0.75420 0.01280 0.04500
