data_crystal

_cell_length_a 14.88370
_cell_length_b 12.45540
_cell_length_c 16.60180
_cell_angle_alpha 90.00000
_cell_angle_beta  90.00000
_cell_angle_gamma 90.00000

_symmetry_space_group_name_	'P 1'
_symmetry_space_group_name_H-M	'P 1'

loop_
_symmetry_equiv_pos_as_xyz
  x,y,z

loop_
_atom_site_label
_atom_site_type_symbol
_atom_site_fract_x
_atom_site_fract_y
_atom_site_fract_z
_atom_site_charge
O 	O 	0.52700 0.11950 0.00519 -0.45600
O 	O 	0.50110 0.08490 0.87608 -0.41100
C 	C 	0.76940 0.42270 0.99840 0.34100
O 	O 	0.59340 0.35150 0.66980 -0.37300
C 	C 	0.59250 0.27000 0.82890 0.04600
H 	H 	0.55680 0.23520 0.79110 0.05700
C 	C 	0.63550 0.40190 0.72040 0.31800
O 	O 	0.67120 0.49150 0.70510 -0.35000
C 	C 	0.70310 0.37080 0.94060 -0.09100
C 	C 	0.65310 0.28120 0.96250 0.06400
H 	H 	0.65740 0.25440 0.01460 0.02900
C 	C 	0.64110 0.36060 0.80630 -0.08000
C 	C 	0.69430 0.41190 0.86290 0.03700
H 	H 	0.72460 0.47460 0.84880 0.05900
C 	C 	0.59670 0.23110 0.90690 -0.11000
C 	C 	0.53860 0.13850 0.93110 0.36700
Mn	Mn	0.60414 0.48519 0.58091 1.30500
O 	O 	0.79100 0.51590 0.98760 -0.40200
O 	O 	0.80230 0.36670 0.05270 -0.35400
O 	O 	0.97300 0.88050 0.50519 -0.44900
O 	O 	0.99890 0.91510 0.37608 -0.41000
C 	C 	0.73060 0.57730 0.49840 0.33700
O 	O 	0.90660 0.64850 0.16980 -0.37200
C 	C 	0.90750 0.73000 0.32890 0.04200
H 	H 	0.94320 0.76480 0.29110 0.06000
C 	C 	0.86450 0.59810 0.22040 0.31700
O 	O 	0.82880 0.50850 0.20510 -0.35000
C 	C 	0.79690 0.62920 0.44060 -0.08500
C 	C 	0.84690 0.71880 0.46250 0.05200
H 	H 	0.84260 0.74560 0.51460 0.03600
C 	C 	0.85890 0.63940 0.30630 -0.07700
C 	C 	0.80570 0.58810 0.36290 0.03200
H 	H 	0.77540 0.52540 0.34880 0.06100
C 	C 	0.90330 0.76890 0.40690 -0.10300
C 	C 	0.96140 0.86150 0.43110 0.35900
Mn	Mn	0.89586 0.51481 0.08091 1.30400
O 	O 	0.70900 0.48410 0.48760 -0.40100
O 	O 	0.69770 0.63330 0.55270 -0.35200
O 	O 	0.47300 0.61950 0.49481 -0.44900
O 	O 	0.49890 0.58490 0.62392 -0.41100
C 	C 	0.23060 0.92270 0.50160 0.33700
O 	O 	0.40660 0.85150 0.83020 -0.37300
C 	C 	0.40750 0.77000 0.67110 0.04200
H 	H 	0.44320 0.73520 0.70890 0.05900
C 	C 	0.36450 0.90190 0.77960 0.31700
O 	O 	0.32880 0.99150 0.79490 -0.35200
C 	C 	0.29690 0.87080 0.55940 -0.08500
C 	C 	0.34690 0.78120 0.53750 0.05200
H 	H 	0.34260 0.75440 0.48540 0.03600
C 	C 	0.35890 0.86060 0.69370 -0.07700
C 	C 	0.30570 0.91190 0.63710 0.03300
H 	H 	0.27540 0.97460 0.65120 0.06000
C 	C 	0.40330 0.73110 0.59310 -0.10400
C 	C 	0.46140 0.63850 0.56890 0.35900
Mn	Mn	0.39586 0.98519 0.91909 1.30200
O 	O 	0.20900 0.01590 0.51240 -0.40000
O 	O 	0.19770 0.86670 0.44730 -0.35100
O 	O 	0.02700 0.38050 0.99481 -0.44700
O 	O 	0.00110 0.41510 0.12392 -0.41000
C 	C 	0.26940 0.07730 0.00160 0.31800
O 	O 	0.09340 0.14850 0.33020 -0.37200
C 	C 	0.09250 0.23000 0.17110 0.03700
H 	H 	0.05680 0.26480 0.20890 0.06100
C 	C 	0.13550 0.09810 0.27960 0.31600
O 	O 	0.17120 0.00850 0.29490 -0.35000
C 	C 	0.20310 0.12920 0.05940 -0.07600
C 	C 	0.15310 0.21880 0.03750 0.03800
H 	H 	0.15740 0.24560 0.98540 0.04300
C 	C 	0.14110 0.13940 0.19370 -0.07300
C 	C 	0.19430 0.08810 0.13710 0.02600
H 	H 	0.22460 0.02540 0.15120 0.06200
C 	C 	0.09670 0.26890 0.09310 -0.09700
C 	C 	0.03860 0.36150 0.06890 0.35500
Mn	Mn	0.10414 0.01481 0.41909 1.30400
O 	O 	0.29100 0.98410 0.01240 -0.38800
O 	O 	0.30230 0.13330 0.94730 -0.34200
O 	O 	0.47300 0.88050 0.99481 -0.45500
O 	O 	0.49890 0.91510 0.12392 -0.41000
C 	C 	0.23060 0.57730 0.00160 0.34200
O 	O 	0.40660 0.64850 0.33020 -0.37200
C 	C 	0.40750 0.73000 0.17110 0.04700
H 	H 	0.44320 0.76480 0.20890 0.05800
C 	C 	0.36450 0.59810 0.27960 0.31800
O 	O 	0.32880 0.50850 0.29490 -0.35000
C 	C 	0.29690 0.62920 0.05940 -0.09100
C 	C 	0.34690 0.71880 0.03750 0.06400
H 	H 	0.34260 0.74560 0.98540 0.02900
C 	C 	0.35890 0.63940 0.19370 -0.08000
C 	C 	0.30570 0.58810 0.13710 0.03700
H 	H 	0.27540 0.52540 0.15120 0.05900
C 	C 	0.40330 0.76890 0.09310 -0.11000
C 	C 	0.46140 0.86150 0.06890 0.36700
Mn	Mn	0.39586 0.51481 0.41909 1.30500
O 	O 	0.20900 0.48410 0.01240 -0.40200
O 	O 	0.19770 0.63330 0.94730 -0.35400
O 	O 	0.02700 0.11950 0.49481 -0.44900
O 	O 	0.00110 0.08490 0.62392 -0.41000
C 	C 	0.26940 0.42270 0.50160 0.33700
O 	O 	0.09340 0.35150 0.83020 -0.37200
C 	C 	0.09250 0.27000 0.67110 0.04200
H 	H 	0.05680 0.23520 0.70890 0.06000
C 	C 	0.13550 0.40190 0.77960 0.31700
O 	O 	0.17120 0.49150 0.79490 -0.35000
C 	C 	0.20310 0.37080 0.55940 -0.08500
C 	C 	0.15310 0.28120 0.53750 0.05200
H 	H 	0.15740 0.25440 0.48540 0.03600
C 	C 	0.14110 0.36060 0.69370 -0.07700
C 	C 	0.19430 0.41190 0.63710 0.03200
H 	H 	0.22460 0.47460 0.65120 0.06100
C 	C 	0.09670 0.23110 0.59310 -0.10300
C 	C 	0.03860 0.13850 0.56890 0.35900
Mn	Mn	0.10414 0.48519 0.91909 1.30400
O 	O 	0.29100 0.51590 0.51240 -0.40100
O 	O 	0.30230 0.36670 0.44730 -0.35200
O 	O 	0.52700 0.38050 0.50519 -0.44900
O 	O 	0.50110 0.41510 0.37608 -0.41100
C 	C 	0.76940 0.07730 0.49840 0.33700
O 	O 	0.59340 0.14850 0.16980 -0.37300
C 	C 	0.59250 0.23000 0.32890 0.04200
H 	H 	0.55680 0.26480 0.29110 0.05900
C 	C 	0.63550 0.09810 0.22040 0.31700
O 	O 	0.67120 0.00850 0.20510 -0.35200
C 	C 	0.70310 0.12920 0.44060 -0.08500
C 	C 	0.65310 0.21880 0.46250 0.05200
H 	H 	0.65740 0.24560 0.51460 0.03600
C 	C 	0.64110 0.13940 0.30630 -0.07700
C 	C 	0.69430 0.08810 0.36290 0.03300
H 	H 	0.72460 0.02540 0.34880 0.06000
C 	C 	0.59670 0.26890 0.40690 -0.10400
C 	C 	0.53860 0.36150 0.43110 0.35900
Mn	Mn	0.60414 0.01481 0.08091 1.30200
O 	O 	0.79100 0.98410 0.48760 -0.40000
O 	O 	0.80230 0.13330 0.55270 -0.35100
O 	O 	0.97300 0.61950 0.00519 -0.44700
O 	O 	0.99890 0.58490 0.87608 -0.41000
C 	C 	0.73060 0.92270 0.99840 0.31800
O 	O 	0.90660 0.85150 0.66980 -0.37200
C 	C 	0.90750 0.77000 0.82890 0.03700
H 	H 	0.94320 0.73520 0.79110 0.06100
C 	C 	0.86450 0.90190 0.72040 0.31600
O 	O 	0.82880 0.99150 0.70510 -0.35000
C 	C 	0.79690 0.87080 0.94060 -0.07600
C 	C 	0.84690 0.78120 0.96250 0.03800
H 	H 	0.84260 0.75440 0.01460 0.04300
C 	C 	0.85890 0.86060 0.80630 -0.07300
C 	C 	0.80570 0.91190 0.86290 0.02600
H 	H 	0.77540 0.97460 0.84880 0.06200
C 	C 	0.90330 0.73110 0.90690 -0.09700
C 	C 	0.96140 0.63850 0.93110 0.35500
Mn	Mn	0.89586 0.98519 0.58091 1.30400
O 	O 	0.70900 0.01590 0.98760 -0.38800
O 	O 	0.69770 0.86670 0.05270 -0.34200
