data_crystal

_cell_length_a 14.38470
_cell_length_b 12.28880
_cell_length_c 16.60290
_cell_angle_alpha 90.00000
_cell_angle_beta  90.00000
_cell_angle_gamma 90.00000

_symmetry_space_group_name_	'P 1'
_symmetry_space_group_name_H-M	'P 1'

loop_
_symmetry_equiv_pos_as_xyz
  x,y,z

loop_
_atom_site_label
_atom_site_type_symbol
_atom_site_fract_x
_atom_site_fract_y
_atom_site_fract_z
_atom_site_charge
Mn	Mn	0.10689 0.47768 0.92615 1.30400
O 	O 	0.29030 0.52250 0.52250 -0.39000
O 	O 	0.29580 0.37400 0.45090 -0.34500
O 	O 	0.09850 0.33460 0.84110 -0.35300
O 	O 	0.99940 0.07400 0.62910 -0.39100
C 	C 	0.14810 0.28160 0.54440 0.04400
H 	H 	0.14970 0.25780 0.49120 0.03700
O 	O 	0.01700 0.11930 0.50070 -0.45600
C 	C 	0.26520 0.42660 0.50920 0.31600
C 	C 	0.19520 0.40830 0.64650 0.02700
H 	H 	0.22640 0.47140 0.66150 0.06500
C 	C 	0.14070 0.39050 0.78890 0.30100
C 	C 	0.20050 0.37230 0.56700 -0.07800
C 	C 	0.03360 0.13360 0.57420 0.33700
O 	O 	0.17940 0.47820 0.80620 -0.35300
C 	C 	0.09340 0.26070 0.67940 0.03700
H 	H 	0.05890 0.22250 0.71740 0.06200
C 	C 	0.09320 0.22630 0.60030 -0.09600
C 	C 	0.14410 0.35150 0.70330 -0.07000
Mn	Mn	0.39311 0.52232 0.42615 1.30500
O 	O 	0.20970 0.47750 0.02250 -0.39100
O 	O 	0.20420 0.62600 0.95090 -0.34900
O 	O 	0.40150 0.66540 0.34110 -0.35200
O 	O 	0.50060 0.92600 0.12910 -0.39500
C 	C 	0.35190 0.71840 0.04440 0.06100
H 	H 	0.35030 0.74220 0.99120 0.02700
O 	O 	0.48300 0.88070 0.00070 -0.45300
C 	C 	0.23480 0.57340 0.00920 0.32400
C 	C 	0.30480 0.59170 0.14650 0.03300
H 	H 	0.27360 0.52860 0.16150 0.06300
C 	C 	0.35930 0.60950 0.28890 0.30200
C 	C 	0.29950 0.62770 0.06700 -0.08600
C 	C 	0.46640 0.86640 0.07420 0.34500
O 	O 	0.32060 0.52180 0.30620 -0.35300
C 	C 	0.40660 0.73930 0.17940 0.04400
H 	H 	0.44110 0.77750 0.21740 0.06100
C 	C 	0.40680 0.77370 0.10030 -0.10300
C 	C 	0.35590 0.64850 0.20330 -0.07400
Mn	Mn	0.89311 0.97768 0.57385 1.30400
O 	O 	0.70970 0.02250 0.97750 -0.37300
O 	O 	0.70420 0.87400 0.04910 -0.33400
O 	O 	0.90150 0.83460 0.65890 -0.35200
O 	O 	0.00060 0.57400 0.87090 -0.39900
C 	C 	0.85190 0.78160 0.95560 0.03300
H 	H 	0.85030 0.75780 0.00880 0.04200
O 	O 	0.98300 0.61930 0.99930 -0.45600
C 	C 	0.73480 0.92660 0.99080 0.29200
C 	C 	0.80480 0.90830 0.85350 0.02000
H 	H 	0.77360 0.97140 0.83850 0.06500
C 	C 	0.85930 0.89050 0.71110 0.29900
C 	C 	0.79950 0.87230 0.93300 -0.06900
C 	C 	0.96640 0.63360 0.92580 0.34300
O 	O 	0.82060 0.97820 0.69380 -0.35400
C 	C 	0.90660 0.76070 0.82060 0.03500
H 	H 	0.94110 0.72250 0.78260 0.06300
C 	C 	0.90680 0.72630 0.89970 -0.09300
C 	C 	0.85590 0.85150 0.79670 -0.06800
Mn	Mn	0.60689 0.02232 0.07385 1.30100
O 	O 	0.79030 0.97750 0.47750 -0.39100
O 	O 	0.79580 0.12600 0.54910 -0.34300
O 	O 	0.59850 0.16540 0.15890 -0.35400
O 	O 	0.49940 0.42600 0.37090 -0.39800
C 	C 	0.64810 0.21840 0.45560 0.04600
H 	H 	0.64970 0.24220 0.50880 0.03700
O 	O 	0.51700 0.38070 0.49930 -0.45600
C 	C 	0.76520 0.07340 0.49080 0.31900
C 	C 	0.69520 0.09170 0.35350 0.02800
H 	H 	0.72640 0.02860 0.33850 0.06400
C 	C 	0.64070 0.10950 0.21110 0.30100
C 	C 	0.70050 0.12770 0.43300 -0.07900
C 	C 	0.53360 0.36640 0.42580 0.34300
O 	O 	0.67940 0.02180 0.19380 -0.35500
C 	C 	0.59340 0.23930 0.32060 0.03900
H 	H 	0.55890 0.27750 0.28260 0.06100
C 	C 	0.59320 0.27370 0.39970 -0.09800
C 	C 	0.64410 0.14850 0.29670 -0.07200
Mn	Mn	0.89311 0.52232 0.07385 1.30500
O 	O 	0.70970 0.47750 0.47750 -0.38900
O 	O 	0.70420 0.62600 0.54910 -0.34400
O 	O 	0.90150 0.66540 0.15890 -0.35200
O 	O 	0.00060 0.92600 0.37090 -0.39100
C 	C 	0.85190 0.71840 0.45560 0.04400
H 	H 	0.85030 0.74220 0.50880 0.03700
O 	O 	0.98300 0.88070 0.49930 -0.45600
C 	C 	0.73480 0.57340 0.49080 0.31600
C 	C 	0.80480 0.59170 0.35350 0.02700
H 	H 	0.77360 0.52860 0.33850 0.06500
C 	C 	0.85930 0.60950 0.21110 0.30100
C 	C 	0.79950 0.62770 0.43300 -0.07800
C 	C 	0.96640 0.86640 0.42580 0.33700
O 	O 	0.82060 0.52180 0.19380 -0.35300
C 	C 	0.90660 0.73930 0.32060 0.03700
H 	H 	0.94110 0.77750 0.28260 0.06200
C 	C 	0.90680 0.77370 0.39970 -0.09600
C 	C 	0.85590 0.64850 0.29670 -0.07000
Mn	Mn	0.60689 0.47768 0.57385 1.30500
O 	O 	0.79030 0.52250 0.97750 -0.39100
O 	O 	0.79580 0.37400 0.04910 -0.34900
O 	O 	0.59850 0.33460 0.65890 -0.35200
O 	O 	0.49940 0.07400 0.87090 -0.39500
C 	C 	0.64810 0.28160 0.95560 0.06100
H 	H 	0.64970 0.25780 0.00880 0.02700
O 	O 	0.51700 0.11930 0.99930 -0.45300
C 	C 	0.76520 0.42660 0.99080 0.32400
C 	C 	0.69520 0.40830 0.85350 0.03300
H 	H 	0.72640 0.47140 0.83850 0.06300
C 	C 	0.64070 0.39050 0.71110 0.30200
C 	C 	0.70050 0.37230 0.93300 -0.08600
C 	C 	0.53360 0.13360 0.92580 0.34500
O 	O 	0.67940 0.47820 0.69380 -0.35300
C 	C 	0.59340 0.26070 0.82060 0.04400
H 	H 	0.55890 0.22250 0.78260 0.06100
C 	C 	0.59320 0.22630 0.89970 -0.10300
C 	C 	0.64410 0.35150 0.79670 -0.07400
Mn	Mn	0.10689 0.02232 0.42615 1.30400
O 	O 	0.29030 0.97750 0.02250 -0.37300
O 	O 	0.29580 0.12600 0.95090 -0.33400
O 	O 	0.09850 0.16540 0.34110 -0.35200
O 	O 	0.99940 0.42600 0.12910 -0.39900
C 	C 	0.14810 0.21840 0.04440 0.03300
H 	H 	0.14970 0.24220 0.99120 0.04200
O 	O 	0.01700 0.38070 0.00070 -0.45600
C 	C 	0.26520 0.07340 0.00920 0.29200
C 	C 	0.19520 0.09170 0.14650 0.02000
H 	H 	0.22640 0.02860 0.16150 0.06500
C 	C 	0.14070 0.10950 0.28890 0.29900
C 	C 	0.20050 0.12770 0.06700 -0.06900
C 	C 	0.03360 0.36640 0.07420 0.34300
O 	O 	0.17940 0.02180 0.30620 -0.35400
C 	C 	0.09340 0.23930 0.17940 0.03500
H 	H 	0.05890 0.27750 0.21740 0.06300
C 	C 	0.09320 0.27370 0.10030 -0.09300
C 	C 	0.14410 0.14850 0.20330 -0.06800
Mn	Mn	0.39311 0.97768 0.92615 1.30100
O 	O 	0.20970 0.02250 0.52250 -0.39100
O 	O 	0.20420 0.87400 0.45090 -0.34300
O 	O 	0.40150 0.83460 0.84110 -0.35400
O 	O 	0.50060 0.57400 0.62910 -0.39800
C 	C 	0.35190 0.78160 0.54440 0.04600
H 	H 	0.35030 0.75780 0.49120 0.03700
O 	O 	0.48300 0.61930 0.50070 -0.45600
C 	C 	0.23480 0.92660 0.50920 0.31900
C 	C 	0.30480 0.90830 0.64650 0.02800
H 	H 	0.27360 0.97140 0.66150 0.06400
C 	C 	0.35930 0.89050 0.78890 0.30100
C 	C 	0.29950 0.87230 0.56700 -0.07900
C 	C 	0.46640 0.63360 0.57420 0.34300
O 	O 	0.32060 0.97820 0.80620 -0.35500
C 	C 	0.40660 0.76070 0.67940 0.03900
H 	H 	0.44110 0.72250 0.71740 0.06100
C 	C 	0.40680 0.72630 0.60030 -0.09800
C 	C 	0.35590 0.85150 0.70330 -0.07200
