data_crystal

_cell_length_a 14.92040
_cell_length_b 12.47370
_cell_length_c 16.58840
_cell_angle_alpha 90.00000
_cell_angle_beta  90.00000
_cell_angle_gamma 90.00000

_symmetry_space_group_name_	'P 1'
_symmetry_space_group_name_H-M	'P 1'

loop_
_symmetry_equiv_pos_as_xyz
  x,y,z

loop_
_atom_site_label
_atom_site_type_symbol
_atom_site_fract_x
_atom_site_fract_y
_atom_site_fract_z
_atom_site_charge
Mn	Mn	0.60400 0.48558 0.58142 1.30600
O 	O 	0.59280 0.35250 0.67086 -0.37100
O 	O 	0.67040 0.49150 0.70604 -0.35400
O 	O 	0.52760 0.38050 0.50571 -0.45100
O 	O 	0.49860 0.58540 0.62340 -0.41100
O 	O 	0.70820 0.48490 0.48870 -0.40300
O 	O 	0.69830 0.63360 0.55350 -0.35000
C 	C 	0.63530 0.40280 0.72160 0.32400
C 	C 	0.64040 0.36140 0.80730 -0.08500
C 	C 	0.69410 0.41250 0.86390 0.04100
C 	C 	0.59220 0.27100 0.82940 0.05100
H 	H 	0.72440 0.47500 0.85000 0.05800
C 	C 	0.70300 0.37040 0.94140 -0.09600
C 	C 	0.59680 0.23180 0.90750 -0.11400
H 	H 	0.55640 0.23640 0.79160 0.05600
C 	C 	0.76870 0.42230 0.99900 0.34500
C 	C 	0.65240 0.28100 0.96270 0.06900
C 	C 	0.53870 0.13890 0.93210 0.37100
H 	H 	0.65610 0.25410 0.01490 0.02700
Mn	Mn	0.89600 0.51442 0.08142 1.30500
O 	O 	0.90720 0.64750 0.17086 -0.37200
O 	O 	0.82960 0.50850 0.20604 -0.35400
O 	O 	0.97240 0.61950 0.00571 -0.44900
O 	O 	0.00140 0.41460 0.12340 -0.41100
O 	O 	0.79180 0.51510 0.98870 -0.40500
O 	O 	0.80170 0.36640 0.05350 -0.35300
C 	C 	0.86470 0.59720 0.22160 0.32300
C 	C 	0.85960 0.63860 0.30730 -0.08200
C 	C 	0.80590 0.58750 0.36390 0.03600
C 	C 	0.90780 0.72900 0.32940 0.04600
H 	H 	0.77560 0.52500 0.35000 0.05900
C 	C 	0.79700 0.62960 0.44140 -0.09000
C 	C 	0.90320 0.76820 0.40750 -0.10700
H 	H 	0.94360 0.76360 0.29160 0.05800
C 	C 	0.73130 0.57770 0.49900 0.34000
C 	C 	0.84760 0.71900 0.46270 0.05700
C 	C 	0.96130 0.86110 0.43210 0.36200
H 	H 	0.84390 0.74590 0.51490 0.03400
Mn	Mn	0.39600 0.98558 0.91858 1.30300
O 	O 	0.40720 0.85250 0.82914 -0.37300
O 	O 	0.32960 0.99150 0.79396 -0.35600
O 	O 	0.47240 0.88050 0.99429 -0.45800
O 	O 	0.50140 0.08540 0.87660 -0.41100
O 	O 	0.29180 0.98490 0.01130 -0.39100
O 	O 	0.30170 0.13360 0.94650 -0.34100
C 	C 	0.36470 0.90280 0.77840 0.32300
C 	C 	0.35960 0.86140 0.69270 -0.08200
C 	C 	0.30590 0.91250 0.63610 0.03600
C 	C 	0.40780 0.77100 0.67060 0.04600
H 	H 	0.27560 0.97500 0.65000 0.05900
C 	C 	0.29700 0.87040 0.55860 -0.09000
C 	C 	0.40320 0.73180 0.59250 -0.10700
H 	H 	0.44360 0.73640 0.70840 0.05800
C 	C 	0.23130 0.92230 0.50100 0.34000
C 	C 	0.34760 0.78100 0.53730 0.05700
C 	C 	0.46130 0.63890 0.56790 0.36300
H 	H 	0.34390 0.75410 0.48510 0.03400
Mn	Mn	0.10400 0.01442 0.41858 1.30500
O 	O 	0.09280 0.14750 0.32914 -0.37200
O 	O 	0.17040 0.00850 0.29396 -0.35400
O 	O 	0.02760 0.11950 0.49429 -0.45100
O 	O 	0.99860 0.91460 0.37660 -0.41100
O 	O 	0.20820 0.01510 0.51130 -0.40200
O 	O 	0.19830 0.86640 0.44650 -0.34900
C 	C 	0.13530 0.09720 0.27840 0.32200
C 	C 	0.14040 0.13860 0.19270 -0.07800
C 	C 	0.19410 0.08750 0.13610 0.02900
C 	C 	0.09220 0.22900 0.17060 0.04100
H 	H 	0.22440 0.02500 0.15000 0.06000
C 	C 	0.20300 0.12960 0.05860 -0.08100
C 	C 	0.09680 0.26820 0.09250 -0.10000
H 	H 	0.05640 0.26360 0.20840 0.05900
C 	C 	0.26870 0.07770 0.00100 0.32100
C 	C 	0.15240 0.21900 0.03730 0.04300
C 	C 	0.03870 0.36110 0.06790 0.35800
H 	H 	0.15610 0.24590 0.98510 0.04100
Mn	Mn	0.39600 0.51442 0.41858 1.30500
O 	O 	0.40720 0.64750 0.32914 -0.37200
O 	O 	0.32960 0.50850 0.29396 -0.35400
O 	O 	0.47240 0.61950 0.49429 -0.45100
O 	O 	0.50140 0.41460 0.37660 -0.41100
O 	O 	0.29180 0.51510 0.51130 -0.40300
O 	O 	0.30170 0.36640 0.44650 -0.35000
C 	C 	0.36470 0.59720 0.27840 0.32400
C 	C 	0.35960 0.63860 0.19270 -0.08500
C 	C 	0.30590 0.58750 0.13610 0.04100
C 	C 	0.40780 0.72900 0.17060 0.05100
H 	H 	0.27560 0.52500 0.15000 0.05800
C 	C 	0.29700 0.62960 0.05860 -0.09600
C 	C 	0.40320 0.76820 0.09250 -0.11400
H 	H 	0.44360 0.76360 0.20840 0.05600
C 	C 	0.23130 0.57770 0.00100 0.34500
C 	C 	0.34760 0.71900 0.03730 0.06900
C 	C 	0.46130 0.86110 0.06790 0.37100
H 	H 	0.34390 0.74590 0.98510 0.02700
Mn	Mn	0.10400 0.48558 0.91858 1.30500
O 	O 	0.09280 0.35250 0.82914 -0.37200
O 	O 	0.17040 0.49150 0.79396 -0.35400
O 	O 	0.02760 0.38050 0.99429 -0.44900
O 	O 	0.99860 0.58540 0.87660 -0.41100
O 	O 	0.20820 0.48490 0.01130 -0.40500
O 	O 	0.19830 0.63360 0.94650 -0.35300
C 	C 	0.13530 0.40280 0.77840 0.32300
C 	C 	0.14040 0.36140 0.69270 -0.08200
C 	C 	0.19410 0.41250 0.63610 0.03600
C 	C 	0.09220 0.27100 0.67060 0.04600
H 	H 	0.22440 0.47500 0.65000 0.05900
C 	C 	0.20300 0.37040 0.55860 -0.09000
C 	C 	0.09680 0.23180 0.59250 -0.10700
H 	H 	0.05640 0.23640 0.70840 0.05800
C 	C 	0.26870 0.42230 0.50100 0.34000
C 	C 	0.15240 0.28100 0.53730 0.05700
C 	C 	0.03870 0.13890 0.56790 0.36200
H 	H 	0.15610 0.25410 0.48510 0.03400
Mn	Mn	0.60400 0.01442 0.08142 1.30300
O 	O 	0.59280 0.14750 0.17086 -0.37300
O 	O 	0.67040 0.00850 0.20604 -0.35600
O 	O 	0.52760 0.11950 0.00571 -0.45800
O 	O 	0.49860 0.91460 0.12340 -0.41100
O 	O 	0.70820 0.01510 0.98870 -0.39100
O 	O 	0.69830 0.86640 0.05350 -0.34100
C 	C 	0.63530 0.09720 0.22160 0.32300
C 	C 	0.64040 0.13860 0.30730 -0.08200
C 	C 	0.69410 0.08750 0.36390 0.03600
C 	C 	0.59220 0.22900 0.32940 0.04600
H 	H 	0.72440 0.02500 0.35000 0.05900
C 	C 	0.70300 0.12960 0.44140 -0.09000
C 	C 	0.59680 0.26820 0.40750 -0.10700
H 	H 	0.55640 0.26360 0.29160 0.05800
C 	C 	0.76870 0.07770 0.49900 0.34000
C 	C 	0.65240 0.21900 0.46270 0.05700
C 	C 	0.53870 0.36110 0.43210 0.36300
H 	H 	0.65610 0.24590 0.51490 0.03400
Mn	Mn	0.89600 0.98558 0.58142 1.30500
O 	O 	0.90720 0.85250 0.67086 -0.37200
O 	O 	0.82960 0.99150 0.70604 -0.35400
O 	O 	0.97240 0.88050 0.50571 -0.45100
O 	O 	0.00140 0.08540 0.62340 -0.41100
O 	O 	0.79180 0.98490 0.48870 -0.40200
O 	O 	0.80170 0.13360 0.55350 -0.34900
C 	C 	0.86470 0.90280 0.72160 0.32200
C 	C 	0.85960 0.86140 0.80730 -0.07800
C 	C 	0.80590 0.91250 0.86390 0.02900
C 	C 	0.90780 0.77100 0.82940 0.04100
H 	H 	0.77560 0.97500 0.85000 0.06000
C 	C 	0.79700 0.87040 0.94140 -0.08100
C 	C 	0.90320 0.73180 0.90750 -0.10000
H 	H 	0.94360 0.73640 0.79160 0.05900
C 	C 	0.73130 0.92230 0.99900 0.32100
C 	C 	0.84760 0.78100 0.96270 0.04300
C 	C 	0.96130 0.63890 0.93210 0.35800
H 	H 	0.84390 0.75410 0.01490 0.04100
