data_crystal

_cell_length_a 14.15000
_cell_length_b 11.86000
_cell_length_c 16.57400
_cell_angle_alpha 90.00000
_cell_angle_beta  90.00000
_cell_angle_gamma 90.00000

_symmetry_space_group_name_	'P 1'
_symmetry_space_group_name_H-M	'P 1'

loop_
_symmetry_equiv_pos_as_xyz
  x,y,z

loop_
_atom_site_label
_atom_site_type_symbol
_atom_site_fract_x
_atom_site_fract_y
_atom_site_fract_z
_atom_site_charge
Mn	Mn	0.61009 0.47072 0.56353 1.30500
O 	O 	0.79670 0.52360 0.96010 -0.38500
O 	O 	0.78770 0.37840 0.04200 -0.34000
O 	O 	0.60360 0.31370 0.64520 -0.34000
O 	O 	0.49180 0.06230 0.86450 -0.36800
C 	C 	0.64220 0.28160 0.94730 0.04200
H 	H 	0.64100 0.26160 0.00150 0.03000
O 	O 	0.50450 0.11930 0.99330 -0.44300
C 	C 	0.76300 0.42840 0.97910 0.30900
C 	C 	0.69850 0.40190 0.84050 0.01300
H 	H 	0.73320 0.46430 0.82390 0.07100
C 	C 	0.64860 0.37230 0.69450 0.28900
C 	C 	0.69810 0.37060 0.92140 -0.06800
C 	C 	0.52510 0.13010 0.91800 0.29200
O 	O 	0.69320 0.45970 0.67550 -0.35500
C 	C 	0.59250 0.24850 0.80900 0.01900
H 	H 	0.55960 0.20530 0.77150 0.07100
C 	C 	0.58790 0.22240 0.89180 -0.07900
C 	C 	0.64670 0.33940 0.78430 -0.04900
Mn	Mn	0.88991 0.52928 0.06353 1.30400
O 	O 	0.70330 0.47640 0.46010 -0.38400
O 	O 	0.71230 0.62160 0.54200 -0.33600
O 	O 	0.89640 0.68630 0.14520 -0.34200
O 	O 	0.00820 0.93770 0.36450 -0.36400
C 	C 	0.85780 0.71840 0.44730 0.02300
H 	H 	0.85900 0.73840 0.50150 0.03900
O 	O 	0.99550 0.88070 0.49330 -0.44700
C 	C 	0.73700 0.57160 0.47910 0.30000
C 	C 	0.80150 0.59810 0.34050 0.00700
H 	H 	0.76680 0.53570 0.32390 0.07300
C 	C 	0.85140 0.62770 0.19450 0.28700
C 	C 	0.80190 0.62940 0.42140 -0.05900
C 	C 	0.97490 0.86990 0.41800 0.28500
O 	O 	0.80680 0.54030 0.17550 -0.35500
C 	C 	0.90750 0.75150 0.30900 0.01300
H 	H 	0.94040 0.79470 0.27150 0.07200
C 	C 	0.91210 0.77760 0.39180 -0.07100
C 	C 	0.85330 0.66060 0.28430 -0.04500
Mn	Mn	0.38991 0.97072 0.93647 1.30000
O 	O 	0.20330 0.02360 0.53990 -0.38500
O 	O 	0.21230 0.87840 0.45800 -0.33500
O 	O 	0.39640 0.81370 0.85480 -0.34300
O 	O 	0.50820 0.56230 0.63550 -0.37100
C 	C 	0.35780 0.78160 0.55270 0.02500
H 	H 	0.35900 0.76160 0.49850 0.03900
O 	O 	0.49550 0.61930 0.50670 -0.44700
C 	C 	0.23700 0.92840 0.52090 0.30200
C 	C 	0.30150 0.90190 0.65950 0.00800
H 	H 	0.26680 0.96430 0.67610 0.07200
C 	C 	0.35140 0.87230 0.80550 0.28800
C 	C 	0.30190 0.87060 0.57860 -0.06100
C 	C 	0.47490 0.63010 0.58200 0.29000
O 	O 	0.30680 0.95970 0.82450 -0.35700
C 	C 	0.40750 0.74850 0.69100 0.01500
H 	H 	0.44040 0.70530 0.72850 0.07100
C 	C 	0.41210 0.72240 0.60820 -0.07300
C 	C 	0.35330 0.83940 0.71570 -0.04600
Mn	Mn	0.11009 0.02928 0.43647 1.30300
O 	O 	0.29670 0.97640 0.03990 -0.36900
O 	O 	0.28770 0.12160 0.95800 -0.32600
O 	O 	0.10360 0.18630 0.35480 -0.34200
O 	O 	0.99180 0.43770 0.13550 -0.37300
C 	C 	0.14220 0.21840 0.05270 0.01300
H 	H 	0.14100 0.23840 0.99850 0.04400
O 	O 	0.00450 0.38070 0.00670 -0.44700
C 	C 	0.26300 0.07160 0.02090 0.27800
C 	C 	0.19850 0.09810 0.15950 0.00100
H 	H 	0.23320 0.03570 0.17610 0.07300
C 	C 	0.14860 0.12770 0.30550 0.28600
C 	C 	0.19810 0.12940 0.07860 -0.05100
C 	C 	0.02510 0.36990 0.08200 0.29100
O 	O 	0.19320 0.04030 0.32450 -0.35600
C 	C 	0.09250 0.25150 0.19100 0.01100
H 	H 	0.05960 0.29470 0.22850 0.07300
C 	C 	0.08790 0.27760 0.10820 -0.06800
C 	C 	0.14670 0.16060 0.21570 -0.04300
Mn	Mn	0.38991 0.52928 0.43647 1.30400
O 	O 	0.20330 0.47640 0.03990 -0.38600
O 	O 	0.21230 0.62160 0.95800 -0.34100
O 	O 	0.39640 0.68630 0.35480 -0.34100
O 	O 	0.50820 0.93770 0.13550 -0.36900
C 	C 	0.35780 0.71840 0.05270 0.04100
H 	H 	0.35900 0.73840 0.99850 0.02900
O 	O 	0.49550 0.88070 0.00670 -0.44400
C 	C 	0.23700 0.57160 0.02090 0.30900
C 	C 	0.30150 0.59810 0.15950 0.01300
H 	H 	0.26680 0.53570 0.17610 0.07100
C 	C 	0.35140 0.62770 0.30550 0.28900
C 	C 	0.30190 0.62940 0.07860 -0.06800
C 	C 	0.47490 0.86990 0.08200 0.29200
O 	O 	0.30680 0.54030 0.32450 -0.35500
C 	C 	0.40750 0.75150 0.19100 0.01900
H 	H 	0.44040 0.79470 0.22850 0.07100
C 	C 	0.41210 0.77760 0.10820 -0.07900
C 	C 	0.35330 0.66060 0.21570 -0.04900
Mn	Mn	0.11009 0.47072 0.93647 1.30400
O 	O 	0.29670 0.52360 0.53990 -0.38400
O 	O 	0.28770 0.37840 0.45800 -0.33600
O 	O 	0.10360 0.31370 0.85480 -0.34200
O 	O 	0.99180 0.06230 0.63550 -0.36400
C 	C 	0.14220 0.28160 0.55270 0.02300
H 	H 	0.14100 0.26160 0.49850 0.03900
O 	O 	0.00450 0.11930 0.50670 -0.44700
C 	C 	0.26300 0.42840 0.52090 0.30000
C 	C 	0.19850 0.40190 0.65950 0.00700
H 	H 	0.23320 0.46430 0.67610 0.07300
C 	C 	0.14860 0.37230 0.80550 0.28700
C 	C 	0.19810 0.37060 0.57860 -0.05900
C 	C 	0.02510 0.13010 0.58200 0.28500
O 	O 	0.19320 0.45970 0.82450 -0.35500
C 	C 	0.09250 0.24850 0.69100 0.01300
H 	H 	0.05960 0.20530 0.72850 0.07200
C 	C 	0.08790 0.22240 0.60820 -0.07100
C 	C 	0.14670 0.33940 0.71570 -0.04500
Mn	Mn	0.61009 0.02928 0.06353 1.30000
O 	O 	0.79670 0.97640 0.46010 -0.38500
O 	O 	0.78770 0.12160 0.54200 -0.33500
O 	O 	0.60360 0.18630 0.14520 -0.34300
O 	O 	0.49180 0.43770 0.36450 -0.37100
C 	C 	0.64220 0.21840 0.44730 0.02500
H 	H 	0.64100 0.23840 0.50150 0.03900
O 	O 	0.50450 0.38070 0.49330 -0.44700
C 	C 	0.76300 0.07160 0.47910 0.30200
C 	C 	0.69850 0.09810 0.34050 0.00800
H 	H 	0.73320 0.03570 0.32390 0.07200
C 	C 	0.64860 0.12770 0.19450 0.28800
C 	C 	0.69810 0.12940 0.42140 -0.06100
C 	C 	0.52510 0.36990 0.41800 0.29000
O 	O 	0.69320 0.04030 0.17550 -0.35700
C 	C 	0.59250 0.25150 0.30900 0.01500
H 	H 	0.55960 0.29470 0.27150 0.07100
C 	C 	0.58790 0.27760 0.39180 -0.07300
C 	C 	0.64670 0.16060 0.28430 -0.04600
Mn	Mn	0.88991 0.97072 0.56353 1.30300
O 	O 	0.70330 0.02360 0.96010 -0.36900
O 	O 	0.71230 0.87840 0.04200 -0.32600
O 	O 	0.89640 0.81370 0.64520 -0.34200
O 	O 	0.00820 0.56230 0.86450 -0.37300
C 	C 	0.85780 0.78160 0.94730 0.01300
H 	H 	0.85900 0.76160 0.00150 0.04400
O 	O 	0.99550 0.61930 0.99330 -0.44700
C 	C 	0.73700 0.92840 0.97910 0.27800
C 	C 	0.80150 0.90190 0.84050 0.00100
H 	H 	0.76680 0.96430 0.82390 0.07300
C 	C 	0.85140 0.87230 0.69450 0.28600
C 	C 	0.80190 0.87060 0.92140 -0.05100
C 	C 	0.97490 0.63010 0.91800 0.29100
O 	O 	0.80680 0.95970 0.67550 -0.35600
C 	C 	0.90750 0.74850 0.80900 0.01100
H 	H 	0.94040 0.70530 0.77150 0.07300
C 	C 	0.91210 0.72240 0.89180 -0.06800
C 	C 	0.85330 0.83940 0.78430 -0.04300
