data_crystal

_cell_length_a 14.66660
_cell_length_b 12.39500
_cell_length_c 16.63510
_cell_angle_alpha 90.00000
_cell_angle_beta  90.00000
_cell_angle_gamma 90.00000

_symmetry_space_group_name_	'P 1'
_symmetry_space_group_name_H-M	'P 1'

loop_
_symmetry_equiv_pos_as_xyz
  x,y,z

loop_
_atom_site_label
_atom_site_type_symbol
_atom_site_fract_x
_atom_site_fract_y
_atom_site_fract_z
_atom_site_charge
Mn	Mn	0.60521 0.48211 0.57858 1.30500
O 	O 	0.59455 0.34596 0.66585 -0.35800
O 	O 	0.67486 0.48798 0.70128 -0.34600
O 	O 	0.70905 0.47937 0.48412 -0.38400
O 	O 	0.69872 0.63114 0.55141 -0.34400
O 	O 	0.49860 0.57987 0.62631 -0.40600
O 	O 	0.52326 0.38012 0.50253 -0.45200
C 	C 	0.63727 0.39929 0.71807 0.32400
C 	C 	0.64237 0.35806 0.80271 -0.13800
C 	C 	0.69562 0.41130 0.85950 0.13000
C 	C 	0.59313 0.26701 0.82532 0.14000
C 	C 	0.70287 0.37141 0.93758 -0.13600
C 	C 	0.59608 0.22966 0.90429 -0.15700
C 	C 	0.65238 0.28092 0.95974 0.12200
C 	C 	0.76842 0.42328 0.99526 0.33000
C 	C 	0.53716 0.13615 0.92866 0.37900
Mn	Mn	0.89479 0.51789 0.07858 1.30500
O 	O 	0.90545 0.65404 0.16585 -0.35800
O 	O 	0.82514 0.51202 0.20128 -0.34600
O 	O 	0.79095 0.52063 0.98412 -0.38500
O 	O 	0.80128 0.36886 0.05141 -0.34600
O 	O 	0.00140 0.42013 0.12631 -0.40500
O 	O 	0.97674 0.61988 0.00253 -0.45000
C 	C 	0.86273 0.60071 0.21807 0.32300
C 	C 	0.85763 0.64194 0.30271 -0.13800
C 	C 	0.80438 0.58870 0.35950 0.12900
C 	C 	0.90687 0.73299 0.32532 0.13900
C 	C 	0.79713 0.62859 0.43758 -0.13400
C 	C 	0.90392 0.77034 0.40429 -0.15500
C 	C 	0.84762 0.71908 0.45974 0.12000
C 	C 	0.73158 0.57672 0.49526 0.32700
C 	C 	0.96284 0.86385 0.42866 0.37200
Mn	Mn	0.39479 0.98211 0.92142 1.30300
O 	O 	0.40545 0.84596 0.83415 -0.35900
O 	O 	0.32514 0.98798 0.79872 -0.34800
O 	O 	0.29095 0.97937 0.01588 -0.37300
O 	O 	0.30128 0.13114 0.94859 -0.33500
O 	O 	0.50140 0.07987 0.87369 -0.40400
O 	O 	0.47674 0.88012 0.99747 -0.45800
C 	C 	0.36273 0.89929 0.78193 0.32400
C 	C 	0.35763 0.85806 0.69729 -0.13800
C 	C 	0.30438 0.91130 0.64050 0.12900
C 	C 	0.40687 0.76701 0.67468 0.13900
C 	C 	0.29713 0.87141 0.56242 -0.13400
C 	C 	0.40392 0.72966 0.59571 -0.15500
C 	C 	0.34762 0.78092 0.54026 0.12000
C 	C 	0.23158 0.92328 0.50474 0.32700
C 	C 	0.46284 0.63615 0.57134 0.37300
Mn	Mn	0.10521 0.01789 0.42142 1.30500
O 	O 	0.09455 0.15404 0.33415 -0.35800
O 	O 	0.17486 0.01202 0.29872 -0.34600
O 	O 	0.20905 0.02063 0.51588 -0.38300
O 	O 	0.19872 0.86886 0.44859 -0.34300
O 	O 	0.99860 0.92013 0.37369 -0.40500
O 	O 	0.02326 0.11988 0.49747 -0.45200
C 	C 	0.13727 0.10071 0.28193 0.32300
C 	C 	0.14237 0.14194 0.19729 -0.13700
C 	C 	0.19562 0.08870 0.14050 0.12600
C 	C 	0.09313 0.23299 0.17468 0.13800
C 	C 	0.20287 0.12859 0.06242 -0.13000
C 	C 	0.09608 0.27034 0.09571 -0.15300
C 	C 	0.15238 0.21908 0.04026 0.11600
C 	C 	0.26842 0.07672 0.00474 0.31100
C 	C 	0.03716 0.36385 0.07134 0.37000
Mn	Mn	0.39479 0.51789 0.42142 1.30500
O 	O 	0.40545 0.65404 0.33415 -0.35800
O 	O 	0.32514 0.51202 0.29872 -0.34600
O 	O 	0.29095 0.52063 0.51588 -0.38400
O 	O 	0.30128 0.36886 0.44859 -0.34400
O 	O 	0.50140 0.42013 0.37369 -0.40600
O 	O 	0.47674 0.61988 0.49747 -0.45200
C 	C 	0.36273 0.60071 0.28193 0.32400
C 	C 	0.35763 0.64194 0.19729 -0.13800
C 	C 	0.30438 0.58870 0.14050 0.13000
C 	C 	0.40687 0.73299 0.17468 0.14000
C 	C 	0.29713 0.62859 0.06242 -0.13600
C 	C 	0.40392 0.77034 0.09571 -0.15700
C 	C 	0.34762 0.71908 0.04026 0.12200
C 	C 	0.23158 0.57672 0.00474 0.33000
C 	C 	0.46284 0.86385 0.07134 0.37900
Mn	Mn	0.10521 0.48211 0.92142 1.30500
O 	O 	0.09455 0.34596 0.83415 -0.35800
O 	O 	0.17486 0.48798 0.79872 -0.34600
O 	O 	0.20905 0.47937 0.01588 -0.38500
O 	O 	0.19872 0.63114 0.94859 -0.34600
O 	O 	0.99860 0.57987 0.87369 -0.40500
O 	O 	0.02326 0.38012 0.99747 -0.45000
C 	C 	0.13727 0.39929 0.78193 0.32300
C 	C 	0.14237 0.35806 0.69729 -0.13800
C 	C 	0.19562 0.41130 0.64050 0.12900
C 	C 	0.09313 0.26701 0.67468 0.13900
C 	C 	0.20287 0.37141 0.56242 -0.13400
C 	C 	0.09608 0.22966 0.59571 -0.15500
C 	C 	0.15238 0.28092 0.54026 0.12000
C 	C 	0.26842 0.42328 0.50474 0.32700
C 	C 	0.03716 0.13615 0.57134 0.37200
Mn	Mn	0.60521 0.01789 0.07858 1.30300
O 	O 	0.59455 0.15404 0.16585 -0.35900
O 	O 	0.67486 0.01202 0.20128 -0.34800
O 	O 	0.70905 0.02063 0.98412 -0.37300
O 	O 	0.69872 0.86886 0.05141 -0.33500
O 	O 	0.49860 0.92013 0.12631 -0.40400
O 	O 	0.52326 0.11988 0.00253 -0.45800
C 	C 	0.63727 0.10071 0.21807 0.32400
C 	C 	0.64237 0.14194 0.30271 -0.13800
C 	C 	0.69562 0.08870 0.35950 0.12900
C 	C 	0.59313 0.23299 0.32532 0.13900
C 	C 	0.70287 0.12859 0.43758 -0.13400
C 	C 	0.59608 0.27034 0.40429 -0.15500
C 	C 	0.65238 0.21908 0.45974 0.12000
C 	C 	0.76842 0.07672 0.49526 0.32700
C 	C 	0.53716 0.36385 0.42866 0.37300
Mn	Mn	0.89479 0.98211 0.57858 1.30500
O 	O 	0.90545 0.84596 0.66585 -0.35800
O 	O 	0.82514 0.98798 0.70128 -0.34600
O 	O 	0.79095 0.97937 0.48412 -0.38300
O 	O 	0.80128 0.13114 0.55141 -0.34300
O 	O 	0.00140 0.07987 0.62631 -0.40500
O 	O 	0.97674 0.88012 0.50253 -0.45200
C 	C 	0.86273 0.89929 0.71807 0.32300
C 	C 	0.85763 0.85806 0.80271 -0.13700
C 	C 	0.80438 0.91130 0.85950 0.12600
C 	C 	0.90687 0.76701 0.82532 0.13800
C 	C 	0.79713 0.87141 0.93758 -0.13000
C 	C 	0.90392 0.72966 0.90429 -0.15300
C 	C 	0.84762 0.78092 0.95974 0.11600
C 	C 	0.73158 0.92328 0.99526 0.31100
C 	C 	0.96284 0.63615 0.92866 0.37000
