data_crystal

_cell_length_a 14.13800
_cell_length_b 11.68600
_cell_length_c 16.58300
_cell_angle_alpha 90.00000
_cell_angle_beta  90.00000
_cell_angle_gamma 90.00000

_symmetry_space_group_name_	'P 1'
_symmetry_space_group_name_H-M	'P 1'

loop_
_symmetry_equiv_pos_as_xyz
  x,y,z

loop_
_atom_site_label
_atom_site_type_symbol
_atom_site_fract_x
_atom_site_fract_y
_atom_site_fract_z
_atom_site_charge
Mn	Mn	0.61063 0.46860 0.56065 1.30400
O 	O 	0.79860 0.52350 0.95520 -0.38900
O 	O 	0.78670 0.37930 0.03990 -0.33600
O 	O 	0.60480 0.30930 0.64140 -0.34200
O 	O 	0.48890 0.05850 0.86380 -0.36900
C 	C 	0.63960 0.28570 0.94320 0.02000
H 	H 	0.63250 0.27210 0.99810 0.04400
O 	O 	0.50220 0.12020 0.99180 -0.43700
C 	C 	0.76250 0.43100 0.97500 0.30400
C 	C 	0.70080 0.39960 0.83520 0.01100
H 	H 	0.73600 0.46190 0.81730 0.07200
C 	C 	0.64970 0.36800 0.69280 0.29900
C 	C 	0.70090 0.36740 0.91780 -0.06100
C 	C 	0.52390 0.12800 0.91440 0.27700
O 	O 	0.69620 0.45190 0.67170 -0.35900
C 	C 	0.59340 0.24300 0.80590 0.01500
H 	H 	0.56260 0.19670 0.76860 0.07100
C 	C 	0.58750 0.22230 0.88850 -0.06700
C 	C 	0.64720 0.33600 0.78220 -0.05200
Mn	Mn	0.88937 0.53140 0.06065 1.30500
O 	O 	0.70140 0.47650 0.45520 -0.38700
O 	O 	0.71330 0.62070 0.53990 -0.33100
O 	O 	0.89520 0.69070 0.14140 -0.34100
O 	O 	0.01110 0.94150 0.36380 -0.36500
C 	C 	0.86040 0.71430 0.44320 0.01900
H 	H 	0.86750 0.72790 0.49810 0.04300
O 	O 	0.99780 0.87980 0.49180 -0.44100
C 	C 	0.73750 0.56900 0.47500 0.29900
C 	C 	0.79920 0.60040 0.33520 0.01000
H 	H 	0.76400 0.53810 0.31730 0.07200
C 	C 	0.85030 0.63200 0.19280 0.29900
C 	C 	0.79910 0.63260 0.41780 -0.06000
C 	C 	0.97610 0.87200 0.41440 0.27200
O 	O 	0.80380 0.54810 0.17170 -0.35900
C 	C 	0.90660 0.75700 0.30590 0.01400
H 	H 	0.93740 0.80330 0.26860 0.07100
C 	C 	0.91250 0.77770 0.38850 -0.06600
C 	C 	0.85280 0.66400 0.28220 -0.05100
Mn	Mn	0.38937 0.96860 0.93935 1.30100
O 	O 	0.20140 0.02350 0.54480 -0.38800
O 	O 	0.21330 0.87930 0.46010 -0.32900
O 	O 	0.39520 0.80930 0.85860 -0.34400
O 	O 	0.51110 0.55850 0.63620 -0.37200
C 	C 	0.36040 0.78570 0.55680 0.02100
H 	H 	0.36750 0.77210 0.50190 0.04200
O 	O 	0.49780 0.62020 0.50820 -0.44100
C 	C 	0.23750 0.93100 0.52500 0.30100
C 	C 	0.29920 0.89960 0.66480 0.01100
H 	H 	0.26400 0.96190 0.68270 0.07100
C 	C 	0.35030 0.86800 0.80720 0.30000
C 	C 	0.29910 0.86740 0.58220 -0.06100
C 	C 	0.47610 0.62800 0.58560 0.27800
O 	O 	0.30380 0.95190 0.82830 -0.36200
C 	C 	0.40660 0.74300 0.69410 0.01600
H 	H 	0.43740 0.69670 0.73140 0.07000
C 	C 	0.41250 0.72230 0.61150 -0.06900
C 	C 	0.35280 0.83600 0.71780 -0.05300
Mn	Mn	0.11063 0.03140 0.43935 1.30400
O 	O 	0.29860 0.97650 0.04480 -0.37200
O 	O 	0.28670 0.12070 0.96010 -0.32100
O 	O 	0.10480 0.19070 0.35860 -0.34200
O 	O 	0.98890 0.44150 0.13620 -0.37300
C 	C 	0.13960 0.21430 0.05680 0.01600
H 	H 	0.13250 0.22790 0.00190 0.04300
O 	O 	0.00220 0.37980 0.00820 -0.44100
C 	C 	0.26250 0.06900 0.02500 0.27800
C 	C 	0.20080 0.10040 0.16480 0.00600
H 	H 	0.23600 0.03810 0.18270 0.07100
C 	C 	0.14970 0.13200 0.30720 0.29800
C 	C 	0.20090 0.13260 0.08220 -0.05400
C 	C 	0.02390 0.37200 0.08560 0.27900
O 	O 	0.19620 0.04810 0.32830 -0.36100
C 	C 	0.09340 0.25700 0.19410 0.01300
H 	H 	0.06260 0.30330 0.23140 0.07100
C 	C 	0.08750 0.27770 0.11150 -0.06700
C 	C 	0.14720 0.16400 0.21780 -0.05100
Mn	Mn	0.38937 0.53140 0.43935 1.30500
O 	O 	0.20140 0.47650 0.04480 -0.38800
O 	O 	0.21330 0.62070 0.96010 -0.33500
O 	O 	0.39520 0.69070 0.35860 -0.34100
O 	O 	0.51110 0.94150 0.13620 -0.36800
C 	C 	0.36040 0.71430 0.05680 0.02100
H 	H 	0.36750 0.72790 0.00190 0.04400
O 	O 	0.49780 0.87980 0.00820 -0.43700
C 	C 	0.23750 0.56900 0.02500 0.30400
C 	C 	0.29920 0.60040 0.16480 0.01100
H 	H 	0.26400 0.53810 0.18270 0.07200
C 	C 	0.35030 0.63200 0.30720 0.29900
C 	C 	0.29910 0.63260 0.08220 -0.06100
C 	C 	0.47610 0.87200 0.08560 0.27700
O 	O 	0.30380 0.54810 0.32830 -0.35900
C 	C 	0.40660 0.75700 0.19410 0.01500
H 	H 	0.43740 0.80330 0.23140 0.07100
C 	C 	0.41250 0.77770 0.11150 -0.06700
C 	C 	0.35280 0.66400 0.21780 -0.05200
Mn	Mn	0.11063 0.46860 0.93935 1.30500
O 	O 	0.29860 0.52350 0.54480 -0.38700
O 	O 	0.28670 0.37930 0.46010 -0.33100
O 	O 	0.10480 0.30930 0.85860 -0.34100
O 	O 	0.98890 0.05850 0.63620 -0.36500
C 	C 	0.13960 0.28570 0.55680 0.01900
H 	H 	0.13250 0.27210 0.50190 0.04300
O 	O 	0.00220 0.12020 0.50820 -0.44100
C 	C 	0.26250 0.43100 0.52500 0.29900
C 	C 	0.20080 0.39960 0.66480 0.01000
H 	H 	0.23600 0.46190 0.68270 0.07200
C 	C 	0.14970 0.36800 0.80720 0.29900
C 	C 	0.20090 0.36740 0.58220 -0.06000
C 	C 	0.02390 0.12800 0.58560 0.27200
O 	O 	0.19620 0.45190 0.82830 -0.35900
C 	C 	0.09340 0.24300 0.69410 0.01400
H 	H 	0.06260 0.19670 0.73140 0.07100
C 	C 	0.08750 0.22230 0.61150 -0.06600
C 	C 	0.14720 0.33600 0.71780 -0.05100
Mn	Mn	0.61063 0.03140 0.06065 1.30100
O 	O 	0.79860 0.97650 0.45520 -0.38800
O 	O 	0.78670 0.12070 0.53990 -0.32900
O 	O 	0.60480 0.19070 0.14140 -0.34400
O 	O 	0.48890 0.44150 0.36380 -0.37200
C 	C 	0.63960 0.21430 0.44320 0.02100
H 	H 	0.63250 0.22790 0.49810 0.04200
O 	O 	0.50220 0.37980 0.49180 -0.44100
C 	C 	0.76250 0.06900 0.47500 0.30100
C 	C 	0.70080 0.10040 0.33520 0.01100
H 	H 	0.73600 0.03810 0.31730 0.07100
C 	C 	0.64970 0.13200 0.19280 0.30000
C 	C 	0.70090 0.13260 0.41780 -0.06100
C 	C 	0.52390 0.37200 0.41440 0.27800
O 	O 	0.69620 0.04810 0.17170 -0.36200
C 	C 	0.59340 0.25700 0.30590 0.01600
H 	H 	0.56260 0.30330 0.26860 0.07000
C 	C 	0.58750 0.27770 0.38850 -0.06900
C 	C 	0.64720 0.16400 0.28220 -0.05300
Mn	Mn	0.88937 0.96860 0.56065 1.30400
O 	O 	0.70140 0.02350 0.95520 -0.37200
O 	O 	0.71330 0.87930 0.03990 -0.32100
O 	O 	0.89520 0.80930 0.64140 -0.34200
O 	O 	0.01110 0.55850 0.86380 -0.37300
C 	C 	0.86040 0.78570 0.94320 0.01600
H 	H 	0.86750 0.77210 0.99810 0.04300
O 	O 	0.99780 0.62020 0.99180 -0.44100
C 	C 	0.73750 0.93100 0.97500 0.27800
C 	C 	0.79920 0.89960 0.83520 0.00600
H 	H 	0.76400 0.96190 0.81730 0.07100
C 	C 	0.85030 0.86800 0.69280 0.29800
C 	C 	0.79910 0.86740 0.91780 -0.05400
C 	C 	0.97610 0.62800 0.91440 0.27900
O 	O 	0.80380 0.95190 0.67170 -0.36100
C 	C 	0.90660 0.74300 0.80590 0.01300
H 	H 	0.93740 0.69670 0.76860 0.07100
C 	C 	0.91250 0.72230 0.88850 -0.06700
C 	C 	0.85280 0.83600 0.78220 -0.05100
