data_crystal

_cell_length_a 14.79600
_cell_length_b 12.42750
_cell_length_c 16.62660
_cell_angle_alpha 90.00000
_cell_angle_beta  90.00000
_cell_angle_gamma 90.00000

_symmetry_space_group_name_	'P 1'
_symmetry_space_group_name_H-M	'P 1'

loop_
_symmetry_equiv_pos_as_xyz
  x,y,z

loop_
_atom_site_label
_atom_site_type_symbol
_atom_site_fract_x
_atom_site_fract_y
_atom_site_fract_z
_atom_site_charge
O 	O 	0.52558 0.11980 0.00406 -0.45600
O 	O 	0.50140 0.08250 0.87482 -0.40800
C 	C 	0.76910 0.42360 0.99670 0.33200
O 	O 	0.59450 0.34920 0.66820 -0.37100
C 	C 	0.59640 0.23020 0.90550 -0.11000
C 	C 	0.59330 0.26930 0.82700 0.04900
H 	H 	0.55720 0.23310 0.78820 0.05800
C 	C 	0.63690 0.40050 0.71910 0.31900
O 	O 	0.67250 0.48990 0.70368 -0.35100
C 	C 	0.70350 0.37060 0.93880 -0.08900
C 	C 	0.65260 0.28070 0.96100 0.06300
H 	H 	0.65640 0.25380 0.01440 0.02900
C 	C 	0.64180 0.36010 0.80420 -0.08400
C 	C 	0.69510 0.41150 0.86110 0.03900
H 	H 	0.72620 0.47560 0.84690 0.05900
C 	C 	0.53800 0.13750 0.92980 0.36100
O 	O 	0.79110 0.51720 0.98600 -0.40000
O 	O 	0.80160 0.36740 0.05218 -0.34900
Mn	Mn	0.60452 0.48381 0.57981 1.30400
O 	O 	0.97442 0.88020 0.50406 -0.44800
O 	O 	0.99860 0.91750 0.37482 -0.40700
C 	C 	0.73090 0.57640 0.49670 0.32800
O 	O 	0.90550 0.65080 0.16820 -0.37000
C 	C 	0.90360 0.76980 0.40550 -0.10300
C 	C 	0.90670 0.73070 0.32700 0.04500
H 	H 	0.94280 0.76690 0.28820 0.05900
C 	C 	0.86310 0.59950 0.21910 0.31700
O 	O 	0.82750 0.51010 0.20368 -0.35100
C 	C 	0.79650 0.62940 0.43880 -0.08400
C 	C 	0.84740 0.71930 0.46100 0.05200
H 	H 	0.84360 0.74620 0.51440 0.03600
C 	C 	0.85820 0.63990 0.30420 -0.08100
C 	C 	0.80490 0.58850 0.36110 0.03600
H 	H 	0.77380 0.52440 0.34690 0.06000
C 	C 	0.96200 0.86250 0.42980 0.35200
O 	O 	0.70890 0.48280 0.48600 -0.39800
O 	O 	0.69840 0.63260 0.55218 -0.34600
Mn	Mn	0.89548 0.51619 0.07981 1.30400
O 	O 	0.47442 0.61980 0.49594 -0.44800
O 	O 	0.49860 0.58250 0.62518 -0.40800
C 	C 	0.23090 0.92360 0.50330 0.32800
O 	O 	0.40550 0.84920 0.83180 -0.37100
C 	C 	0.40360 0.73020 0.59450 -0.10300
C 	C 	0.40670 0.76930 0.67300 0.04600
H 	H 	0.44280 0.73310 0.71180 0.05900
C 	C 	0.36310 0.90050 0.78090 0.31800
O 	O 	0.32750 0.98990 0.79632 -0.35300
C 	C 	0.29650 0.87060 0.56120 -0.08400
C 	C 	0.34740 0.78070 0.53900 0.05200
H 	H 	0.34360 0.75380 0.48560 0.03600
C 	C 	0.35820 0.86010 0.69580 -0.08200
C 	C 	0.30490 0.91150 0.63890 0.03600
H 	H 	0.27380 0.97560 0.65310 0.06000
C 	C 	0.46200 0.63750 0.57020 0.35300
O 	O 	0.20890 0.01720 0.51400 -0.39700
O 	O 	0.19840 0.86740 0.44782 -0.34600
Mn	Mn	0.39548 0.98381 0.92019 1.30200
O 	O 	0.02558 0.38020 0.99594 -0.44700
O 	O 	0.00140 0.41750 0.12518 -0.40700
C 	C 	0.26910 0.07640 0.00330 0.31000
O 	O 	0.09450 0.15080 0.33180 -0.37000
C 	C 	0.09640 0.26980 0.09450 -0.09800
C 	C 	0.09330 0.23070 0.17300 0.04100
H 	H 	0.05720 0.26690 0.21180 0.06000
C 	C 	0.13690 0.09950 0.28090 0.31600
O 	O 	0.17250 0.01010 0.29632 -0.35100
C 	C 	0.20350 0.12940 0.06120 -0.07600
C 	C 	0.15260 0.21930 0.03900 0.04000
H 	H 	0.15640 0.24620 0.98560 0.04200
C 	C 	0.14180 0.13990 0.19580 -0.07800
C 	C 	0.19510 0.08850 0.13890 0.03000
H 	H 	0.22620 0.02440 0.15310 0.06100
C 	C 	0.03800 0.36250 0.07020 0.34900
O 	O 	0.29110 0.98280 0.01400 -0.38600
O 	O 	0.30160 0.13260 0.94782 -0.33700
Mn	Mn	0.10452 0.01619 0.42019 1.30400
O 	O 	0.47442 0.88020 0.99594 -0.45500
O 	O 	0.49860 0.91750 0.12518 -0.40700
C 	C 	0.23090 0.57640 0.00330 0.33300
O 	O 	0.40550 0.65080 0.33180 -0.37000
C 	C 	0.40360 0.76980 0.09450 -0.10900
C 	C 	0.40670 0.73070 0.17300 0.05000
H 	H 	0.44280 0.76690 0.21180 0.05800
C 	C 	0.36310 0.59950 0.28090 0.31900
O 	O 	0.32750 0.51010 0.29632 -0.35100
C 	C 	0.29650 0.62940 0.06120 -0.08900
C 	C 	0.34740 0.71930 0.03900 0.06300
H 	H 	0.34360 0.74620 0.98560 0.02900
C 	C 	0.35820 0.63990 0.19580 -0.08400
C 	C 	0.30490 0.58850 0.13890 0.03900
H 	H 	0.27380 0.52440 0.15310 0.05900
C 	C 	0.46200 0.86250 0.07020 0.36100
O 	O 	0.20890 0.48280 0.01400 -0.40000
O 	O 	0.19840 0.63260 0.94782 -0.34900
Mn	Mn	0.39548 0.51619 0.42019 1.30400
O 	O 	0.02558 0.11980 0.49594 -0.44800
O 	O 	0.00140 0.08250 0.62518 -0.40700
C 	C 	0.26910 0.42360 0.50330 0.32800
O 	O 	0.09450 0.34920 0.83180 -0.37000
C 	C 	0.09640 0.23020 0.59450 -0.10300
C 	C 	0.09330 0.26930 0.67300 0.04500
H 	H 	0.05720 0.23310 0.71180 0.05900
C 	C 	0.13690 0.40050 0.78090 0.31700
O 	O 	0.17250 0.48990 0.79632 -0.35100
C 	C 	0.20350 0.37060 0.56120 -0.08400
C 	C 	0.15260 0.28070 0.53900 0.05200
H 	H 	0.15640 0.25380 0.48560 0.03600
C 	C 	0.14180 0.36010 0.69580 -0.08100
C 	C 	0.19510 0.41150 0.63890 0.03600
H 	H 	0.22620 0.47560 0.65310 0.06000
C 	C 	0.03800 0.13750 0.57020 0.35200
O 	O 	0.29110 0.51720 0.51400 -0.39800
O 	O 	0.30160 0.36740 0.44782 -0.34600
Mn	Mn	0.10452 0.48381 0.92019 1.30400
O 	O 	0.52558 0.38020 0.50406 -0.44800
O 	O 	0.50140 0.41750 0.37482 -0.40800
C 	C 	0.76910 0.07640 0.49670 0.32800
O 	O 	0.59450 0.15080 0.16820 -0.37100
C 	C 	0.59640 0.26980 0.40550 -0.10300
C 	C 	0.59330 0.23070 0.32700 0.04600
H 	H 	0.55720 0.26690 0.28820 0.05900
C 	C 	0.63690 0.09950 0.21910 0.31800
O 	O 	0.67250 0.01010 0.20368 -0.35300
C 	C 	0.70350 0.12940 0.43880 -0.08400
C 	C 	0.65260 0.21930 0.46100 0.05200
H 	H 	0.65640 0.24620 0.51440 0.03600
C 	C 	0.64180 0.13990 0.30420 -0.08200
C 	C 	0.69510 0.08850 0.36110 0.03600
H 	H 	0.72620 0.02440 0.34690 0.06000
C 	C 	0.53800 0.36250 0.42980 0.35300
O 	O 	0.79110 0.98280 0.48600 -0.39700
O 	O 	0.80160 0.13260 0.55218 -0.34600
Mn	Mn	0.60452 0.01619 0.07981 1.30200
O 	O 	0.97442 0.61980 0.00406 -0.44700
O 	O 	0.99860 0.58250 0.87482 -0.40700
C 	C 	0.73090 0.92360 0.99670 0.31000
O 	O 	0.90550 0.84920 0.66820 -0.37000
C 	C 	0.90360 0.73020 0.90550 -0.09800
C 	C 	0.90670 0.76930 0.82700 0.04100
H 	H 	0.94280 0.73310 0.78820 0.06000
C 	C 	0.86310 0.90050 0.71910 0.31600
O 	O 	0.82750 0.98990 0.70368 -0.35100
C 	C 	0.79650 0.87060 0.93880 -0.07600
C 	C 	0.84740 0.78070 0.96100 0.04000
H 	H 	0.84360 0.75380 0.01440 0.04200
C 	C 	0.85820 0.86010 0.80420 -0.07800
C 	C 	0.80490 0.91150 0.86110 0.03000
H 	H 	0.77380 0.97560 0.84690 0.06100
C 	C 	0.96200 0.63750 0.92980 0.34900
O 	O 	0.70890 0.01720 0.98600 -0.38600
O 	O 	0.69840 0.86740 0.05218 -0.33700
Mn	Mn	0.89548 0.98381 0.57981 1.30400
