data_crystal

_cell_length_a 14.97730
_cell_length_b 12.50170
_cell_length_c 16.56290
_cell_angle_alpha 90.00000
_cell_angle_beta  90.00000
_cell_angle_gamma 90.00000

_symmetry_space_group_name_	'P 1'
_symmetry_space_group_name_H-M	'P 1'

loop_
_symmetry_equiv_pos_as_xyz
  x,y,z

loop_
_atom_site_label
_atom_site_type_symbol
_atom_site_fract_x
_atom_site_fract_y
_atom_site_fract_z
_atom_site_charge
C 	C 	0.76830 0.42140 0.00080 0.33800
O 	O 	0.52810 0.11920 0.00679 -0.45500
C 	C 	0.63410 0.40400 0.72280 0.32300
O 	O 	0.50080 0.08670 0.87730 -0.41300
C 	C 	0.59180 0.27210 0.83060 0.04600
H 	H 	0.55600 0.23780 0.79270 0.05800
C 	C 	0.53850 0.13890 0.93320 0.37100
Mn	Mn	0.60384 0.48631 0.58239 1.30500
O 	O 	0.59300 0.35360 0.67170 -0.37400
C 	C 	0.70260 0.36970 0.94280 -0.08900
C 	C 	0.65250 0.28060 0.96430 0.06400
H 	H 	0.65690 0.25320 0.01640 0.02900
C 	C 	0.64000 0.36150 0.80840 -0.08100
C 	C 	0.69390 0.41220 0.86500 0.03500
H 	H 	0.72420 0.47450 0.85120 0.06000
C 	C 	0.59640 0.23250 0.90940 -0.10900
O 	O 	0.80110 0.36550 0.05470 -0.35100
O 	O 	0.66950 0.49280 0.70800 -0.35200
O 	O 	0.79250 0.51360 0.98960 -0.40100
C 	C 	0.73170 0.57860 0.50080 0.34200
O 	O 	0.97190 0.88080 0.50679 -0.45100
C 	C 	0.86590 0.59600 0.22280 0.32200
O 	O 	0.99920 0.91330 0.37730 -0.41400
C 	C 	0.90820 0.72790 0.33060 0.04400
H 	H 	0.94400 0.76220 0.29270 0.05800
C 	C 	0.96150 0.86110 0.43320 0.36400
Mn	Mn	0.89616 0.51369 0.08239 1.30400
O 	O 	0.90700 0.64640 0.17170 -0.37400
C 	C 	0.79740 0.63030 0.44280 -0.08900
C 	C 	0.84750 0.71940 0.46430 0.05500
H 	H 	0.84310 0.74680 0.51640 0.03500
C 	C 	0.86000 0.63850 0.30840 -0.08000
C 	C 	0.80610 0.58780 0.36500 0.03400
H 	H 	0.77580 0.52550 0.35120 0.06000
C 	C 	0.90360 0.76750 0.40940 -0.10500
O 	O 	0.69890 0.63450 0.55470 -0.35000
O 	O 	0.83050 0.50720 0.20800 -0.35200
O 	O 	0.70750 0.48640 0.48960 -0.40400
C 	C 	0.23170 0.92140 0.49920 0.34200
O 	O 	0.47190 0.61920 0.49321 -0.45100
C 	C 	0.36590 0.90400 0.77720 0.32200
O 	O 	0.49920 0.58670 0.62270 -0.41400
C 	C 	0.40820 0.77210 0.66940 0.04400
H 	H 	0.44400 0.73780 0.70730 0.05800
C 	C 	0.46150 0.63890 0.56680 0.36400
Mn	Mn	0.39616 0.98631 0.91761 1.30300
O 	O 	0.40700 0.85360 0.82830 -0.37500
C 	C 	0.29740 0.86970 0.55720 -0.08900
C 	C 	0.34750 0.78060 0.53570 0.05500
H 	H 	0.34310 0.75320 0.48360 0.03500
C 	C 	0.36000 0.86150 0.69160 -0.08000
C 	C 	0.30610 0.91220 0.63500 0.03400
H 	H 	0.27580 0.97450 0.64880 0.06000
C 	C 	0.40360 0.73250 0.59060 -0.10500
O 	O 	0.19890 0.86550 0.44530 -0.35000
O 	O 	0.33050 0.99280 0.79200 -0.35300
O 	O 	0.20750 0.01360 0.51040 -0.40400
C 	C 	0.26830 0.07860 0.99920 0.34200
O 	O 	0.02810 0.38080 0.99321 -0.45400
C 	C 	0.13410 0.09600 0.27720 0.32200
O 	O 	0.00080 0.41330 0.12270 -0.41400
C 	C 	0.09180 0.22790 0.16940 0.04500
H 	H 	0.05600 0.26220 0.20730 0.05800
C 	C 	0.03850 0.36110 0.06680 0.36700
Mn	Mn	0.10384 0.01369 0.41761 1.30500
O 	O 	0.09300 0.14640 0.32830 -0.37400
C 	C 	0.20260 0.13030 0.05720 -0.09200
C 	C 	0.15250 0.21940 0.03570 0.05700
H 	H 	0.15690 0.24680 0.98360 0.03400
C 	C 	0.14000 0.13850 0.19160 -0.08100
C 	C 	0.19390 0.08780 0.13500 0.03500
H 	H 	0.22420 0.02550 0.14880 0.05900
C 	C 	0.09640 0.26750 0.09060 -0.10600
O 	O 	0.30110 0.13450 0.94530 -0.34900
O 	O 	0.16950 0.00720 0.29200 -0.35200
O 	O 	0.29250 0.98640 0.01040 -0.39900
C 	C 	0.23170 0.57860 0.99920 0.33700
O 	O 	0.47190 0.88080 0.99321 -0.45600
C 	C 	0.36590 0.59600 0.27720 0.32200
O 	O 	0.49920 0.91330 0.12270 -0.41400
C 	C 	0.40820 0.72790 0.16940 0.04600
H 	H 	0.44400 0.76220 0.20730 0.05800
C 	C 	0.46150 0.86110 0.06680 0.37100
Mn	Mn	0.39616 0.51369 0.41761 1.30500
O 	O 	0.40700 0.64640 0.32830 -0.37400
C 	C 	0.29740 0.63030 0.05720 -0.08900
C 	C 	0.34750 0.71940 0.03570 0.06400
H 	H 	0.34310 0.74680 0.98360 0.02900
C 	C 	0.36000 0.63850 0.19160 -0.08100
C 	C 	0.30610 0.58780 0.13500 0.03500
H 	H 	0.27580 0.52550 0.14880 0.06000
C 	C 	0.40360 0.76750 0.09060 -0.10900
O 	O 	0.19890 0.63450 0.94530 -0.35100
O 	O 	0.33050 0.50720 0.29200 -0.35200
O 	O 	0.20750 0.48640 0.01040 -0.40100
C 	C 	0.26830 0.42140 0.49920 0.34200
O 	O 	0.02810 0.11920 0.49321 -0.45100
C 	C 	0.13410 0.40400 0.77720 0.32200
O 	O 	0.00080 0.08670 0.62270 -0.41400
C 	C 	0.09180 0.27210 0.66940 0.04400
H 	H 	0.05600 0.23780 0.70730 0.05800
C 	C 	0.03850 0.13890 0.56680 0.36400
Mn	Mn	0.10384 0.48631 0.91761 1.30400
O 	O 	0.09300 0.35360 0.82830 -0.37400
C 	C 	0.20260 0.36970 0.55720 -0.08900
C 	C 	0.15250 0.28060 0.53570 0.05500
H 	H 	0.15690 0.25320 0.48360 0.03500
C 	C 	0.14000 0.36150 0.69160 -0.08000
C 	C 	0.19390 0.41220 0.63500 0.03400
H 	H 	0.22420 0.47450 0.64880 0.06000
C 	C 	0.09640 0.23250 0.59060 -0.10500
O 	O 	0.30110 0.36550 0.44530 -0.35000
O 	O 	0.16950 0.49280 0.79200 -0.35200
O 	O 	0.29250 0.51360 0.51040 -0.40400
C 	C 	0.76830 0.07860 0.50080 0.34200
O 	O 	0.52810 0.38080 0.50679 -0.45100
C 	C 	0.63410 0.09600 0.22280 0.32200
O 	O 	0.50080 0.41330 0.37730 -0.41400
C 	C 	0.59180 0.22790 0.33060 0.04400
H 	H 	0.55600 0.26220 0.29270 0.05800
C 	C 	0.53850 0.36110 0.43320 0.36400
Mn	Mn	0.60384 0.01369 0.08239 1.30300
O 	O 	0.59300 0.14640 0.17170 -0.37500
C 	C 	0.70260 0.13030 0.44280 -0.08900
C 	C 	0.65250 0.21940 0.46430 0.05500
H 	H 	0.65690 0.24680 0.51640 0.03500
C 	C 	0.64000 0.13850 0.30840 -0.08000
C 	C 	0.69390 0.08780 0.36500 0.03400
H 	H 	0.72420 0.02550 0.35120 0.06000
C 	C 	0.59640 0.26750 0.40940 -0.10500
O 	O 	0.80110 0.13450 0.55470 -0.35000
O 	O 	0.66950 0.00720 0.20800 -0.35300
O 	O 	0.79250 0.98640 0.48960 -0.40400
C 	C 	0.73170 0.92140 0.00080 0.34200
O 	O 	0.97190 0.61920 0.00679 -0.45400
C 	C 	0.86590 0.90400 0.72280 0.32200
O 	O 	0.99920 0.58670 0.87730 -0.41400
C 	C 	0.90820 0.77210 0.83060 0.04500
H 	H 	0.94400 0.73780 0.79270 0.05800
C 	C 	0.96150 0.63890 0.93320 0.36700
Mn	Mn	0.89616 0.98631 0.58239 1.30500
O 	O 	0.90700 0.85360 0.67170 -0.37400
C 	C 	0.79740 0.86970 0.94280 -0.09200
C 	C 	0.84750 0.78060 0.96430 0.05700
H 	H 	0.84310 0.75320 0.01640 0.03400
C 	C 	0.86000 0.86150 0.80840 -0.08100
C 	C 	0.80610 0.91220 0.86500 0.03500
H 	H 	0.77580 0.97450 0.85120 0.05900
C 	C 	0.90360 0.73250 0.90940 -0.10600
O 	O 	0.69890 0.86550 0.05470 -0.34900
O 	O 	0.83050 0.99280 0.70800 -0.35200
O 	O 	0.70750 0.01360 0.98960 -0.39900
