data_crystal

_cell_length_a 14.64520
_cell_length_b 12.36720
_cell_length_c 16.66480
_cell_angle_alpha 90.00000
_cell_angle_beta  90.00000
_cell_angle_gamma 90.00000

_symmetry_space_group_name_	'P 1'
_symmetry_space_group_name_H-M	'P 1'

loop_
_symmetry_equiv_pos_as_xyz
  x,y,z

loop_
_atom_site_label
_atom_site_type_symbol
_atom_site_fract_x
_atom_site_fract_y
_atom_site_fract_z
_atom_site_charge
O 	O 	0.67534 0.48793 0.70085 -0.34400
O 	O 	0.79050 0.52091 0.98389 -0.39300
O 	O 	0.59521 0.34538 0.66611 -0.36400
O 	O 	0.80125 0.36977 0.05109 -0.34300
C 	C 	0.76860 0.42630 0.99452 0.31800
C 	C 	0.63842 0.39760 0.71656 0.30300
C 	C 	0.64270 0.35820 0.80239 -0.07200
O 	O 	0.50136 0.07963 0.87377 -0.40200
Mn	Mn	0.60517 0.48140 0.57834 1.30400
C 	C 	0.53700 0.13660 0.92869 0.35300
C 	C 	0.65220 0.28160 0.95925 0.05600
H 	H 	0.65580 0.25540 0.01270 0.03100
C 	C 	0.59630 0.22970 0.90395 -0.10200
C 	C 	0.70300 0.37190 0.93676 -0.08000
C 	C 	0.59330 0.26700 0.82546 0.04100
H 	H 	0.55710 0.22990 0.78700 0.06100
C 	C 	0.69590 0.41190 0.85911 0.03000
H 	H 	0.72740 0.47610 0.84460 0.06200
O 	O 	0.52298 0.12024 0.00259 -0.45500
O 	O 	0.82466 0.51207 0.20085 -0.34500
O 	O 	0.70950 0.47909 0.48389 -0.39200
O 	O 	0.90479 0.65462 0.16611 -0.36400
O 	O 	0.69875 0.63023 0.55109 -0.34200
C 	C 	0.73140 0.57370 0.49452 0.31300
C 	C 	0.86158 0.60240 0.21656 0.30200
C 	C 	0.85730 0.64180 0.30239 -0.06900
O 	O 	0.99864 0.92037 0.37377 -0.40200
Mn	Mn	0.89483 0.51860 0.07834 1.30300
C 	C 	0.96300 0.86340 0.42869 0.34500
C 	C 	0.84780 0.71840 0.45925 0.04500
H 	H 	0.84420 0.74460 0.51270 0.03700
C 	C 	0.90370 0.77030 0.40395 -0.09500
C 	C 	0.79700 0.62810 0.43676 -0.07500
C 	C 	0.90670 0.73300 0.32546 0.03700
H 	H 	0.94290 0.77010 0.28700 0.06200
C 	C 	0.80410 0.58810 0.35911 0.02600
H 	H 	0.77260 0.52390 0.34460 0.06300
O 	O 	0.97702 0.87976 0.50259 -0.44900
O 	O 	0.32466 0.98793 0.79915 -0.34700
O 	O 	0.20950 0.02091 0.51611 -0.39200
O 	O 	0.40479 0.84538 0.83389 -0.36500
O 	O 	0.19875 0.86977 0.44891 -0.34100
C 	C 	0.23140 0.92630 0.50548 0.31300
C 	C 	0.36158 0.89760 0.78344 0.30200
C 	C 	0.35730 0.85820 0.69761 -0.06900
O 	O 	0.49864 0.57963 0.62623 -0.40300
Mn	Mn	0.39483 0.98140 0.92166 1.30200
C 	C 	0.46300 0.63660 0.57131 0.34500
C 	C 	0.34780 0.78160 0.54075 0.04500
H 	H 	0.34420 0.75540 0.48730 0.03700
C 	C 	0.40370 0.72970 0.59605 -0.09600
C 	C 	0.29700 0.87190 0.56324 -0.07500
C 	C 	0.40670 0.76700 0.67454 0.03700
H 	H 	0.44290 0.72990 0.71300 0.06200
C 	C 	0.30410 0.91190 0.64089 0.02600
H 	H 	0.27260 0.97610 0.65540 0.06300
O 	O 	0.47702 0.62024 0.49741 -0.44800
O 	O 	0.17534 0.01207 0.29915 -0.34500
O 	O 	0.29050 0.97909 0.01611 -0.38100
O 	O 	0.09521 0.15462 0.33389 -0.36500
O 	O 	0.30125 0.13023 0.94891 -0.33300
C 	C 	0.26860 0.07370 0.00548 0.29500
C 	C 	0.13842 0.10240 0.28344 0.30100
C 	C 	0.14270 0.14180 0.19761 -0.06600
O 	O 	0.00136 0.42037 0.12623 -0.40200
Mn	Mn	0.10517 0.01860 0.42166 1.30400
C 	C 	0.03700 0.36340 0.07131 0.34200
C 	C 	0.15220 0.21840 0.04075 0.03300
H 	H 	0.15580 0.24460 0.98730 0.04300
C 	C 	0.09630 0.27030 0.09605 -0.09000
C 	C 	0.20300 0.12810 0.06324 -0.06700
C 	C 	0.09330 0.23300 0.17454 0.03300
H 	H 	0.05710 0.27010 0.21300 0.06300
C 	C 	0.19590 0.08810 0.14089 0.02000
H 	H 	0.22740 0.02390 0.15540 0.06400
O 	O 	0.02298 0.37976 0.99741 -0.44700
O 	O 	0.32466 0.51207 0.29915 -0.34500
O 	O 	0.20950 0.47909 0.01611 -0.39400
O 	O 	0.40479 0.65462 0.33389 -0.36500
O 	O 	0.19875 0.63023 0.94891 -0.34400
C 	C 	0.23140 0.57370 0.00548 0.31800
C 	C 	0.36158 0.60240 0.28344 0.30300
C 	C 	0.35730 0.64180 0.19761 -0.07200
O 	O 	0.49864 0.92037 0.12623 -0.40200
Mn	Mn	0.39483 0.51860 0.42166 1.30400
C 	C 	0.46300 0.86340 0.07131 0.35300
C 	C 	0.34780 0.71840 0.04075 0.05600
H 	H 	0.34420 0.74460 0.98730 0.03100
C 	C 	0.40370 0.77030 0.09605 -0.10200
C 	C 	0.29700 0.62810 0.06324 -0.08000
C 	C 	0.40670 0.73300 0.17454 0.04100
H 	H 	0.44290 0.77010 0.21300 0.06100
C 	C 	0.30410 0.58810 0.14089 0.03000
H 	H 	0.27260 0.52390 0.15540 0.06200
O 	O 	0.47702 0.87976 0.99741 -0.45500
O 	O 	0.17534 0.48793 0.79915 -0.34500
O 	O 	0.29050 0.52091 0.51611 -0.39200
O 	O 	0.09521 0.34538 0.83389 -0.36400
O 	O 	0.30125 0.36977 0.44891 -0.34200
C 	C 	0.26860 0.42630 0.50548 0.31300
C 	C 	0.13842 0.39760 0.78344 0.30200
C 	C 	0.14270 0.35820 0.69761 -0.06900
O 	O 	0.00136 0.07963 0.62623 -0.40200
Mn	Mn	0.10517 0.48140 0.92166 1.30300
C 	C 	0.03700 0.13660 0.57131 0.34500
C 	C 	0.15220 0.28160 0.54075 0.04500
H 	H 	0.15580 0.25540 0.48730 0.03700
C 	C 	0.09630 0.22970 0.59605 -0.09500
C 	C 	0.20300 0.37190 0.56324 -0.07500
C 	C 	0.09330 0.26700 0.67454 0.03700
H 	H 	0.05710 0.22990 0.71300 0.06200
C 	C 	0.19590 0.41190 0.64089 0.02600
H 	H 	0.22740 0.47610 0.65540 0.06300
O 	O 	0.02298 0.12024 0.49741 -0.44900
O 	O 	0.67534 0.01207 0.20085 -0.34700
O 	O 	0.79050 0.97909 0.48389 -0.39200
O 	O 	0.59521 0.15462 0.16611 -0.36500
O 	O 	0.80125 0.13023 0.55109 -0.34100
C 	C 	0.76860 0.07370 0.49452 0.31300
C 	C 	0.63842 0.10240 0.21656 0.30200
C 	C 	0.64270 0.14180 0.30239 -0.06900
O 	O 	0.50136 0.42037 0.37377 -0.40300
Mn	Mn	0.60517 0.01860 0.07834 1.30200
C 	C 	0.53700 0.36340 0.42869 0.34500
C 	C 	0.65220 0.21840 0.45925 0.04500
H 	H 	0.65580 0.24460 0.51270 0.03700
C 	C 	0.59630 0.27030 0.40395 -0.09600
C 	C 	0.70300 0.12810 0.43676 -0.07500
C 	C 	0.59330 0.23300 0.32546 0.03700
H 	H 	0.55710 0.27010 0.28700 0.06200
C 	C 	0.69590 0.08810 0.35911 0.02600
H 	H 	0.72740 0.02390 0.34460 0.06300
O 	O 	0.52298 0.37976 0.50259 -0.44800
O 	O 	0.82466 0.98793 0.70085 -0.34500
O 	O 	0.70950 0.02091 0.98389 -0.38100
O 	O 	0.90479 0.84538 0.66611 -0.36500
O 	O 	0.69875 0.86977 0.05109 -0.33300
C 	C 	0.73140 0.92630 0.99452 0.29500
C 	C 	0.86158 0.89760 0.71656 0.30100
C 	C 	0.85730 0.85820 0.80239 -0.06600
O 	O 	0.99864 0.57963 0.87377 -0.40200
Mn	Mn	0.89483 0.98140 0.57834 1.30400
C 	C 	0.96300 0.63660 0.92869 0.34200
C 	C 	0.84780 0.78160 0.95925 0.03300
H 	H 	0.84420 0.75540 0.01270 0.04300
C 	C 	0.90370 0.72970 0.90395 -0.09000
C 	C 	0.79700 0.87190 0.93676 -0.06700
C 	C 	0.90670 0.76700 0.82546 0.03300
H 	H 	0.94290 0.72990 0.78700 0.06300
C 	C 	0.80410 0.91190 0.85911 0.02000
H 	H 	0.77260 0.97610 0.84460 0.06400
O 	O 	0.97702 0.62024 0.00259 -0.44700
