data_crystal

_cell_length_a 14.14000
_cell_length_b 11.31900
_cell_length_c 16.60000
_cell_angle_alpha 90.00000
_cell_angle_beta  90.00000
_cell_angle_gamma 90.00000

_symmetry_space_group_name_	'P 1'
_symmetry_space_group_name_H-M	'P 1'

loop_
_symmetry_equiv_pos_as_xyz
  x,y,z

loop_
_atom_site_label
_atom_site_type_symbol
_atom_site_fract_x
_atom_site_fract_y
_atom_site_fract_z
_atom_site_charge
Mn	Mn	0.61180 0.46610 0.55630 1.30500
O 	O 	0.80140 0.52400 0.94760 -0.36300
O 	O 	0.78420 0.38100 0.03700 -0.34900
O 	O 	0.60920 0.29600 0.63520 -0.30500
O 	O 	0.48320 0.05200 0.86440 -0.35400
C 	C 	0.63800 0.29000 0.93900 -0.00400
H 	H 	0.63060 0.27860 0.99460 0.04900
O 	O 	0.49820 0.12200 0.99130 -0.44400
C 	C 	0.76200 0.42300 0.97400 0.28900
C 	C 	0.70500 0.39800 0.82900 -0.00600
H 	H 	0.74720 0.45470 0.80940 0.07800
C 	C 	0.65200 0.36800 0.68900 0.23700
C 	C 	0.69900 0.37100 0.91100 -0.04300
C 	C 	0.51900 0.13300 0.91700 0.25200
O 	O 	0.70420 0.44800 0.66320 -0.33400
C 	C 	0.59600 0.24400 0.80300 0.00300
H 	H 	0.56660 0.19430 0.76540 0.07500
C 	C 	0.58600 0.22100 0.88300 -0.05100
C 	C 	0.64500 0.33500 0.77800 -0.02800
Mn	Mn	0.88820 0.53390 0.05630 1.30600
O 	O 	0.69860 0.47600 0.44760 -0.36100
O 	O 	0.71580 0.61900 0.53700 -0.34700
O 	O 	0.89080 0.70400 0.13520 -0.30400
O 	O 	0.01680 0.94800 0.36440 -0.34600
C 	C 	0.86200 0.71000 0.43900 -0.00800
H 	H 	0.86940 0.72140 0.49460 0.04800
O 	O 	0.00180 0.87800 0.49130 -0.43800
C 	C 	0.73800 0.57700 0.47400 0.28600
C 	C 	0.79500 0.60200 0.32900 -0.00800
H 	H 	0.75280 0.54530 0.30940 0.07900
C 	C 	0.84800 0.63200 0.18900 0.23600
C 	C 	0.80100 0.62900 0.41100 -0.04000
C 	C 	0.98100 0.86700 0.41700 0.23800
O 	O 	0.79580 0.55200 0.16320 -0.33400
C 	C 	0.90400 0.75600 0.30300 -0.00200
H 	H 	0.93340 0.80570 0.26540 0.07600
C 	C 	0.91400 0.77900 0.38300 -0.04700
C 	C 	0.85500 0.66500 0.27800 -0.02600
Mn	Mn	0.38820 0.96610 0.94370 1.30200
O 	O 	0.19860 0.02400 0.55240 -0.36400
O 	O 	0.21580 0.88100 0.46300 -0.34600
O 	O 	0.39080 0.79600 0.86480 -0.30700
O 	O 	0.51680 0.55200 0.63560 -0.35700
C 	C 	0.36200 0.79000 0.56100 -0.00300
H 	H 	0.36940 0.77860 0.50540 0.04700
O 	O 	0.50180 0.62200 0.50870 -0.44700
C 	C 	0.23800 0.92300 0.52600 0.29100
C 	C 	0.29500 0.89800 0.67100 -0.00500
H 	H 	0.25280 0.95470 0.69060 0.07800
C 	C 	0.34800 0.86800 0.81100 0.23700
C 	C 	0.30100 0.87100 0.58900 -0.04400
C 	C 	0.48100 0.63300 0.58300 0.25300
O 	O 	0.29580 0.94800 0.83680 -0.33600
C 	C 	0.40400 0.74400 0.69700 0.00400
H 	H 	0.43340 0.69430 0.73460 0.07400
C 	C 	0.41400 0.72100 0.61700 -0.05300
C 	C 	0.35500 0.83500 0.72200 -0.03000
Mn	Mn	0.11180 0.03390 0.44370 1.30300
O 	O 	0.30140 0.97600 0.05240 -0.34600
O 	O 	0.28420 0.11900 0.96300 -0.33400
O 	O 	0.10920 0.20400 0.36480 -0.30600
O 	O 	0.98320 0.44800 0.13560 -0.35400
C 	C 	0.13800 0.21000 0.06100 -0.01100
H 	H 	0.13060 0.22140 0.00540 0.04700
O 	O 	0.99820 0.37800 0.00870 -0.44300
C 	C 	0.26200 0.07700 0.02600 0.26200
C 	C 	0.20500 0.10200 0.17100 -0.01300
H 	H 	0.24720 0.04530 0.19060 0.07800
C 	C 	0.15200 0.13200 0.31100 0.23500
C 	C 	0.19900 0.12900 0.08900 -0.03500
C 	C 	0.01900 0.36700 0.08300 0.24600
O 	O 	0.20420 0.05200 0.33680 -0.33700
C 	C 	0.09600 0.25600 0.19700 -0.00200
H 	H 	0.06660 0.30570 0.23460 0.07500
C 	C 	0.08600 0.27900 0.11700 -0.04900
C 	C 	0.14500 0.16500 0.22200 -0.02700
Mn	Mn	0.38820 0.53390 0.44370 1.30600
O 	O 	0.19860 0.47600 0.05240 -0.36200
O 	O 	0.21580 0.61900 0.96300 -0.34800
O 	O 	0.39080 0.70400 0.36480 -0.30400
O 	O 	0.51680 0.94800 0.13560 -0.35400
C 	C 	0.36200 0.71000 0.06100 -0.00400
H 	H 	0.36940 0.72140 0.00540 0.04900
O 	O 	0.50180 0.87800 0.00870 -0.44400
C 	C 	0.23800 0.57700 0.02600 0.28900
C 	C 	0.29500 0.60200 0.17100 -0.00600
H 	H 	0.25280 0.54530 0.19060 0.07800
C 	C 	0.34800 0.63200 0.31100 0.23700
C 	C 	0.30100 0.62900 0.08900 -0.04300
C 	C 	0.48100 0.86700 0.08300 0.25200
O 	O 	0.29580 0.55200 0.33680 -0.33400
C 	C 	0.40400 0.75600 0.19700 0.00300
H 	H 	0.43340 0.80570 0.23460 0.07500
C 	C 	0.41400 0.77900 0.11700 -0.05100
C 	C 	0.35500 0.66500 0.22200 -0.02800
Mn	Mn	0.11180 0.46610 0.94370 1.30600
O 	O 	0.30140 0.52400 0.55240 -0.36100
O 	O 	0.28420 0.38100 0.46300 -0.34700
O 	O 	0.10920 0.29600 0.86480 -0.30400
O 	O 	0.98320 0.05200 0.63560 -0.34600
C 	C 	0.13800 0.29000 0.56100 -0.00800
H 	H 	0.13060 0.27860 0.50540 0.04800
O 	O 	0.99820 0.12200 0.50870 -0.43800
C 	C 	0.26200 0.42300 0.52600 0.28600
C 	C 	0.20500 0.39800 0.67100 -0.00800
H 	H 	0.24720 0.45470 0.69060 0.07900
C 	C 	0.15200 0.36800 0.81100 0.23600
C 	C 	0.19900 0.37100 0.58900 -0.04000
C 	C 	0.01900 0.13300 0.58300 0.23800
O 	O 	0.20420 0.44800 0.83680 -0.33400
C 	C 	0.09600 0.24400 0.69700 -0.00200
H 	H 	0.06660 0.19430 0.73460 0.07600
C 	C 	0.08600 0.22100 0.61700 -0.04700
C 	C 	0.14500 0.33500 0.72200 -0.02600
Mn	Mn	0.61180 0.03390 0.05630 1.30200
O 	O 	0.80140 0.97600 0.44760 -0.36400
O 	O 	0.78420 0.11900 0.53700 -0.34600
O 	O 	0.60920 0.20400 0.13520 -0.30700
O 	O 	0.48320 0.44800 0.36440 -0.35700
C 	C 	0.63800 0.21000 0.43900 -0.00300
H 	H 	0.63060 0.22140 0.49460 0.04700
O 	O 	0.49820 0.37800 0.49130 -0.44700
C 	C 	0.76200 0.07700 0.47400 0.29100
C 	C 	0.70500 0.10200 0.32900 -0.00500
H 	H 	0.74720 0.04530 0.30940 0.07800
C 	C 	0.65200 0.13200 0.18900 0.23700
C 	C 	0.69900 0.12900 0.41100 -0.04400
C 	C 	0.51900 0.36700 0.41700 0.25300
O 	O 	0.70420 0.05200 0.16320 -0.33600
C 	C 	0.59600 0.25600 0.30300 0.00400
H 	H 	0.56660 0.30570 0.26540 0.07400
C 	C 	0.58600 0.27900 0.38300 -0.05300
C 	C 	0.64500 0.16500 0.27800 -0.03000
Mn	Mn	0.88820 0.96610 0.55630 1.30300
O 	O 	0.69860 0.02400 0.94760 -0.34600
O 	O 	0.71580 0.88100 0.03700 -0.33400
O 	O 	0.89080 0.79600 0.63520 -0.30600
O 	O 	0.01680 0.55200 0.86440 -0.35400
C 	C 	0.86200 0.79000 0.93900 -0.01100
H 	H 	0.86940 0.77860 0.99460 0.04700
O 	O 	0.00180 0.62200 0.99130 -0.44300
C 	C 	0.73800 0.92300 0.97400 0.26200
C 	C 	0.79500 0.89800 0.82900 -0.01300
H 	H 	0.75280 0.95470 0.80940 0.07800
C 	C 	0.84800 0.86800 0.68900 0.23500
C 	C 	0.80100 0.87100 0.91100 -0.03500
C 	C 	0.98100 0.63300 0.91700 0.24600
O 	O 	0.79580 0.94800 0.66320 -0.33700
C 	C 	0.90400 0.74400 0.80300 -0.00200
H 	H 	0.93340 0.69430 0.76540 0.07500
C 	C 	0.91400 0.72100 0.88300 -0.04900
C 	C 	0.85500 0.83500 0.77800 -0.02700
