data_crystal

_cell_length_a 14.70790
_cell_length_b 12.39310
_cell_length_c 16.64580
_cell_angle_alpha 90.00000
_cell_angle_beta  90.00000
_cell_angle_gamma 90.00000

_symmetry_space_group_name_	'P 1'
_symmetry_space_group_name_H-M	'P 1'

loop_
_symmetry_equiv_pos_as_xyz
  x,y,z

loop_
_atom_site_label
_atom_site_type_symbol
_atom_site_fract_x
_atom_site_fract_y
_atom_site_fract_z
_atom_site_charge
O 	O 	0.50141 0.08060 0.87398 -0.40100
O 	O 	0.59520 0.34680 0.66660 -0.36600
O 	O 	0.52422 0.12010 0.00315 -0.45300
O 	O 	0.67410 0.48870 0.70191 -0.34600
C 	C 	0.53760 0.13710 0.92910 0.35400
C 	C 	0.59320 0.26750 0.82580 0.04400
H 	H 	0.55760 0.23050 0.78700 0.06100
C 	C 	0.76870 0.42540 0.99510 0.32700
O 	O 	0.79070 0.51910 0.98469 -0.39700
C 	C 	0.65280 0.28120 0.95970 0.06100
H 	H 	0.65720 0.25410 0.01300 0.03000
C 	C 	0.70300 0.37150 0.93760 -0.08600
C 	C 	0.69540 0.41130 0.85990 0.03500
H 	H 	0.72710 0.47520 0.84540 0.06000
C 	C 	0.59640 0.23020 0.90470 -0.10400
C 	C 	0.64240 0.35920 0.80340 -0.07600
C 	C 	0.63770 0.39840 0.71750 0.30800
O 	O 	0.80170 0.36870 0.05136 -0.34600
Mn	Mn	0.60497 0.48245 0.57893 1.30400
O 	O 	0.99859 0.91940 0.37398 -0.40200
O 	O 	0.90480 0.65320 0.16660 -0.36700
O 	O 	0.97578 0.87990 0.50315 -0.44700
O 	O 	0.82590 0.51130 0.20191 -0.34700
C 	C 	0.96240 0.86290 0.42910 0.34500
C 	C 	0.90680 0.73250 0.32580 0.03900
H 	H 	0.94240 0.76950 0.28700 0.06100
C 	C 	0.73130 0.57460 0.49510 0.32100
O 	O 	0.70930 0.48090 0.48469 -0.39700
C 	C 	0.84720 0.71880 0.45970 0.04900
H 	H 	0.84280 0.74590 0.51300 0.03600
C 	C 	0.79700 0.62850 0.43760 -0.08100
C 	C 	0.80460 0.58870 0.35990 0.03100
H 	H 	0.77290 0.52480 0.34540 0.06100
C 	C 	0.90360 0.76980 0.40470 -0.09700
C 	C 	0.85760 0.64080 0.30340 -0.07300
C 	C 	0.86230 0.60160 0.21750 0.30700
O 	O 	0.69830 0.63130 0.55136 -0.34300
Mn	Mn	0.89503 0.51755 0.07893 1.30400
O 	O 	0.49859 0.58060 0.62602 -0.40300
O 	O 	0.40480 0.84680 0.83340 -0.36800
O 	O 	0.47578 0.62010 0.49685 -0.44700
O 	O 	0.32590 0.98870 0.79809 -0.34800
C 	C 	0.46240 0.63710 0.57090 0.34500
C 	C 	0.40680 0.76750 0.67420 0.03900
H 	H 	0.44240 0.73050 0.71300 0.06100
C 	C 	0.23130 0.92540 0.50490 0.32100
O 	O 	0.20930 0.01910 0.51531 -0.39600
C 	C 	0.34720 0.78120 0.54030 0.04900
H 	H 	0.34280 0.75410 0.48700 0.03600
C 	C 	0.29700 0.87150 0.56240 -0.08100
C 	C 	0.30460 0.91130 0.64010 0.03100
H 	H 	0.27290 0.97520 0.65460 0.06100
C 	C 	0.40360 0.73020 0.59530 -0.09800
C 	C 	0.35760 0.85920 0.69660 -0.07400
C 	C 	0.36230 0.89840 0.78250 0.30700
O 	O 	0.19830 0.86870 0.44864 -0.34300
Mn	Mn	0.39503 0.98245 0.92107 1.30200
O 	O 	0.00141 0.41940 0.12602 -0.40200
O 	O 	0.09520 0.15320 0.33340 -0.36700
O 	O 	0.02422 0.37990 0.99685 -0.44600
O 	O 	0.17410 0.01130 0.29809 -0.34700
C 	C 	0.03760 0.36290 0.07090 0.34200
C 	C 	0.09320 0.23250 0.17420 0.03400
H 	H 	0.05760 0.26950 0.21300 0.06200
C 	C 	0.26870 0.07460 0.00490 0.30300
O 	O 	0.29070 0.98090 0.01531 -0.38500
C 	C 	0.15280 0.21880 0.04030 0.03700
H 	H 	0.15720 0.24590 0.98700 0.04200
C 	C 	0.20300 0.12850 0.06240 -0.07200
C 	C 	0.19540 0.08870 0.14010 0.02500
H 	H 	0.22710 0.02480 0.15460 0.06200
C 	C 	0.09640 0.26980 0.09530 -0.09200
C 	C 	0.14240 0.14080 0.19660 -0.07000
C 	C 	0.13770 0.10160 0.28250 0.30600
O 	O 	0.30170 0.13130 0.94864 -0.33400
Mn	Mn	0.10497 0.01755 0.42107 1.30400
O 	O 	0.49859 0.91940 0.12602 -0.40200
O 	O 	0.40480 0.65320 0.33340 -0.36700
O 	O 	0.47578 0.87990 0.99685 -0.45400
O 	O 	0.32590 0.51130 0.29809 -0.34700
C 	C 	0.46240 0.86290 0.07090 0.35300
C 	C 	0.40680 0.73250 0.17420 0.04300
H 	H 	0.44240 0.76950 0.21300 0.06000
C 	C 	0.23130 0.57460 0.00490 0.32600
O 	O 	0.20930 0.48090 0.01531 -0.39800
C 	C 	0.34720 0.71880 0.04030 0.06000
H 	H 	0.34280 0.74590 0.98700 0.03000
C 	C 	0.29700 0.62850 0.06240 -0.08600
C 	C 	0.30460 0.58870 0.14010 0.03500
H 	H 	0.27290 0.52480 0.15460 0.06000
C 	C 	0.40360 0.76980 0.09530 -0.10400
C 	C 	0.35760 0.64080 0.19660 -0.07600
C 	C 	0.36230 0.60160 0.28250 0.30800
O 	O 	0.19830 0.63130 0.94864 -0.34600
Mn	Mn	0.39503 0.51755 0.42107 1.30400
O 	O 	0.00141 0.08060 0.62602 -0.40200
O 	O 	0.09520 0.34680 0.83340 -0.36700
O 	O 	0.02422 0.12010 0.49685 -0.44700
O 	O 	0.17410 0.48870 0.79809 -0.34700
C 	C 	0.03760 0.13710 0.57090 0.34500
C 	C 	0.09320 0.26750 0.67420 0.03900
H 	H 	0.05760 0.23050 0.71300 0.06100
C 	C 	0.26870 0.42540 0.50490 0.32100
O 	O 	0.29070 0.51910 0.51531 -0.39700
C 	C 	0.15280 0.28120 0.54030 0.04900
H 	H 	0.15720 0.25410 0.48700 0.03600
C 	C 	0.20300 0.37150 0.56240 -0.08100
C 	C 	0.19540 0.41130 0.64010 0.03100
H 	H 	0.22710 0.47520 0.65460 0.06100
C 	C 	0.09640 0.23020 0.59530 -0.09700
C 	C 	0.14240 0.35920 0.69660 -0.07300
C 	C 	0.13770 0.39840 0.78250 0.30700
O 	O 	0.30170 0.36870 0.44864 -0.34300
Mn	Mn	0.10497 0.48245 0.92107 1.30400
O 	O 	0.50141 0.41940 0.37398 -0.40300
O 	O 	0.59520 0.15320 0.16660 -0.36800
O 	O 	0.52422 0.37990 0.50315 -0.44700
O 	O 	0.67410 0.01130 0.20191 -0.34800
C 	C 	0.53760 0.36290 0.42910 0.34500
C 	C 	0.59320 0.23250 0.32580 0.03900
H 	H 	0.55760 0.26950 0.28700 0.06100
C 	C 	0.76870 0.07460 0.49510 0.32100
O 	O 	0.79070 0.98090 0.48469 -0.39600
C 	C 	0.65280 0.21880 0.45970 0.04900
H 	H 	0.65720 0.24590 0.51300 0.03600
C 	C 	0.70300 0.12850 0.43760 -0.08100
C 	C 	0.69540 0.08870 0.35990 0.03100
H 	H 	0.72710 0.02480 0.34540 0.06100
C 	C 	0.59640 0.26980 0.40470 -0.09800
C 	C 	0.64240 0.14080 0.30340 -0.07400
C 	C 	0.63770 0.10160 0.21750 0.30700
O 	O 	0.80170 0.13130 0.55136 -0.34300
Mn	Mn	0.60497 0.01755 0.07893 1.30200
O 	O 	0.99859 0.58060 0.87398 -0.40200
O 	O 	0.90480 0.84680 0.66660 -0.36700
O 	O 	0.97578 0.62010 0.00315 -0.44600
O 	O 	0.82590 0.98870 0.70191 -0.34700
C 	C 	0.96240 0.63710 0.92910 0.34200
C 	C 	0.90680 0.76750 0.82580 0.03400
H 	H 	0.94240 0.73050 0.78700 0.06200
C 	C 	0.73130 0.92540 0.99510 0.30300
O 	O 	0.70930 0.01910 0.98469 -0.38500
C 	C 	0.84720 0.78120 0.95970 0.03700
H 	H 	0.84280 0.75410 0.01300 0.04200
C 	C 	0.79700 0.87150 0.93760 -0.07200
C 	C 	0.80460 0.91130 0.85990 0.02500
H 	H 	0.77290 0.97520 0.84540 0.06200
C 	C 	0.90360 0.73020 0.90470 -0.09200
C 	C 	0.85760 0.85920 0.80340 -0.07000
C 	C 	0.86230 0.89840 0.71750 0.30600
O 	O 	0.69830 0.86870 0.05136 -0.33400
Mn	Mn	0.89503 0.98245 0.57893 1.30400
