data_crystal

_cell_length_a 14.92870
_cell_length_b 12.49900
_cell_length_c 16.58140
_cell_angle_alpha 90.00000
_cell_angle_beta  90.00000
_cell_angle_gamma 90.00000

_symmetry_space_group_name_	'P 1'
_symmetry_space_group_name_H-M	'P 1'

loop_
_symmetry_equiv_pos_as_xyz
  x,y,z

loop_
_atom_site_label
_atom_site_type_symbol
_atom_site_fract_x
_atom_site_fract_y
_atom_site_fract_z
_atom_site_charge
Mn	Mn	0.60410 0.48591 0.58143 1.30300
O 	O 	0.79177 0.51580 0.98821 -0.39200
O 	O 	0.80154 0.36592 0.05358 -0.35000
O 	O 	0.59201 0.35245 0.67052 -0.36400
O 	O 	0.50145 0.08519 0.87635 -0.41200
C 	C 	0.65298 0.28080 0.96329 0.06100
H 	H 	0.65760 0.25350 0.01530 0.03000
O 	O 	0.52765 0.11921 0.00551 -0.45700
C 	C 	0.76854 0.42048 0.99881 0.32600
C 	C 	0.69402 0.41214 0.86382 0.03500
H 	H 	0.72450 0.47440 0.84980 0.06000
C 	C 	0.63408 0.40394 0.72266 0.31000
C 	C 	0.70263 0.37062 0.94150 -0.08900
C 	C 	0.53869 0.13850 0.93182 0.36900
O 	O 	0.67059 0.49162 0.70615 -0.35000
C 	C 	0.59214 0.27078 0.82931 0.04600
H 	H 	0.55660 0.23610 0.79140 0.05800
C 	C 	0.59647 0.23162 0.90767 -0.10800
C 	C 	0.64023 0.36115 0.80707 -0.08000
Mn	Mn	0.89590 0.51409 0.08143 1.30400
O 	O 	0.70823 0.48420 0.48821 -0.39000
O 	O 	0.69846 0.63408 0.55358 -0.34600
O 	O 	0.90799 0.64755 0.17052 -0.36300
O 	O 	0.99855 0.91481 0.37635 -0.41100
C 	C 	0.84702 0.71920 0.46329 0.04900
H 	H 	0.84240 0.74650 0.51530 0.03600
O 	O 	0.97235 0.88079 0.50551 -0.45100
C 	C 	0.73146 0.57952 0.49881 0.32100
C 	C 	0.80598 0.58786 0.36382 0.03000
H 	H 	0.77550 0.52560 0.34980 0.06100
C 	C 	0.86592 0.59606 0.22266 0.30900
C 	C 	0.79737 0.62938 0.44150 -0.08300
C 	C 	0.96131 0.86150 0.43182 0.36100
O 	O 	0.82941 0.50838 0.20615 -0.35000
C 	C 	0.90786 0.72922 0.32931 0.04100
H 	H 	0.94340 0.76390 0.29140 0.06000
C 	C 	0.90353 0.76838 0.40767 -0.10200
C 	C 	0.85977 0.63885 0.30707 -0.07700
Mn	Mn	0.39590 0.98591 0.91857 1.30200
O 	O 	0.20823 0.01580 0.51179 -0.38900
O 	O 	0.19846 0.86592 0.44642 -0.34500
O 	O 	0.40799 0.85245 0.82948 -0.36400
O 	O 	0.49855 0.58519 0.62365 -0.41200
C 	C 	0.34702 0.78080 0.53671 0.05000
H 	H 	0.34240 0.75350 0.48470 0.03700
O 	O 	0.47235 0.61921 0.49449 -0.45000
C 	C 	0.23146 0.92048 0.50119 0.32100
C 	C 	0.30598 0.91214 0.63618 0.03100
H 	H 	0.27550 0.97440 0.65020 0.06100
C 	C 	0.36592 0.90394 0.77734 0.30900
C 	C 	0.29737 0.87062 0.55850 -0.08300
C 	C 	0.46131 0.63850 0.56818 0.36100
O 	O 	0.32941 0.99162 0.79385 -0.35100
C 	C 	0.40786 0.77078 0.67069 0.04100
H 	H 	0.44340 0.73610 0.70860 0.05900
C 	C 	0.40353 0.73162 0.59233 -0.10200
C 	C 	0.35977 0.86115 0.69293 -0.07700
Mn	Mn	0.10410 0.01409 0.41857 1.30400
O 	O 	0.29177 0.98420 0.01179 -0.37800
O 	O 	0.30154 0.13408 0.94642 -0.33700
O 	O 	0.09201 0.14755 0.32948 -0.36300
O 	O 	0.00145 0.41481 0.12365 -0.41100
C 	C 	0.15298 0.21920 0.03671 0.03600
H 	H 	0.15760 0.24650 0.98470 0.04300
O 	O 	0.02765 0.38079 0.99449 -0.44900
C 	C 	0.26854 0.07952 0.00119 0.30300
C 	C 	0.19402 0.08786 0.13618 0.02400
H 	H 	0.22450 0.02560 0.15020 0.06200
C 	C 	0.13408 0.09606 0.27734 0.30800
C 	C 	0.20263 0.12938 0.05850 -0.07400
C 	C 	0.03869 0.36150 0.06818 0.35700
O 	O 	0.17059 0.00838 0.29385 -0.35000
C 	C 	0.09214 0.22922 0.17069 0.03600
H 	H 	0.05660 0.26390 0.20860 0.06100
C 	C 	0.09647 0.26838 0.09233 -0.09600
C 	C 	0.14023 0.13885 0.19293 -0.07300
Mn	Mn	0.39590 0.51409 0.41857 1.30400
O 	O 	0.20823 0.48420 0.01179 -0.39100
O 	O 	0.19846 0.63408 0.94642 -0.34900
O 	O 	0.40799 0.64755 0.32948 -0.36300
O 	O 	0.49855 0.91481 0.12365 -0.41100
C 	C 	0.34702 0.71920 0.03671 0.06200
H 	H 	0.34240 0.74650 0.98470 0.03000
O 	O 	0.47235 0.88079 0.99449 -0.45700
C 	C 	0.23146 0.57952 0.00119 0.32600
C 	C 	0.30598 0.58786 0.13618 0.03500
H 	H 	0.27550 0.52560 0.15020 0.06000
C 	C 	0.36592 0.59606 0.27734 0.31000
C 	C 	0.29737 0.62938 0.05850 -0.08900
C 	C 	0.46131 0.86150 0.06818 0.36900
O 	O 	0.32941 0.50838 0.29385 -0.35000
C 	C 	0.40786 0.72922 0.17069 0.04600
H 	H 	0.44340 0.76390 0.20860 0.05800
C 	C 	0.40353 0.76838 0.09233 -0.10800
C 	C 	0.35977 0.63885 0.19293 -0.08000
Mn	Mn	0.10410 0.48591 0.91857 1.30400
O 	O 	0.29177 0.51580 0.51179 -0.39000
O 	O 	0.30154 0.36592 0.44642 -0.34600
O 	O 	0.09201 0.35245 0.82948 -0.36300
O 	O 	0.00145 0.08519 0.62365 -0.41100
C 	C 	0.15298 0.28080 0.53671 0.04900
H 	H 	0.15760 0.25350 0.48470 0.03600
O 	O 	0.02765 0.11921 0.49449 -0.45100
C 	C 	0.26854 0.42048 0.50119 0.32100
C 	C 	0.19402 0.41214 0.63618 0.03000
H 	H 	0.22450 0.47440 0.65020 0.06100
C 	C 	0.13408 0.40394 0.77734 0.30900
C 	C 	0.20263 0.37062 0.55850 -0.08300
C 	C 	0.03869 0.13850 0.56818 0.36100
O 	O 	0.17059 0.49162 0.79385 -0.35000
C 	C 	0.09214 0.27078 0.67069 0.04100
H 	H 	0.05660 0.23610 0.70860 0.06000
C 	C 	0.09647 0.23162 0.59233 -0.10200
C 	C 	0.14023 0.36115 0.69293 -0.07700
Mn	Mn	0.60410 0.01409 0.08143 1.30200
O 	O 	0.79177 0.98420 0.48821 -0.38900
O 	O 	0.80154 0.13408 0.55358 -0.34500
O 	O 	0.59201 0.14755 0.17052 -0.36400
O 	O 	0.50145 0.41481 0.37635 -0.41200
C 	C 	0.65298 0.21920 0.46329 0.05000
H 	H 	0.65760 0.24650 0.51530 0.03700
O 	O 	0.52765 0.38079 0.50551 -0.45000
C 	C 	0.76854 0.07952 0.49881 0.32100
C 	C 	0.69402 0.08786 0.36382 0.03100
H 	H 	0.72450 0.02560 0.34980 0.06100
C 	C 	0.63408 0.09606 0.22266 0.30900
C 	C 	0.70263 0.12938 0.44150 -0.08300
C 	C 	0.53869 0.36150 0.43182 0.36100
O 	O 	0.67059 0.00838 0.20615 -0.35100
C 	C 	0.59214 0.22922 0.32931 0.04100
H 	H 	0.55660 0.26390 0.29140 0.05900
C 	C 	0.59647 0.26838 0.40767 -0.10200
C 	C 	0.64023 0.13885 0.30707 -0.07700
Mn	Mn	0.89590 0.98591 0.58143 1.30400
O 	O 	0.70823 0.01580 0.98821 -0.37800
O 	O 	0.69846 0.86592 0.05358 -0.33700
O 	O 	0.90799 0.85245 0.67052 -0.36300
O 	O 	0.99855 0.58519 0.87635 -0.41100
C 	C 	0.84702 0.78080 0.96329 0.03600
H 	H 	0.84240 0.75350 0.01530 0.04300
O 	O 	0.97235 0.61921 0.00551 -0.44900
C 	C 	0.73146 0.92048 0.99881 0.30300
C 	C 	0.80598 0.91214 0.86382 0.02400
H 	H 	0.77550 0.97440 0.84980 0.06200
C 	C 	0.86592 0.90394 0.72266 0.30800
C 	C 	0.79737 0.87062 0.94150 -0.07400
C 	C 	0.96131 0.63850 0.93182 0.35700
O 	O 	0.82941 0.99162 0.70615 -0.35000
C 	C 	0.90786 0.77078 0.82931 0.03600
H 	H 	0.94340 0.73610 0.79140 0.06100
C 	C 	0.90353 0.73162 0.90767 -0.09600
C 	C 	0.85977 0.86115 0.80707 -0.07300
