data_crystal

_cell_length_a 14.19850
_cell_length_b 12.07450
_cell_length_c 16.56160
_cell_angle_alpha 90.00000
_cell_angle_beta  90.00000
_cell_angle_gamma 90.00000

_symmetry_space_group_name_	'P 1'
_symmetry_space_group_name_H-M	'P 1'

loop_
_symmetry_equiv_pos_as_xyz
  x,y,z

loop_
_atom_site_label
_atom_site_type_symbol
_atom_site_fract_x
_atom_site_fract_y
_atom_site_fract_z
_atom_site_charge
Mn	Mn	0.60887 0.47342 0.56774 1.30600
O 	O 	0.79280 0.52410 0.96760 -0.38800
O 	O 	0.79030 0.37740 0.04570 -0.34600
O 	O 	0.60190 0.32250 0.65060 -0.33900
O 	O 	0.49630 0.06680 0.86740 -0.38600
C 	C 	0.64400 0.28160 0.95130 0.05100
H 	H 	0.64270 0.26090 0.00540 0.03000
O 	O 	0.50940 0.11900 0.99540 -0.45100
C 	C 	0.76440 0.42820 0.98470 0.31700
C 	C 	0.69640 0.40460 0.84650 0.02000
H 	H 	0.72870 0.46810 0.83100 0.06900
C 	C 	0.64560 0.38040 0.70260 0.28500
C 	C 	0.69850 0.37010 0.92740 -0.07300
C 	C 	0.52770 0.13130 0.92050 0.32600
O 	O 	0.68790 0.46800 0.68380 -0.34900
C 	C 	0.59340 0.25410 0.81350 0.03200
H 	H 	0.55950 0.21400 0.77540 0.06600
C 	C 	0.59050 0.22270 0.89480 -0.09300
C 	C 	0.64610 0.34420 0.78960 -0.06000
Mn	Mn	0.89113 0.52658 0.06774 1.30400
O 	O 	0.70720 0.47590 0.46760 -0.38700
O 	O 	0.70970 0.62260 0.54570 -0.34200
O 	O 	0.89810 0.67750 0.15060 -0.34100
O 	O 	0.00370 0.93320 0.36740 -0.38200
C 	C 	0.85600 0.71840 0.45130 0.03300
H 	H 	0.85730 0.73910 0.50540 0.03900
O 	O 	0.99060 0.88100 0.49540 -0.45500
C 	C 	0.73560 0.57180 0.48470 0.30700
C 	C 	0.80360 0.59540 0.34650 0.01300
H 	H 	0.77130 0.53190 0.33100 0.07000
C 	C 	0.85440 0.61960 0.20260 0.28400
C 	C 	0.80150 0.62990 0.42740 -0.06500
C 	C 	0.97230 0.86870 0.42050 0.31800
O 	O 	0.81210 0.53200 0.18380 -0.34900
C 	C 	0.90660 0.74590 0.31350 0.02500
H 	H 	0.94050 0.78600 0.27540 0.06700
C 	C 	0.90950 0.77730 0.39480 -0.08500
C 	C 	0.85390 0.65580 0.28960 -0.05600
Mn	Mn	0.39113 0.97342 0.93226 1.30000
O 	O 	0.20720 0.02410 0.53240 -0.38800
O 	O 	0.20970 0.87740 0.45430 -0.34100
O 	O 	0.39810 0.82250 0.84940 -0.34200
O 	O 	0.50370 0.56680 0.63260 -0.38900
C 	C 	0.35600 0.78160 0.54870 0.03500
H 	H 	0.35730 0.76090 0.49460 0.03800
O 	O 	0.49060 0.61900 0.50460 -0.45500
C 	C 	0.23560 0.92820 0.51530 0.31000
C 	C 	0.30360 0.90460 0.65350 0.01500
H 	H 	0.27130 0.96810 0.66900 0.07000
C 	C 	0.35440 0.88040 0.79740 0.28400
C 	C 	0.30150 0.87010 0.57260 -0.06600
C 	C 	0.47230 0.63130 0.57950 0.32400
O 	O 	0.31210 0.96800 0.81620 -0.35100
C 	C 	0.40660 0.75410 0.68650 0.02700
H 	H 	0.44050 0.71400 0.72460 0.06600
C 	C 	0.40950 0.72270 0.60520 -0.08700
C 	C 	0.35390 0.84420 0.71040 -0.05700
Mn	Mn	0.10887 0.02658 0.43226 1.30300
O 	O 	0.29280 0.97590 0.03240 -0.37100
O 	O 	0.29030 0.12260 0.95430 -0.33100
O 	O 	0.10190 0.17750 0.34940 -0.34100
O 	O 	0.99630 0.43320 0.13260 -0.39100
C 	C 	0.14400 0.21840 0.04870 0.02300
H 	H 	0.14270 0.23910 0.99460 0.04400
O 	O 	0.00940 0.38100 0.00460 -0.45500
C 	C 	0.26440 0.07180 0.01530 0.28400
C 	C 	0.19640 0.09540 0.15350 0.00700
H 	H 	0.22870 0.03190 0.16900 0.07000
C 	C 	0.14560 0.11960 0.29740 0.28300
C 	C 	0.19850 0.12990 0.07260 -0.05600
C 	C 	0.02770 0.36870 0.07950 0.32400
O 	O 	0.18790 0.03200 0.31620 -0.35000
C 	C 	0.09340 0.24590 0.18650 0.02300
H 	H 	0.05950 0.28600 0.22460 0.06800
C 	C 	0.09050 0.27730 0.10520 -0.08300
C 	C 	0.14610 0.15580 0.21040 -0.05400
Mn	Mn	0.39113 0.52658 0.43226 1.30500
O 	O 	0.20720 0.47590 0.03240 -0.38900
O 	O 	0.20970 0.62260 0.95430 -0.34700
O 	O 	0.39810 0.67750 0.34940 -0.34000
O 	O 	0.50370 0.93320 0.13260 -0.38700
C 	C 	0.35600 0.71840 0.04870 0.05000
H 	H 	0.35730 0.73910 0.99460 0.02900
O 	O 	0.49060 0.88100 0.00460 -0.45200
C 	C 	0.23560 0.57180 0.01530 0.31600
C 	C 	0.30360 0.59540 0.15350 0.01900
H 	H 	0.27130 0.53190 0.16900 0.06900
C 	C 	0.35440 0.61960 0.29740 0.28500
C 	C 	0.30150 0.62990 0.07260 -0.07300
C 	C 	0.47230 0.86870 0.07950 0.32600
O 	O 	0.31210 0.53200 0.31620 -0.34900
C 	C 	0.40660 0.74590 0.18650 0.03200
H 	H 	0.44050 0.78600 0.22460 0.06600
C 	C 	0.40950 0.77730 0.10520 -0.09300
C 	C 	0.35390 0.65580 0.21040 -0.06000
Mn	Mn	0.10887 0.47342 0.93226 1.30400
O 	O 	0.29280 0.52410 0.53240 -0.38700
O 	O 	0.29030 0.37740 0.45430 -0.34200
O 	O 	0.10190 0.32250 0.84940 -0.34100
O 	O 	0.99630 0.06680 0.63260 -0.38200
C 	C 	0.14400 0.28160 0.54870 0.03300
H 	H 	0.14270 0.26090 0.49460 0.03900
O 	O 	0.00940 0.11900 0.50460 -0.45500
C 	C 	0.26440 0.42820 0.51530 0.30700
C 	C 	0.19640 0.40460 0.65350 0.01300
H 	H 	0.22870 0.46810 0.66900 0.07000
C 	C 	0.14560 0.38040 0.79740 0.28400
C 	C 	0.19850 0.37010 0.57260 -0.06500
C 	C 	0.02770 0.13130 0.57950 0.31800
O 	O 	0.18790 0.46800 0.81620 -0.34900
C 	C 	0.09340 0.25410 0.68650 0.02500
H 	H 	0.05950 0.21400 0.72460 0.06700
C 	C 	0.09050 0.22270 0.60520 -0.08500
C 	C 	0.14610 0.34420 0.71040 -0.05600
Mn	Mn	0.60887 0.02658 0.06774 1.30000
O 	O 	0.79280 0.97590 0.46760 -0.38800
O 	O 	0.79030 0.12260 0.54570 -0.34100
O 	O 	0.60190 0.17750 0.15060 -0.34200
O 	O 	0.49630 0.43320 0.36740 -0.38900
C 	C 	0.64400 0.21840 0.45130 0.03500
H 	H 	0.64270 0.23910 0.50540 0.03800
O 	O 	0.50940 0.38100 0.49540 -0.45500
C 	C 	0.76440 0.07180 0.48470 0.31000
C 	C 	0.69640 0.09540 0.34650 0.01500
H 	H 	0.72870 0.03190 0.33100 0.07000
C 	C 	0.64560 0.11960 0.20260 0.28400
C 	C 	0.69850 0.12990 0.42740 -0.06600
C 	C 	0.52770 0.36870 0.42050 0.32400
O 	O 	0.68790 0.03200 0.18380 -0.35100
C 	C 	0.59340 0.24590 0.31350 0.02700
H 	H 	0.55950 0.28600 0.27540 0.06600
C 	C 	0.59050 0.27730 0.39480 -0.08700
C 	C 	0.64610 0.15580 0.28960 -0.05700
Mn	Mn	0.89113 0.97342 0.56774 1.30300
O 	O 	0.70720 0.02410 0.96760 -0.37100
O 	O 	0.70970 0.87740 0.04570 -0.33100
O 	O 	0.89810 0.82250 0.65060 -0.34100
O 	O 	0.00370 0.56680 0.86740 -0.39100
C 	C 	0.85600 0.78160 0.95130 0.02300
H 	H 	0.85730 0.76090 0.00540 0.04400
O 	O 	0.99060 0.61900 0.99540 -0.45500
C 	C 	0.73560 0.92820 0.98470 0.28400
C 	C 	0.80360 0.90460 0.84650 0.00700
H 	H 	0.77130 0.96810 0.83100 0.07000
C 	C 	0.85440 0.88040 0.70260 0.28300
C 	C 	0.80150 0.87010 0.92740 -0.05600
C 	C 	0.97230 0.63130 0.92050 0.32400
O 	O 	0.81210 0.96800 0.68380 -0.35000
C 	C 	0.90660 0.75410 0.81350 0.02300
H 	H 	0.94050 0.71400 0.77540 0.06800
C 	C 	0.90950 0.72270 0.89480 -0.08300
C 	C 	0.85390 0.84420 0.78960 -0.05400
