data_crystal

_cell_length_a 15.17970
_cell_length_b 15.30900
_cell_length_c 15.30900
_cell_angle_alpha 120.00000
_cell_angle_beta  90.00000
_cell_angle_gamma 90.00000

_symmetry_space_group_name_	'P 1'
_symmetry_space_group_name_H-M	'P 1'

loop_
_symmetry_equiv_pos_as_xyz
  x,y,z

loop_
_atom_site_label
_atom_site_type_symbol
_atom_site_fract_x
_atom_site_fract_y
_atom_site_fract_z
_atom_site_charge
La	La	0.75000 0.66667 0.33334 1.73000
La	La	0.75000 0.33333 0.66666 1.74000
La	La	0.25000 0.33333 0.66666 1.72800
La	La	0.25000 0.66667 0.33334 1.71700
Co	Co	-0.00000 0.50000 -0.00000 1.04900
Co	Co	-0.00000 0.50000 0.50000 1.09900
Co	Co	-0.00000 1.00000 0.50000 1.04900
Co	Co	0.50000 0.50000 -0.00000 1.11700
Co	Co	0.50000 1.00000 0.50000 1.11700
Co	Co	0.50000 0.50000 0.50000 1.16600
H 	H 	0.83530 0.78940 0.15370 0.09600
H 	H 	0.76080 0.71260 0.08960 0.07000
H 	H 	0.83530 0.36430 0.21060 0.12400
H 	H 	0.76080 0.37700 0.28740 0.11400
H 	H 	0.83530 0.84630 0.63570 0.12400
H 	H 	0.76080 0.91040 0.62300 0.08500
H 	H 	0.83530 0.21060 0.84630 0.17300
H 	H 	0.76080 0.28740 0.91040 0.16300
H 	H 	0.83530 0.63570 0.78940 0.14700
H 	H 	0.76080 0.62300 0.71260 0.12000
H 	H 	0.83530 0.15370 0.36430 0.14600
H 	H 	0.76080 0.08960 0.37700 0.14800
H 	H 	0.66470 0.63570 0.84630 0.12800
H 	H 	0.73920 0.62300 0.91040 0.15100
H 	H 	0.66470 0.15370 0.78940 0.15600
H 	H 	0.73920 0.08960 0.71260 0.16600
H 	H 	0.66470 0.21060 0.36430 0.12900
H 	H 	0.73920 0.28740 0.37700 0.12400
H 	H 	0.66470 0.36430 0.15370 0.10600
H 	H 	0.73920 0.37700 0.08960 0.08900
H 	H 	0.66470 0.84630 0.21060 0.07800
H 	H 	0.73920 0.91040 0.28740 0.07400
H 	H 	0.66470 0.78940 0.63570 0.10600
H 	H 	0.73920 0.71260 0.62300 0.11700
H 	H 	0.16470 0.21060 0.84630 0.13300
H 	H 	0.23920 0.28740 0.91040 0.15500
H 	H 	0.16470 0.63570 0.78940 0.10400
H 	H 	0.23920 0.62300 0.71260 0.11000
H 	H 	0.16470 0.15370 0.36430 0.10300
H 	H 	0.23920 0.08960 0.37700 0.13900
H 	H 	0.16470 0.78940 0.15370 0.05200
H 	H 	0.23920 0.71260 0.08960 0.06000
H 	H 	0.16470 0.36430 0.21060 0.08100
H 	H 	0.23920 0.37700 0.28740 0.10400
H 	H 	0.16470 0.84630 0.63570 0.08100
H 	H 	0.23920 0.91040 0.62300 0.07500
H 	H 	0.33530 0.36430 0.15370 0.09800
H 	H 	0.26080 0.37700 0.08960 0.07300
H 	H 	0.33530 0.84630 0.21060 0.07000
H 	H 	0.26080 0.91040 0.28740 0.05800
H 	H 	0.33530 0.78940 0.63570 0.09800
H 	H 	0.26080 0.71260 0.62300 0.10200
H 	H 	0.33530 0.63570 0.84630 0.12100
H 	H 	0.26080 0.62300 0.91040 0.13700
H 	H 	0.33530 0.15370 0.78940 0.15000
H 	H 	0.26080 0.08960 0.71260 0.15300
H 	H 	0.33530 0.21060 0.36430 0.12200
H 	H 	0.26080 0.28740 0.37700 0.10900
C 	C 	0.85870 0.64760 0.12880 0.39900
C 	C 	0.80000 0.73350 0.14680 -0.22300
C 	C 	0.85870 0.48120 0.35240 0.41500
C 	C 	0.80000 0.41330 0.26650 -0.25400
C 	C 	0.85870 0.87120 0.51880 0.41000
C 	C 	0.80000 0.85320 0.58670 -0.24600
C 	C 	0.85870 0.35240 0.87120 0.43600
C 	C 	0.80000 0.26650 0.85320 -0.29800
C 	C 	0.85870 0.51880 0.64760 0.42500
C 	C 	0.80000 0.58670 0.73350 -0.27100
C 	C 	0.85870 0.12880 0.48120 0.42500
C 	C 	0.80000 0.14680 0.41330 -0.27600
C 	C 	0.64130 0.51880 0.87120 0.42800
C 	C 	0.70000 0.58670 0.85320 -0.27900
C 	C 	0.64130 0.12880 0.64760 0.43900
C 	C 	0.70000 0.14680 0.73350 -0.30200
C 	C 	0.64130 0.35240 0.48120 0.42900
C 	C 	0.70000 0.26650 0.41330 -0.27500
C 	C 	0.64130 0.48120 0.12880 0.41400
C 	C 	0.70000 0.41330 0.14680 -0.25000
C 	C 	0.64130 0.87120 0.35240 0.40300
C 	C 	0.70000 0.85320 0.26650 -0.22700
C 	C 	0.64130 0.64760 0.51880 0.41800
C 	C 	0.70000 0.73350 0.58670 -0.25800
C 	C 	0.14130 0.35240 0.87120 0.43200
C 	C 	0.20000 0.26650 0.85320 -0.29100
C 	C 	0.14130 0.51880 0.64760 0.42000
C 	C 	0.20000 0.58670 0.73350 -0.26200
C 	C 	0.14130 0.12880 0.48120 0.42000
C 	C 	0.20000 0.14680 0.41330 -0.26700
C 	C 	0.14130 0.64760 0.12880 0.39400
C 	C 	0.20000 0.73350 0.14680 -0.21400
C 	C 	0.14130 0.48120 0.35240 0.40900
C 	C 	0.20000 0.41330 0.26650 -0.24500
C 	C 	0.14130 0.87120 0.51880 0.40500
C 	C 	0.20000 0.85320 0.58670 -0.23700
C 	C 	0.35870 0.48120 0.12880 0.40800
C 	C 	0.30000 0.41330 0.14680 -0.23700
C 	C 	0.35870 0.87120 0.35240 0.39700
C 	C 	0.30000 0.85320 0.26650 -0.21400
C 	C 	0.35870 0.64760 0.51880 0.41300
C 	C 	0.30000 0.73350 0.58670 -0.24500
C 	C 	0.35870 0.51880 0.87120 0.42300
C 	C 	0.30000 0.58670 0.85320 -0.26800
C 	C 	0.35870 0.12880 0.64760 0.43500
C 	C 	0.30000 0.14680 0.73350 -0.29100
C 	C 	0.35870 0.35240 0.48120 0.42400
C 	C 	0.30000 0.26650 0.41330 -0.26300
O 	O 	0.90460 0.61160 0.05170 -0.42200
O 	O 	0.85820 0.61880 0.19310 -0.40100
O 	O 	0.90460 0.44010 0.38840 -0.38300
O 	O 	0.85820 0.57430 0.38120 -0.39500
O 	O 	0.90460 0.94830 0.55990 -0.41800
O 	O 	0.85820 0.80690 0.42570 -0.40400
O 	O 	0.90460 0.38840 0.94830 -0.32800
O 	O 	0.85820 0.38120 0.80690 -0.38300
O 	O 	0.90460 0.55990 0.61160 -0.38300
O 	O 	0.85820 0.42570 0.61880 -0.39500
O 	O 	0.90460 0.05170 0.44010 -0.33200
O 	O 	0.85820 0.19310 0.57430 -0.38200
O 	O 	0.59540 0.55990 0.94830 -0.39400
O 	O 	0.64180 0.42570 0.80690 -0.41300
O 	O 	0.59540 0.05170 0.61160 -0.39000
O 	O 	0.64180 0.19310 0.61880 -0.41500
O 	O 	0.59540 0.38840 0.44010 -0.44800
O 	O 	0.64180 0.38120 0.57430 -0.42700
O 	O 	0.59540 0.44010 0.05170 -0.48400
O 	O 	0.64180 0.57430 0.19310 -0.43700
O 	O 	0.59540 0.94830 0.38840 -0.48800
O 	O 	0.64180 0.80690 0.38120 -0.43500
O 	O 	0.59540 0.61160 0.55990 -0.44800
O 	O 	0.64180 0.61880 0.42570 -0.42800
O 	O 	0.09540 0.38840 0.94830 -0.42500
O 	O 	0.14180 0.38120 0.80690 -0.43700
O 	O 	0.09540 0.55990 0.61160 -0.48500
O 	O 	0.14180 0.42570 0.61880 -0.44900
O 	O 	0.09540 0.05170 0.44010 -0.42900
O 	O 	0.14180 0.19310 0.57430 -0.43500
O 	O 	0.09540 0.61160 0.05170 -0.52400
O 	O 	0.14180 0.61880 0.19310 -0.45700
O 	O 	0.09540 0.44010 0.38840 -0.48500
O 	O 	0.14180 0.57430 0.38120 -0.45000
O 	O 	0.09540 0.94830 0.55990 -0.52100
O 	O 	0.14180 0.80690 0.42570 -0.45900
O 	O 	0.40460 0.44010 0.05170 -0.48300
O 	O 	0.35820 0.57430 0.19310 -0.43500
O 	O 	0.40460 0.94830 0.38840 -0.48700
O 	O 	0.35820 0.80690 0.38120 -0.43200
O 	O 	0.40460 0.61160 0.55990 -0.44700
O 	O 	0.35820 0.61880 0.42570 -0.42600
O 	O 	0.40460 0.55990 0.94830 -0.39200
O 	O 	0.35820 0.42570 0.80690 -0.41100
O 	O 	0.40460 0.05170 0.61160 -0.38900
O 	O 	0.35820 0.19310 0.61880 -0.41300
O 	O 	0.40460 0.38840 0.44010 -0.44700
O 	O 	0.35820 0.38120 0.57430 -0.42500
O 	O 	0.75000 0.76455 0.23545 -0.20200
O 	O 	0.75000 0.47090 0.23545 -0.18500
O 	O 	0.75000 0.76455 0.52910 -0.18500
O 	O 	0.75000 0.23545 0.76455 -0.15100
O 	O 	0.75000 0.52910 0.76455 -0.16800
O 	O 	0.75000 0.23545 0.47090 -0.16700
O 	O 	0.25000 0.23545 0.76455 -0.16200
O 	O 	0.25000 0.52910 0.76455 -0.17900
O 	O 	0.25000 0.23545 0.47090 -0.17900
O 	O 	0.25000 0.76455 0.23545 -0.21400
O 	O 	0.25000 0.47090 0.23545 -0.19700
O 	O 	0.25000 0.76455 0.52910 -0.19700
