data_crystal

_cell_length_a 16.74400
_cell_length_b 15.78700
_cell_length_c 14.29500
_cell_angle_alpha 90.00000
_cell_angle_beta  90.00000
_cell_angle_gamma 90.00000

_symmetry_space_group_name_	'P 1'
_symmetry_space_group_name_H-M	'P 1'

loop_
_symmetry_equiv_pos_as_xyz
  x,y,z

loop_
_atom_site_label
_atom_site_type_symbol
_atom_site_fract_x
_atom_site_fract_y
_atom_site_fract_z
_atom_site_charge
Co	Co	0.61403 0.06370 0.21371 1.16700
C 	C 	0.73710 0.11740 0.08710 0.43500
C 	C 	0.77200 0.03530 0.12500 -0.38400
H 	H 	0.78510 0.99870 0.07270 0.15600
H 	H 	0.82130 0.04810 0.15760 0.16100
C 	C 	0.75370 0.06340 0.33300 0.38500
C 	C 	0.75540 0.97840 0.28210 -0.35600
H 	H 	0.81020 0.95920 0.27520 0.14500
H 	H 	0.72640 0.93630 0.31810 0.14000
C 	C 	0.68930 0.90840 0.14890 -0.12800
H 	H 	0.66560 0.87360 0.19740 0.07100
H 	H 	0.73360 0.87740 0.12170 0.07400
C 	C 	0.62650 0.92790 0.07270 -0.09600
H 	H 	0.65120 0.96010 0.02260 0.06000
H 	H 	0.60660 0.87530 0.04660 0.05900
C 	C 	0.50240 0.92320 0.16420 -0.33000
H 	H 	0.51020 0.86480 0.14520 0.13000
H 	H 	0.44840 0.93930 0.14710 0.13600
C 	C 	0.51080 0.92880 0.27020 0.36300
C 	C 	0.51810 0.02740 0.03850 -0.08400
H 	H 	0.55610 0.06630 0.01070 0.05300
H 	H 	0.47600 0.06080 0.06710 0.04700
N 	N 	0.71840 0.98860 0.18950 -0.09600
N 	N 	0.55910 0.97710 0.11260 -0.13900
N 	N 	0.52120 0.14160 0.23050 -0.27100
O 	O 	0.66720 0.13880 0.11380 -0.46000
O 	O 	0.77770 0.15880 0.03210 -0.42300
O 	O 	0.69080 0.10940 0.31880 -0.52500
O 	O 	0.80900 0.08650 0.38390 -0.39800
O 	O 	0.56400 0.97480 0.30560 -0.40300
O 	O 	0.46210 0.88480 0.31690 -0.27800
C 	C 	0.46380 0.16270 0.25890 0.03100
S 	S 	0.37940 0.20580 0.30180 -0.04800
C 	C 	0.46350 0.17710 0.22040 0.07200
S 	S 	0.37060 0.22200 0.21100 -0.03700
Co	Co	0.88597 0.43630 0.21371 1.16800
C 	C 	0.76290 0.38260 0.08710 0.43600
C 	C 	0.72800 0.46470 0.12500 -0.38600
H 	H 	0.71490 0.50130 0.07270 0.15900
H 	H 	0.67870 0.45190 0.15760 0.16100
C 	C 	0.74630 0.43660 0.33300 0.38600
C 	C 	0.74460 0.52160 0.28210 -0.35600
H 	H 	0.68980 0.54080 0.27520 0.14500
H 	H 	0.77360 0.56370 0.31810 0.14000
C 	C 	0.81070 0.59160 0.14890 -0.12800
H 	H 	0.83440 0.62640 0.19740 0.07000
H 	H 	0.76640 0.62260 0.12170 0.07400
C 	C 	0.87350 0.57210 0.07270 -0.09700
H 	H 	0.84880 0.53990 0.02260 0.06100
H 	H 	0.89340 0.62470 0.04660 0.06000
C 	C 	0.99760 0.57680 0.16420 -0.32700
H 	H 	0.98980 0.63520 0.14520 0.12900
H 	H 	0.05160 0.56070 0.14710 0.13400
C 	C 	0.98920 0.57120 0.27020 0.36400
C 	C 	0.98190 0.47260 0.03850 -0.08200
H 	H 	0.94390 0.43370 0.01070 0.05200
H 	H 	0.02400 0.43920 0.06710 0.04400
N 	N 	0.78160 0.51140 0.18950 -0.09500
N 	N 	0.94090 0.52290 0.11260 -0.13800
N 	N 	0.97880 0.35840 0.23050 -0.27000
O 	O 	0.83280 0.36120 0.11380 -0.46100
O 	O 	0.72230 0.34120 0.03210 -0.42300
O 	O 	0.80920 0.39060 0.31880 -0.52500
O 	O 	0.69100 0.41350 0.38390 -0.39800
O 	O 	0.93600 0.52520 0.30560 -0.40200
O 	O 	0.03790 0.61520 0.31690 -0.27900
C 	C 	0.03620 0.33730 0.25890 0.03000
S 	S 	0.12060 0.29420 0.30180 -0.04800
C 	C 	0.03650 0.32290 0.22040 0.07200
S 	S 	0.12940 0.27800 0.21100 -0.03700
Co	Co	0.38597 0.56370 0.28629 1.16800
C 	C 	0.26290 0.61740 0.41290 0.43600
C 	C 	0.22800 0.53530 0.37500 -0.38600
H 	H 	0.21490 0.49870 0.42730 0.15800
H 	H 	0.17870 0.54810 0.34240 0.16100
C 	C 	0.24630 0.56340 0.16700 0.38600
C 	C 	0.24460 0.47840 0.21790 -0.35600
H 	H 	0.18980 0.45920 0.22480 0.14500
H 	H 	0.27360 0.43630 0.18190 0.14000
C 	C 	0.31070 0.40840 0.35110 -0.12800
H 	H 	0.33440 0.37360 0.30260 0.07000
H 	H 	0.26640 0.37740 0.37830 0.07400
C 	C 	0.37350 0.42790 0.42730 -0.09600
H 	H 	0.34880 0.46010 0.47740 0.06000
H 	H 	0.39340 0.37530 0.45340 0.06000
C 	C 	0.49760 0.42320 0.33580 -0.33100
H 	H 	0.48980 0.36480 0.35480 0.13000
H 	H 	0.55160 0.43930 0.35290 0.13700
C 	C 	0.48920 0.42880 0.22980 0.36300
C 	C 	0.48190 0.52740 0.46150 -0.08500
H 	H 	0.44390 0.56630 0.48930 0.05200
H 	H 	0.52400 0.56080 0.43290 0.04600
N 	N 	0.28160 0.48860 0.31050 -0.09500
N 	N 	0.44090 0.47710 0.38740 -0.13700
N 	N 	0.47880 0.64160 0.26950 -0.27100
O 	O 	0.33280 0.63880 0.38620 -0.46100
O 	O 	0.22230 0.65880 0.46790 -0.42400
O 	O 	0.30920 0.60940 0.18120 -0.52500
O 	O 	0.19100 0.58650 0.11610 -0.39900
O 	O 	0.43600 0.47480 0.19440 -0.40200
O 	O 	0.53790 0.38480 0.18310 -0.27800
C 	C 	0.53620 0.66270 0.24110 0.03100
S 	S 	0.62060 0.70580 0.19820 -0.04800
C 	C 	0.53650 0.67710 0.27960 0.07200
S 	S 	0.62940 0.72200 0.28900 -0.03700
Co	Co	0.11403 0.93630 0.28629 1.16700
C 	C 	0.23710 0.88260 0.41290 0.43800
C 	C 	0.27200 0.96470 0.37500 -0.39200
H 	H 	0.28510 0.00130 0.42730 0.16100
H 	H 	0.32130 0.95190 0.34240 0.16200
C 	C 	0.25370 0.93660 0.16700 0.38300
C 	C 	0.25540 0.02160 0.21790 -0.35200
H 	H 	0.31020 0.04080 0.22480 0.14500
H 	H 	0.22640 0.06370 0.18190 0.13900
C 	C 	0.18930 0.09160 0.35110 -0.12800
H 	H 	0.16560 0.12640 0.30260 0.07000
H 	H 	0.23360 0.12260 0.37830 0.07400
C 	C 	0.12650 0.07210 0.42730 -0.09600
H 	H 	0.15120 0.03990 0.47740 0.06100
H 	H 	0.10660 0.12470 0.45340 0.06000
C 	C 	0.00240 0.07680 0.33580 -0.32800
H 	H 	0.01020 0.13520 0.35480 0.13000
H 	H 	0.94840 0.06070 0.35290 0.13600
C 	C 	0.01080 0.07120 0.22980 0.36200
C 	C 	0.01810 0.97260 0.46150 -0.09000
H 	H 	0.05610 0.93370 0.48930 0.05300
H 	H 	0.97600 0.93920 0.43290 0.05000
N 	N 	0.21840 0.01140 0.31050 -0.09400
N 	N 	0.05910 0.02290 0.38740 -0.13600
N 	N 	0.02120 0.85840 0.26950 -0.27400
O 	O 	0.16720 0.86120 0.38620 -0.46200
O 	O 	0.27770 0.84120 0.46790 -0.42500
O 	O 	0.19080 0.89060 0.18120 -0.52500
O 	O 	0.30900 0.91350 0.11610 -0.39900
O 	O 	0.06400 0.02520 0.19440 -0.40100
O 	O 	0.96210 0.11520 0.18310 -0.27700
C 	C 	0.96380 0.83730 0.24110 0.03200
S 	S 	0.87940 0.79420 0.19820 -0.04800
C 	C 	0.96350 0.82290 0.27960 0.07500
S 	S 	0.87060 0.77800 0.28900 -0.03800
Co	Co	0.38597 0.93630 0.78629 1.16800
C 	C 	0.26290 0.88260 0.91290 0.43600
C 	C 	0.22800 0.96470 0.87500 -0.38300
H 	H 	0.21490 0.00130 0.92730 0.15700
H 	H 	0.17870 0.95190 0.84240 0.16100
C 	C 	0.24630 0.93660 0.66700 0.38500
C 	C 	0.24460 0.02160 0.71790 -0.35600
H 	H 	0.18980 0.04080 0.72480 0.14500
H 	H 	0.27360 0.06370 0.68190 0.14000
C 	C 	0.31070 0.09160 0.85110 -0.12800
H 	H 	0.33440 0.12640 0.80260 0.07100
H 	H 	0.26640 0.12260 0.87830 0.07400
C 	C 	0.37350 0.07210 0.92730 -0.09600
H 	H 	0.34880 0.03990 0.97740 0.06000
H 	H 	0.39340 0.12470 0.95340 0.05900
C 	C 	0.49760 0.07680 0.83580 -0.33000
H 	H 	0.48980 0.13520 0.85480 0.13000
H 	H 	0.55160 0.06070 0.85290 0.13600
C 	C 	0.48920 0.07120 0.72980 0.36300
C 	C 	0.48190 0.97260 0.96150 -0.08400
H 	H 	0.44390 0.93370 0.98930 0.05300
H 	H 	0.52400 0.93920 0.93290 0.04700
N 	N 	0.28160 0.01140 0.81050 -0.09600
N 	N 	0.44090 0.02290 0.88740 -0.13900
N 	N 	0.47880 0.85840 0.76950 -0.27100
O 	O 	0.33280 0.86120 0.88620 -0.46000
O 	O 	0.22230 0.84120 0.96790 -0.42300
O 	O 	0.30920 0.89060 0.68120 -0.52500
O 	O 	0.19100 0.91350 0.61610 -0.39800
O 	O 	0.43600 0.02520 0.69440 -0.40300
O 	O 	0.53790 0.11520 0.68310 -0.27800
C 	C 	0.53620 0.83730 0.74110 0.03100
S 	S 	0.62060 0.79420 0.69820 -0.04800
C 	C 	0.53650 0.82290 0.77960 0.07200
S 	S 	0.62940 0.77800 0.78900 -0.03700
Co	Co	0.11403 0.56370 0.78629 1.16800
C 	C 	0.23710 0.61740 0.91290 0.43600
C 	C 	0.27200 0.53530 0.87500 -0.38600
H 	H 	0.28510 0.49870 0.92730 0.15900
H 	H 	0.32130 0.54810 0.84240 0.16100
C 	C 	0.25370 0.56340 0.66700 0.38600
C 	C 	0.25540 0.47840 0.71790 -0.35600
H 	H 	0.31020 0.45920 0.72480 0.14500
H 	H 	0.22640 0.43630 0.68190 0.14000
C 	C 	0.18930 0.40840 0.85110 -0.12800
H 	H 	0.16560 0.37360 0.80260 0.07000
H 	H 	0.23360 0.37740 0.87830 0.07400
C 	C 	0.12650 0.42790 0.92730 -0.09700
H 	H 	0.15120 0.46010 0.97740 0.06100
H 	H 	0.10660 0.37530 0.95340 0.06000
C 	C 	0.00240 0.42320 0.83580 -0.32700
H 	H 	0.01020 0.36480 0.85480 0.12900
H 	H 	0.94840 0.43930 0.85290 0.13400
C 	C 	0.01080 0.42880 0.72980 0.36400
C 	C 	0.01810 0.52740 0.96150 -0.08200
H 	H 	0.05610 0.56630 0.98930 0.05200
H 	H 	0.97600 0.56080 0.93290 0.04400
N 	N 	0.21840 0.48860 0.81050 -0.09500
N 	N 	0.05910 0.47710 0.88740 -0.13800
N 	N 	0.02120 0.64160 0.76950 -0.27000
O 	O 	0.16720 0.63880 0.88620 -0.46100
O 	O 	0.27770 0.65880 0.96790 -0.42300
O 	O 	0.19080 0.60940 0.68120 -0.52500
O 	O 	0.30900 0.58650 0.61610 -0.39800
O 	O 	0.06400 0.47480 0.69440 -0.40200
O 	O 	0.96210 0.38480 0.68310 -0.27900
C 	C 	0.96380 0.66270 0.74110 0.03000
S 	S 	0.87940 0.70580 0.69820 -0.04800
C 	C 	0.96350 0.67710 0.77960 0.07200
S 	S 	0.87060 0.72200 0.78900 -0.03700
Co	Co	0.61403 0.43630 0.71371 1.16800
C 	C 	0.73710 0.38260 0.58710 0.43600
C 	C 	0.77200 0.46470 0.62500 -0.38600
H 	H 	0.78510 0.50130 0.57270 0.15800
H 	H 	0.82130 0.45190 0.65760 0.16100
C 	C 	0.75370 0.43660 0.83300 0.38600
C 	C 	0.75540 0.52160 0.78210 -0.35600
H 	H 	0.81020 0.54080 0.77520 0.14500
H 	H 	0.72640 0.56370 0.81810 0.14000
C 	C 	0.68930 0.59160 0.64890 -0.12800
H 	H 	0.66560 0.62640 0.69740 0.07000
H 	H 	0.73360 0.62260 0.62170 0.07400
C 	C 	0.62650 0.57210 0.57270 -0.09600
H 	H 	0.65120 0.53990 0.52260 0.06000
H 	H 	0.60660 0.62470 0.54660 0.06000
C 	C 	0.50240 0.57680 0.66420 -0.33100
H 	H 	0.51020 0.63520 0.64520 0.13000
H 	H 	0.44840 0.56070 0.64710 0.13700
C 	C 	0.51080 0.57120 0.77020 0.36300
C 	C 	0.51810 0.47260 0.53850 -0.08500
H 	H 	0.55610 0.43370 0.51070 0.05200
H 	H 	0.47600 0.43920 0.56710 0.04600
N 	N 	0.71840 0.51140 0.68950 -0.09500
N 	N 	0.55910 0.52290 0.61260 -0.13700
N 	N 	0.52120 0.35840 0.73050 -0.27100
O 	O 	0.66720 0.36120 0.61380 -0.46100
O 	O 	0.77770 0.34120 0.53210 -0.42400
O 	O 	0.69080 0.39060 0.81880 -0.52500
O 	O 	0.80900 0.41350 0.88390 -0.39900
O 	O 	0.56400 0.52520 0.80560 -0.40200
O 	O 	0.46210 0.61520 0.81690 -0.27800
C 	C 	0.46380 0.33730 0.75890 0.03100
S 	S 	0.37940 0.29420 0.80180 -0.04800
C 	C 	0.46350 0.32290 0.72040 0.07200
S 	S 	0.37060 0.27800 0.71100 -0.03700
Co	Co	0.88597 0.06370 0.71371 1.16700
C 	C 	0.76290 0.11740 0.58710 0.43800
C 	C 	0.72800 0.03530 0.62500 -0.39200
H 	H 	0.71490 0.99870 0.57270 0.16100
H 	H 	0.67870 0.04810 0.65760 0.16200
C 	C 	0.74630 0.06340 0.83300 0.38300
C 	C 	0.74460 0.97840 0.78210 -0.35200
H 	H 	0.68980 0.95920 0.77520 0.14500
H 	H 	0.77360 0.93630 0.81810 0.13900
C 	C 	0.81070 0.90840 0.64890 -0.12800
H 	H 	0.83440 0.87360 0.69740 0.07000
H 	H 	0.76640 0.87740 0.62170 0.07400
C 	C 	0.87350 0.92790 0.57270 -0.09600
H 	H 	0.84880 0.96010 0.52260 0.06100
H 	H 	0.89340 0.87530 0.54660 0.06000
C 	C 	0.99760 0.92320 0.66420 -0.32800
H 	H 	0.98980 0.86480 0.64520 0.13000
H 	H 	0.05160 0.93930 0.64710 0.13600
C 	C 	0.98920 0.92880 0.77020 0.36200
C 	C 	0.98190 0.02740 0.53850 -0.09000
H 	H 	0.94390 0.06630 0.51070 0.05300
H 	H 	0.02400 0.06080 0.56710 0.05000
N 	N 	0.78160 0.98860 0.68950 -0.09400
N 	N 	0.94090 0.97710 0.61260 -0.13600
N 	N 	0.97880 0.14160 0.73050 -0.27400
O 	O 	0.83280 0.13880 0.61380 -0.46200
O 	O 	0.72230 0.15880 0.53210 -0.42500
O 	O 	0.80920 0.10940 0.81880 -0.52500
O 	O 	0.69100 0.08650 0.88390 -0.39900
O 	O 	0.93600 0.97480 0.80560 -0.40100
O 	O 	0.03790 0.88480 0.81690 -0.27700
C 	C 	0.03620 0.16270 0.75890 0.03200
S 	S 	0.12060 0.20580 0.80180 -0.04800
C 	C 	0.03650 0.17710 0.72040 0.07500
S 	S 	0.12940 0.22200 0.71100 -0.03800
La	La	0.75000 0.25000 0.89163 1.53500
La	La	0.25000 0.75000 0.60837 1.53800
La	La	0.25000 0.75000 0.10837 1.53500
La	La	0.75000 0.25000 0.39163 1.53800
