data_crystal

_cell_length_a 10.19790
_cell_length_b 11.78430
_cell_length_c 14.91990
_cell_angle_alpha 91.80030
_cell_angle_beta  90.00000
_cell_angle_gamma 90.00000

_symmetry_space_group_name_	'P 1'
_symmetry_space_group_name_H-M	'P 1'

loop_
_symmetry_equiv_pos_as_xyz
  x,y,z

loop_
_atom_site_label
_atom_site_type_symbol
_atom_site_fract_x
_atom_site_fract_y
_atom_site_fract_z
_atom_site_charge
Mn	Mn	0.93295 0.98981 0.56268 1.32000
Mn	Mn	0.62082 0.99027 0.61891 1.30400
Mn	Mn	0.54158 0.74474 0.74780 1.32500
Mn	Mn	0.45685 0.50345 0.88127 1.30700
Mn	Mn	0.14360 0.51266 0.93548 1.31300
Mn	Mn	0.53958 0.24499 0.75237 1.32500
Mn	Mn	0.43295 0.01019 0.43732 1.31600
Mn	Mn	0.12082 0.00973 0.38109 1.29500
Mn	Mn	0.04158 0.25526 0.25220 1.31300
Mn	Mn	0.95685 0.49655 0.11873 1.31400
Mn	Mn	0.64360 0.48734 0.06452 1.31700
Mn	Mn	0.03958 0.75501 0.24763 1.32200
H 	H 	0.78300 0.90280 0.38040 -0.13400
H 	H 	0.91830 0.18110 0.71100 -0.10800
H 	H 	0.99380 0.73400 0.50770 -0.09500
H 	H 	0.83600 0.74540 0.72170 -0.10900
H 	H 	0.39240 0.04690 0.82670 -0.11300
H 	H 	0.83050 0.21380 0.47190 -0.12800
H 	H 	0.25470 0.75070 0.77470 -0.12500
H 	H 	0.69580 0.44190 0.67840 -0.11600
H 	H 	0.74830 0.70360 0.96860 -0.13900
H 	H 	0.29320 0.60310 0.11440 -0.12300
H 	H 	0.16490 0.30690 0.78910 -0.13300
H 	H 	0.56600 0.22930 0.01430 -0.11700
H 	H 	0.28300 0.09720 0.61960 -0.13900
H 	H 	0.41830 0.81890 0.28900 -0.11800
H 	H 	0.49380 0.26600 0.49230 -0.11900
H 	H 	0.33600 0.25460 0.27830 -0.11300
H 	H 	0.89240 0.95310 0.17330 -0.10800
H 	H 	0.33050 0.78620 0.52810 -0.13300
H 	H 	0.75470 0.24930 0.22530 -0.12000
H 	H 	0.19580 0.55810 0.32160 -0.12000
H 	H 	0.24830 0.29640 0.03140 -0.14400
H 	H 	0.79320 0.39690 0.88560 -0.12100
H 	H 	0.66490 0.69310 0.21090 -0.12400
H 	H 	0.06600 0.77070 0.98570 -0.12500
C 	C 	0.71450 0.92790 0.41710 0.53600
C 	C 	0.82940 0.16670 0.70290 0.50200
C 	C 	0.01920 0.77280 0.45720 0.47300
C 	C 	0.81910 0.80860 0.68780 0.50100
C 	C 	0.44620 0.00510 0.78760 0.49500
C 	C 	0.89900 0.19360 0.43350 0.50500
C 	C 	0.26800 0.68690 0.80870 0.52500
C 	C 	0.63980 0.48560 0.71460 0.52200
C 	C 	0.68200 0.68380 0.92840 0.53600
C 	C 	0.36170 0.57450 0.07930 0.49200
C 	C 	0.25310 0.32330 0.79870 0.54200
C 	C 	0.55020 0.26740 0.96170 0.51800
C 	C 	0.21450 0.07210 0.58290 0.54100
C 	C 	0.32940 0.83330 0.29710 0.50400
C 	C 	0.51920 0.22720 0.54280 0.50900
C 	C 	0.31910 0.19140 0.31220 0.50500
C 	C 	0.94620 0.99490 0.21240 0.49300
C 	C 	0.39900 0.80640 0.56650 0.51000
C 	C 	0.76800 0.31310 0.19130 0.52000
C 	C 	0.13980 0.51440 0.28540 0.52400
C 	C 	0.18200 0.31620 0.07160 0.53800
C 	C 	0.86170 0.42550 0.92070 0.49100
C 	C 	0.75310 0.67670 0.20130 0.53900
C 	C 	0.05020 0.73260 0.03830 0.52400
O 	O 	0.74230 0.94620 0.50000 -0.58900
O 	O 	0.60940 0.93960 0.38120 -0.47600
O 	O 	0.79720 0.09250 0.64480 -0.58700
O 	O 	0.74860 0.22320 0.75120 -0.43900
O 	O 	0.03190 0.88040 0.46510 -0.58000
O 	O 	0.03850 0.71640 0.38670 -0.45400
O 	O 	0.91300 0.85290 0.65130 -0.46000
O 	O 	0.69880 0.84220 0.68330 -0.58100
O 	O 	0.51460 0.05920 0.73170 -0.58200
O 	O 	0.44660 0.89870 0.79350 -0.45500
O 	O 	0.95860 0.10150 0.44740 -0.57000
O 	O 	0.92590 0.25980 0.37160 -0.44400
O 	O 	0.38290 0.64960 0.81210 -0.60200
O 	O 	0.16950 0.64730 0.84630 -0.47300
O 	O 	0.63890 0.58720 0.70280 -0.46400
O 	O 	0.57120 0.43250 0.77220 -0.58200
O 	O 	0.66590 0.74730 0.86560 -0.46600
O 	O 	0.61840 0.59430 0.94450 -0.59500
O 	O 	0.33870 0.55400 0.99700 -0.58300
O 	O 	0.47140 0.55910 0.11770 -0.45300
O 	O 	0.27770 0.40480 0.85720 -0.59700
O 	O 	0.32870 0.26730 0.75600 -0.48500
O 	O 	0.54160 0.37580 0.96890 -0.58400
O 	O 	0.53990 0.20870 0.89310 -0.46200
O 	O 	0.24230 0.05380 0.50000 -0.59600
O 	O 	0.10940 0.06040 0.61880 -0.49500
O 	O 	0.29720 0.90750 0.35520 -0.59100
O 	O 	0.24860 0.77680 0.24880 -0.44200
O 	O 	0.53190 0.11960 0.53490 -0.58400
O 	O 	0.53850 0.28360 0.61330 -0.45800
O 	O 	0.41300 0.14710 0.34870 -0.46600
O 	O 	0.19880 0.15780 0.31670 -0.59000
O 	O 	0.01460 0.94080 0.26830 -0.58700
O 	O 	0.94660 0.10130 0.20650 -0.43700
O 	O 	0.45860 0.89850 0.55260 -0.58700
O 	O 	0.42590 0.74020 0.62840 -0.45700
O 	O 	0.88290 0.35040 0.18790 -0.59100
O 	O 	0.66950 0.35270 0.15370 -0.46500
O 	O 	0.13890 0.41280 0.29720 -0.47200
O 	O 	0.07120 0.56750 0.22780 -0.59000
O 	O 	0.16590 0.25270 0.13440 -0.47500
O 	O 	0.11840 0.40570 0.05550 -0.60400
O 	O 	0.83870 0.44600 0.00300 -0.57800
O 	O 	0.97140 0.44090 0.88230 -0.43800
O 	O 	0.77770 0.59520 0.14280 -0.59000
O 	O 	0.82870 0.73270 0.24400 -0.47400
O 	O 	0.04160 0.62420 0.03110 -0.59300
O 	O 	0.03990 0.79130 0.10690 -0.46900
