data_crystal

_cell_length_a 24.00000
_cell_length_b 15.52200
_cell_length_c 16.52300
_cell_angle_alpha 90.00000
_cell_angle_beta  133.51700
_cell_angle_gamma 90.00000

_symmetry_space_group_name_	'P 1'
_symmetry_space_group_name_H-M	'P 1'

loop_
_symmetry_equiv_pos_as_xyz
  x,y,z

loop_
_atom_site_label
_atom_site_type_symbol
_atom_site_fract_x
_atom_site_fract_y
_atom_site_fract_z
_atom_site_charge
Co	Co	0.74090 0.99134 0.00112 1.06000
Co	Co	0.82874 0.49898 0.58671 1.06900
N 	N 	0.71290 0.92000 0.86760 -0.27100
N 	N 	0.75560 0.59920 0.56580 -0.27300
N 	N 	0.63480 0.76960 0.59740 -0.25100
H 	H 	0.58420 0.77300 0.54600 0.11500
N 	N 	0.67030 0.09690 0.89350 -0.27700
N 	N 	0.34010 0.44070 0.55620 -0.27100
N 	N 	0.54250 0.30950 0.69010 -0.24400
H 	H 	0.55600 0.33500 0.65700 0.11100
N 	N 	0.81370 0.89250 0.12310 -0.28000
N 	N 	0.86580 0.58180 0.52760 -0.27300
N 	N 	0.94020 0.73600 0.40780 -0.25000
H 	H 	0.99030 0.73700 0.45000 0.11400
N 	N 	0.90040 0.39640 0.61530 -0.28200
N 	N 	0.23240 0.06400 0.93610 -0.28400
N 	N 	0.03120 0.18660 0.65910 -0.25300
H 	H 	0.00400 0.16100 0.59300 0.11300
C 	C 	0.75830 0.86090 0.87900 0.11500
H 	H 	0.80760 0.85410 0.94910 -0.02000
C 	C 	0.73660 0.80890 0.79260 -0.22700
H 	H 	0.77020 0.76800 0.80510 0.10600
C 	C 	0.66350 0.81940 0.68710 0.19200
C 	C 	0.61630 0.88310 0.67400 -0.23100
H 	H 	0.56760 0.89350 0.60430 0.09600
C 	C 	0.64260 0.92960 0.76510 0.11000
H 	H 	0.60990 0.97020 0.75530 -0.04000
C 	C 	0.78710 0.67320 0.62310 0.10900
H 	H 	0.83670 0.68600 0.65580 -0.04500
C 	C 	0.75070 0.73130 0.63650 -0.22600
H 	H 	0.77550 0.78130 0.67790 0.09300
C 	C 	0.67530 0.71340 0.58620 0.19000
C 	C 	0.63970 0.63980 0.52160 -0.22700
H 	H 	0.58910 0.62710 0.48430 0.10000
C 	C 	0.68180 0.58630 0.51460 0.11200
H 	H 	0.65750 0.53710 0.47090 -0.03200
C 	C 	0.68800 0.14360 0.84550 0.13000
H 	H 	0.73060 0.12730 0.85780 -0.03500
C 	C 	0.64670 0.21390 0.77930 -0.23600
H 	H 	0.66150 0.24460 0.74830 0.10000
C 	C 	0.58190 0.23890 0.75890 0.21200
C 	C 	0.56250 0.19110 0.80720 -0.23300
H 	H 	0.51990 0.20550 0.79580 0.09800
C 	C 	0.60800 0.12130 0.87260 0.12500
H 	H 	0.59440 0.08920 0.90430 -0.05900
C 	C 	0.37380 0.38480 0.64050 0.11000
H 	H 	0.35030 0.37540 0.66680 -0.05300
C 	C 	0.44140 0.33960 0.69200 -0.21300
H 	H 	0.46330 0.30380 0.75270 0.09400
C 	C 	0.47560 0.34960 0.64920 0.19100
C 	C 	0.44170 0.40850 0.56270 -0.22700
H 	H 	0.46340 0.41930 0.53390 0.09700
C 	C 	0.37550 0.45060 0.51990 0.12400
H 	H 	0.35370 0.48880 0.46140 -0.03700
C 	C 	0.88930 0.90180 0.20920 0.10900
H 	H 	0.91440 0.94440 0.20480 -0.02500
C 	C 	0.93270 0.85150 0.30470 -0.22300
H 	H 	0.98530 0.86060 0.36250 0.09700
C 	C 	0.89620 0.78680 0.31290 0.18800
C 	C 	0.81810 0.77410 0.22190 -0.23300
H 	H 	0.79200 0.73060 0.22300 0.09100
C 	C 	0.78020 0.82640 0.13060 0.10300
H 	H 	0.72820 0.81610 0.06970 -0.06100
C 	C 	0.82280 0.64790 0.45800 0.11000
H 	H 	0.77570 0.65790 0.43580 -0.02800
C 	C 	0.84480 0.70120 0.41820 -0.22200
H 	H 	0.81390 0.74760 0.37300 0.10200
C 	C 	0.91370 0.68610 0.44530 0.18000
C 	C 	0.96110 0.62060 0.52290 -0.21300
H 	H 	0.00920 0.61020 0.54860 0.08700
C 	C 	0.93470 0.57200 0.56000 0.10400
H 	H 	0.96680 0.52890 0.61170 -0.03400
C 	C 	0.95380 0.35900 0.71420 0.12300
H 	H 	0.96140 0.38070 0.77370 -0.05900
C 	C 	0.99850 0.29050 0.73500 -0.23200
H 	H 	0.03390 0.26650 0.80610 0.09700
C 	C 	0.99080 0.25750 0.65050 0.20100
C 	C 	0.93450 0.29520 0.54500 -0.23600
H 	H 	0.92570 0.27430 0.48430 0.09700
C 	C 	0.89270 0.36270 0.53210 0.12400
H 	H 	0.85650 0.38740 0.46160 -0.03900
C 	C 	0.21650 0.14560 0.94290 0.18500
H 	H 	0.25210 0.17360 0.01130 -0.08700
C 	C 	0.15160 0.19030 0.85640 -0.27500
H 	H 	0.14360 0.24640 0.86620 0.12000
C 	C 	0.09890 0.14990 0.75450 0.22700
C 	C 	0.11670 0.06680 0.74460 -0.25900
H 	H 	0.08360 0.03830 0.67640 0.11000
C 	C 	0.18260 0.02840 0.83530 0.15000
H 	H 	0.19360 0.97370 0.82640 -0.04300
Co	Co	0.24090 0.50866 0.50112 1.06900
Co	Co	0.32874 0.00102 0.08671 1.06000
N 	N 	0.21290 0.58000 0.36760 -0.27800
N 	N 	0.25560 0.90080 0.06580 -0.27400
N 	N 	0.13480 0.73040 0.09740 -0.25300
H 	H 	0.08420 0.72700 0.04600 0.10600
N 	N 	0.17030 0.40310 0.39350 -0.28300
N 	N 	0.84010 0.05930 0.05620 -0.26400
N 	N 	0.04250 0.19050 0.19010 -0.24300
H 	H 	0.05600 0.16500 0.15700 0.10500
N 	N 	0.31370 0.60750 0.62310 -0.27700
N 	N 	0.36580 0.91820 0.02760 -0.30000
N 	N 	0.44020 0.76400 0.90780 -0.26100
H 	H 	0.49030 0.76300 0.95000 0.12400
N 	N 	0.40040 0.10360 0.11530 -0.28200
N 	N 	0.73240 0.43600 0.43610 -0.27900
N 	N 	0.53120 0.31340 0.15910 -0.25000
H 	H 	0.50400 0.33900 0.09300 0.10700
C 	C 	0.25830 0.63910 0.37900 0.11400
H 	H 	0.30760 0.64590 0.44910 -0.03000
C 	C 	0.23660 0.69110 0.29260 -0.22900
H 	H 	0.27020 0.73200 0.30510 0.10400
C 	C 	0.16350 0.68060 0.18710 0.18900
C 	C 	0.11630 0.61690 0.17400 -0.23100
H 	H 	0.06760 0.60650 0.10430 0.09000
C 	C 	0.14260 0.57040 0.26510 0.10800
H 	H 	0.10990 0.52980 0.25530 -0.04300
C 	C 	0.28710 0.82680 0.12310 0.10900
H 	H 	0.33670 0.81400 0.15580 -0.05000
C 	C 	0.25070 0.76870 0.13650 -0.23400
H 	H 	0.27550 0.71870 0.17790 0.09200
C 	C 	0.17530 0.78660 0.08620 0.19800
C 	C 	0.13970 0.86020 0.02160 -0.26700
H 	H 	0.08910 0.87290 0.98430 0.13200
C 	C 	0.18180 0.91370 0.01460 0.08100
H 	H 	0.15750 0.96290 0.97090 -0.00600
C 	C 	0.18800 0.35640 0.34550 0.12600
H 	H 	0.23060 0.37270 0.35780 -0.04000
C 	C 	0.14670 0.28610 0.27930 -0.23700
H 	H 	0.16150 0.25540 0.24830 0.09600
C 	C 	0.08190 0.26110 0.25890 0.20500
C 	C 	0.06250 0.30890 0.30720 -0.23500
H 	H 	0.01990 0.29450 0.29580 0.09400
C 	C 	0.10800 0.37870 0.37260 0.12100
H 	H 	0.09440 0.41080 0.40430 -0.06600
C 	C 	0.87380 0.11520 0.14050 0.10000
H 	H 	0.85030 0.12460 0.16680 -0.05300
C 	C 	0.94140 0.16040 0.19200 -0.20300
H 	H 	0.96330 0.19620 0.25270 0.08900
C 	C 	0.97560 0.15040 0.14920 0.17400
C 	C 	0.94170 0.09150 0.06270 -0.19200
H 	H 	0.96340 0.08070 0.03390 0.07700
C 	C 	0.87550 0.04940 0.01990 0.05400
H 	H 	0.85370 0.01120 0.96140 0.00700
C 	C 	0.38930 0.59820 0.70920 0.11300
H 	H 	0.41440 0.55560 0.70480 -0.02600
C 	C 	0.43270 0.64850 0.80470 -0.22700
H 	H 	0.48530 0.63940 0.86250 0.10100
C 	C 	0.39620 0.71320 0.81290 0.19600
C 	C 	0.31810 0.72590 0.72190 -0.23600
H 	H 	0.29200 0.76940 0.72300 0.09400
C 	C 	0.28020 0.67360 0.63060 0.10600
H 	H 	0.22820 0.68390 0.56970 -0.05500
C 	C 	0.32280 0.85210 0.95800 0.16500
H 	H 	0.27570 0.84210 0.93580 -0.03900
C 	C 	0.34480 0.79880 0.91820 -0.26200
H 	H 	0.31390 0.75240 0.87300 0.12000
C 	C 	0.41370 0.81390 0.94530 0.23900
C 	C 	0.46110 0.87940 0.02290 -0.28800
H 	H 	0.50920 0.88980 0.04860 0.10900
C 	C 	0.43470 0.92800 0.06000 0.13300
H 	H 	0.46680 0.97110 0.11170 -0.04600
C 	C 	0.45380 0.14100 0.21420 0.13100
H 	H 	0.46140 0.11930 0.27370 -0.06600
C 	C 	0.49850 0.20950 0.23500 -0.24700
H 	H 	0.53390 0.23350 0.30610 0.10300
C 	C 	0.49080 0.24250 0.15050 0.21100
C 	C 	0.43450 0.20480 0.04500 -0.27800
H 	H 	0.42570 0.22570 0.98430 0.13000
C 	C 	0.39270 0.13730 0.03210 0.09500
H 	H 	0.35650 0.11260 0.96160 -0.01100
C 	C 	0.71650 0.35440 0.44290 0.11600
H 	H 	0.75210 0.32640 0.51130 -0.04500
C 	C 	0.65160 0.30970 0.35640 -0.23600
H 	H 	0.64360 0.25360 0.36620 0.10100
C 	C 	0.59890 0.35010 0.25450 0.20900
C 	C 	0.61670 0.43320 0.24460 -0.24600
H 	H 	0.58360 0.46170 0.17640 0.10300
C 	C 	0.68260 0.47160 0.33530 0.14100
H 	H 	0.69360 0.52630 0.32640 -0.04500
Co	Co	0.24090 0.49134 0.00112 1.05700
Co	Co	0.32874 0.99898 0.58671 1.06800
N 	N 	0.21290 0.42000 0.86760 -0.27200
N 	N 	0.25560 0.09920 0.56580 -0.27300
N 	N 	0.13480 0.26960 0.59740 -0.25100
H 	H 	0.08420 0.27300 0.54600 0.11400
N 	N 	0.17030 0.59690 0.89350 -0.27700
N 	N 	0.84010 0.94070 0.55620 -0.27100
N 	N 	0.04250 0.80950 0.69010 -0.24700
H 	H 	0.05600 0.83500 0.65700 0.11000
N 	N 	0.31370 0.39250 0.12310 -0.28000
N 	N 	0.36580 0.08180 0.52760 -0.27400
N 	N 	0.44020 0.23600 0.40780 -0.25100
H 	H 	0.49030 0.23700 0.45000 0.11300
N 	N 	0.40040 0.89640 0.61530 -0.28200
N 	N 	0.73240 0.56400 0.93610 -0.28400
N 	N 	0.53120 0.68660 0.65910 -0.25200
H 	H 	0.50400 0.66100 0.59300 0.11400
C 	C 	0.25830 0.36090 0.87900 0.11400
H 	H 	0.30760 0.35410 0.94910 -0.02000
C 	C 	0.23660 0.30890 0.79260 -0.22700
H 	H 	0.27020 0.26800 0.80510 0.10600
C 	C 	0.16350 0.31940 0.68710 0.19200
C 	C 	0.11630 0.38310 0.67400 -0.23100
H 	H 	0.06760 0.39350 0.60430 0.09500
C 	C 	0.14260 0.42960 0.76510 0.11000
H 	H 	0.10990 0.47020 0.75530 -0.04100
C 	C 	0.28710 0.17320 0.62310 0.10800
H 	H 	0.33670 0.18600 0.65580 -0.04600
C 	C 	0.25070 0.23130 0.63650 -0.22600
H 	H 	0.27550 0.28130 0.67790 0.09200
C 	C 	0.17530 0.21340 0.58620 0.18900
C 	C 	0.13970 0.13980 0.52160 -0.22700
H 	H 	0.08910 0.12710 0.48430 0.09900
C 	C 	0.18180 0.08630 0.51460 0.11100
H 	H 	0.15750 0.03710 0.47090 -0.03300
C 	C 	0.18800 0.64360 0.84550 0.12900
H 	H 	0.23060 0.62730 0.85780 -0.03500
C 	C 	0.14670 0.71390 0.77930 -0.23600
H 	H 	0.16150 0.74460 0.74830 0.09900
C 	C 	0.08190 0.73890 0.75890 0.21000
C 	C 	0.06250 0.69110 0.80720 -0.23300
H 	H 	0.01990 0.70550 0.79580 0.09600
C 	C 	0.10800 0.62130 0.87260 0.12400
H 	H 	0.09440 0.58920 0.90430 -0.06000
C 	C 	0.87380 0.88480 0.64050 0.11100
H 	H 	0.85030 0.87540 0.66680 -0.05300
C 	C 	0.94140 0.83960 0.69200 -0.21500
H 	H 	0.96330 0.80380 0.75270 0.09600
C 	C 	0.97560 0.84960 0.64920 0.19600
C 	C 	0.94170 0.90850 0.56270 -0.22900
H 	H 	0.96340 0.91930 0.53390 0.09900
C 	C 	0.87550 0.95060 0.51990 0.12600
H 	H 	0.85370 0.98880 0.46140 -0.03600
C 	C 	0.38930 0.40180 0.20920 0.10800
H 	H 	0.41440 0.44440 0.20480 -0.02600
C 	C 	0.43270 0.35150 0.30470 -0.22400
H 	H 	0.48530 0.36060 0.36250 0.09500
C 	C 	0.39620 0.28680 0.31290 0.18800
C 	C 	0.31810 0.27410 0.22190 -0.23300
H 	H 	0.29200 0.23060 0.22300 0.09100
C 	C 	0.28020 0.32640 0.13060 0.10300
H 	H 	0.22820 0.31610 0.06970 -0.06200
C 	C 	0.32280 0.14790 0.45800 0.11200
H 	H 	0.27570 0.15790 0.43580 -0.02900
C 	C 	0.34480 0.20120 0.41820 -0.22500
H 	H 	0.31390 0.24760 0.37300 0.10300
C 	C 	0.41370 0.18610 0.44530 0.18400
C 	C 	0.46110 0.12060 0.52290 -0.22500
H 	H 	0.50920 0.11020 0.54860 0.09500
C 	C 	0.43470 0.07200 0.56000 0.11000
H 	H 	0.46680 0.02890 0.61170 -0.03700
C 	C 	0.45380 0.85900 0.71420 0.12700
H 	H 	0.46140 0.88070 0.77370 -0.06100
C 	C 	0.49850 0.79050 0.73500 -0.24100
H 	H 	0.53390 0.76650 0.80610 0.10400
C 	C 	0.49080 0.75750 0.65050 0.20100
C 	C 	0.43450 0.79520 0.54500 -0.23700
H 	H 	0.42570 0.77430 0.48430 0.09600
C 	C 	0.39270 0.86270 0.53210 0.12500
H 	H 	0.35650 0.88740 0.46160 -0.03900
C 	C 	0.71650 0.64560 0.94290 0.18400
H 	H 	0.75210 0.67360 0.01130 -0.08600
C 	C 	0.65160 0.69030 0.85640 -0.27500
H 	H 	0.64360 0.74640 0.86620 0.12000
C 	C 	0.59890 0.64990 0.75450 0.22800
C 	C 	0.61670 0.56680 0.74460 -0.26000
H 	H 	0.58360 0.53830 0.67640 0.11100
C 	C 	0.68260 0.52840 0.83530 0.15100
H 	H 	0.69360 0.47370 0.82640 -0.04400
Co	Co	0.74090 0.00866 0.50112 1.07000
Co	Co	0.82874 0.50102 0.08671 1.06100
N 	N 	0.71290 0.08000 0.36760 -0.27800
N 	N 	0.75560 0.40080 0.06580 -0.27500
N 	N 	0.63480 0.23040 0.09740 -0.25400
H 	H 	0.58420 0.22700 0.04600 0.10700
N 	N 	0.67030 0.90310 0.39350 -0.28300
N 	N 	0.34010 0.55930 0.05620 -0.26300
N 	N 	0.54250 0.69050 0.19010 -0.24100
H 	H 	0.55600 0.66500 0.15700 0.10600
N 	N 	0.81370 0.10750 0.62310 -0.27700
N 	N 	0.86580 0.41820 0.02760 -0.29900
N 	N 	0.94020 0.26400 0.90780 -0.26100
H 	H 	0.99030 0.26300 0.95000 0.12500
N 	N 	0.90040 0.60360 0.11530 -0.28100
N 	N 	0.23240 0.93600 0.43610 -0.28000
N 	N 	0.03120 0.81340 0.15910 -0.25100
H 	H 	0.00400 0.83900 0.09300 0.10500
C 	C 	0.75830 0.13910 0.37900 0.11500
H 	H 	0.80760 0.14590 0.44910 -0.03000
C 	C 	0.73660 0.19110 0.29260 -0.22900
H 	H 	0.77020 0.23200 0.30510 0.10400
C 	C 	0.66350 0.18060 0.18710 0.19000
C 	C 	0.61630 0.11690 0.17400 -0.23100
H 	H 	0.56760 0.10650 0.10430 0.09100
C 	C 	0.64260 0.07040 0.26510 0.10800
H 	H 	0.60990 0.02980 0.25530 -0.04200
C 	C 	0.78710 0.32680 0.12310 0.10900
H 	H 	0.83670 0.31400 0.15580 -0.05000
C 	C 	0.75070 0.26870 0.13650 -0.23400
H 	H 	0.77550 0.21870 0.17790 0.09200
C 	C 	0.67530 0.28660 0.08620 0.19900
C 	C 	0.63970 0.36020 0.02160 -0.27000
H 	H 	0.58910 0.37290 0.98430 0.13500
C 	C 	0.68180 0.41370 0.01460 0.08000
H 	H 	0.65750 0.46290 0.97090 -0.00400
C 	C 	0.68800 0.85640 0.34550 0.12700
H 	H 	0.73060 0.87270 0.35780 -0.04000
C 	C 	0.64670 0.78610 0.27930 -0.23800
H 	H 	0.66150 0.75540 0.24830 0.09700
C 	C 	0.58190 0.76110 0.25890 0.20600
C 	C 	0.56250 0.80890 0.30720 -0.23500
H 	H 	0.51990 0.79450 0.29580 0.09600
C 	C 	0.60800 0.87870 0.37260 0.12200
H 	H 	0.59440 0.91080 0.40430 -0.06500
C 	C 	0.37380 0.61520 0.14050 0.09900
H 	H 	0.35030 0.62460 0.16680 -0.05300
C 	C 	0.44140 0.66040 0.19200 -0.20100
H 	H 	0.46330 0.69620 0.25270 0.08700
C 	C 	0.47560 0.65040 0.14920 0.17000
C 	C 	0.44170 0.59150 0.06270 -0.19000
H 	H 	0.46340 0.58070 0.03390 0.07500
C 	C 	0.37550 0.54940 0.01990 0.05300
H 	H 	0.35370 0.51120 0.96140 0.00700
C 	C 	0.88930 0.09820 0.70920 0.11300
H 	H 	0.91440 0.05560 0.70480 -0.02600
C 	C 	0.93270 0.14850 0.80470 -0.22700
H 	H 	0.98530 0.13940 0.86250 0.10200
C 	C 	0.89620 0.21320 0.81290 0.19600
C 	C 	0.81810 0.22590 0.72190 -0.23600
H 	H 	0.79200 0.26940 0.72300 0.09400
C 	C 	0.78020 0.17360 0.63060 0.10600
H 	H 	0.72820 0.18390 0.56970 -0.05500
C 	C 	0.82280 0.35210 0.95800 0.16400
H 	H 	0.77570 0.34210 0.93580 -0.03900
C 	C 	0.84480 0.29880 0.91820 -0.26000
H 	H 	0.81390 0.25240 0.87300 0.11900
C 	C 	0.91370 0.31390 0.94530 0.23600
C 	C 	0.96110 0.37940 0.02290 -0.27700
H 	H 	0.00920 0.38980 0.04860 0.10200
C 	C 	0.93470 0.42800 0.06000 0.12800
H 	H 	0.96680 0.47110 0.11170 -0.04400
C 	C 	0.95380 0.64100 0.21420 0.12600
H 	H 	0.96140 0.61930 0.27370 -0.06300
C 	C 	0.99850 0.70950 0.23500 -0.23700
H 	H 	0.03390 0.73350 0.30610 0.09600
C 	C 	0.99080 0.74250 0.15050 0.21100
C 	C 	0.93450 0.70480 0.04500 -0.27500
H 	H 	0.92570 0.72570 0.98430 0.12900
C 	C 	0.89270 0.63730 0.03210 0.09500
H 	H 	0.85650 0.61260 0.96160 -0.01200
C 	C 	0.21650 0.85440 0.44290 0.11600
H 	H 	0.25210 0.82640 0.51130 -0.04500
C 	C 	0.15160 0.80970 0.35640 -0.23700
H 	H 	0.14360 0.75360 0.36620 0.10100
C 	C 	0.09890 0.85010 0.25450 0.20900
C 	C 	0.11670 0.93320 0.24460 -0.24700
H 	H 	0.08360 0.96170 0.17640 0.10400
C 	C 	0.18260 0.97160 0.33530 0.14500
H 	H 	0.19360 0.02630 0.32640 -0.04700
