data_crystal

_cell_length_a 15.16400
_cell_length_b 16.99200
_cell_length_c 17.48900
_cell_angle_alpha 90.00000
_cell_angle_beta  90.00000
_cell_angle_gamma 90.00000

_symmetry_space_group_name_	'P 1'
_symmetry_space_group_name_H-M	'P 1'

loop_
_symmetry_equiv_pos_as_xyz
  x,y,z

loop_
_atom_site_label
_atom_site_type_symbol
_atom_site_fract_x
_atom_site_fract_y
_atom_site_fract_z
_atom_site_charge
Co	Co	0.98696 0.81716 0.54816 1.06100
Co	Co	0.51304 0.31716 0.45184 1.06100
Co	Co	0.98696 0.31716 0.95184 1.06000
Co	Co	0.51304 0.81716 0.04816 1.06000
H 	H 	0.79800 0.49700 0.70140 0.10300
H 	H 	0.17700 0.65300 0.23900 0.09800
H 	H 	0.55010 0.36140 0.62660 -0.03500
H 	H 	0.64480 0.43860 0.69580 0.09900
H 	H 	0.80190 0.44890 0.51100 0.10300
H 	H 	0.70110 0.37260 0.44740 -0.04900
H 	H 	0.95160 0.71620 0.68730 -0.03600
H 	H 	0.88730 0.60160 0.72610 0.09100
H 	H 	0.77950 0.58080 0.51670 0.09400
H 	H 	0.84820 0.69670 0.48460 -0.03000
H 	H 	0.40090 0.67240 0.08070 -0.03600
H 	H 	0.29480 0.62380 0.15960 0.09400
H 	H 	0.28810 0.83410 0.26550 0.10100
H 	H 	0.39790 0.87420 0.18530 -0.05800
H 	H 	0.16450 0.82890 0.47430 -0.05000
H 	H 	0.24740 0.79530 0.37120 0.10200
H 	H 	0.05200 0.64940 0.30690 0.09000
H 	H 	0.97520 0.68990 0.41160 -0.03300
H 	H 	0.70200 0.99700 0.29860 0.10100
H 	H 	0.32300 0.15300 0.76100 0.09900
H 	H 	0.94990 0.86140 0.37340 -0.03400
H 	H 	0.85520 0.93860 0.30420 0.09800
H 	H 	0.69810 0.94890 0.48900 0.10200
H 	H 	0.79890 0.87260 0.55260 -0.04900
H 	H 	0.54840 0.21620 0.31270 -0.03600
H 	H 	0.61270 0.10160 0.27390 0.09200
H 	H 	0.72050 0.08080 0.48330 0.09400
H 	H 	0.65180 0.19670 0.51540 -0.03000
H 	H 	0.09910 0.17240 0.91930 -0.03500
H 	H 	0.20520 0.12380 0.84040 0.09400
H 	H 	0.21190 0.33410 0.73450 0.10100
H 	H 	0.10210 0.37420 0.81470 -0.05700
H 	H 	0.33550 0.32890 0.52570 -0.05000
H 	H 	0.25260 0.29530 0.62880 0.10200
H 	H 	0.44800 0.14940 0.69310 0.09000
H 	H 	0.52480 0.18990 0.58840 -0.03300
H 	H 	0.79800 0.99700 0.79860 0.10500
H 	H 	0.17700 0.15300 0.26100 0.09900
H 	H 	0.55010 0.86140 0.87340 -0.03400
H 	H 	0.64480 0.93860 0.80420 0.09900
H 	H 	0.80190 0.94890 0.98900 0.10200
H 	H 	0.70110 0.87260 0.05260 -0.04700
H 	H 	0.95160 0.21620 0.81270 -0.03500
H 	H 	0.88730 0.10160 0.77390 0.09100
H 	H 	0.77950 0.08080 0.98330 0.09000
H 	H 	0.84820 0.19670 0.01540 -0.02200
H 	H 	0.40090 0.17240 0.41930 -0.03500
H 	H 	0.29480 0.12380 0.34040 0.09400
H 	H 	0.28810 0.33410 0.23450 0.10100
H 	H 	0.39790 0.37420 0.31470 -0.05700
H 	H 	0.16450 0.32890 0.02570 -0.05000
H 	H 	0.24740 0.29530 0.12880 0.10100
H 	H 	0.05200 0.14940 0.19310 0.08800
H 	H 	0.97520 0.18990 0.08840 -0.02500
H 	H 	0.70200 0.49700 0.20140 0.10400
H 	H 	0.32300 0.65300 0.73900 0.10000
H 	H 	0.94990 0.36140 0.12660 -0.03200
H 	H 	0.85520 0.43860 0.19580 0.09800
H 	H 	0.69810 0.44890 0.01100 0.10000
H 	H 	0.79890 0.37260 0.94740 -0.04500
H 	H 	0.54840 0.71620 0.18730 -0.03600
H 	H 	0.61270 0.60160 0.22610 0.09100
H 	H 	0.72050 0.58080 0.01670 0.09400
H 	H 	0.65180 0.69670 0.98460 -0.03000
H 	H 	0.09910 0.67240 0.58070 -0.03500
H 	H 	0.20520 0.62380 0.65960 0.09400
H 	H 	0.21190 0.83410 0.76550 0.10100
H 	H 	0.10210 0.87420 0.68530 -0.05600
H 	H 	0.33550 0.82890 0.97430 -0.04900
H 	H 	0.25260 0.79530 0.87120 0.10200
H 	H 	0.44800 0.64940 0.80690 0.09000
H 	H 	0.52480 0.68990 0.91160 -0.03300
C 	C 	0.60080 0.38020 0.60280 0.10400
C 	C 	0.65700 0.42700 0.64490 -0.23100
C 	C 	0.73200 0.45660 0.60990 0.18500
C 	C 	0.75010 0.43330 0.53520 -0.22600
C 	C 	0.68950 0.38660 0.49780 0.10100
C 	C 	0.91780 0.68820 0.65220 0.11000
C 	C 	0.87910 0.61920 0.67620 -0.21500
C 	C 	0.82710 0.57540 0.62540 0.18500
C 	C 	0.81500 0.60650 0.55220 -0.21900
C 	C 	0.85700 0.67660 0.53350 0.11400
C 	C 	0.37800 0.70520 0.11840 0.12500
C 	C 	0.31340 0.67570 0.16500 -0.23100
C 	C 	0.27530 0.72430 0.22120 0.19600
C 	C 	0.30950 0.80000 0.22830 -0.22600
C 	C 	0.37570 0.82360 0.17940 0.11900
C 	C 	0.14090 0.79330 0.43950 0.11200
C 	C 	0.19170 0.77320 0.37750 -0.22400
C 	C 	0.15950 0.71960 0.32420 0.19300
C 	C 	0.07600 0.68710 0.33930 -0.22600
C 	C 	0.03050 0.71190 0.40290 0.12400
C 	C 	0.89920 0.88020 0.39720 0.10300
C 	C 	0.84300 0.92700 0.35510 -0.22900
C 	C 	0.76800 0.95660 0.39010 0.18200
C 	C 	0.74990 0.93330 0.46480 -0.22500
C 	C 	0.81050 0.88660 0.50220 0.10000
C 	C 	0.58220 0.18820 0.34780 0.11000
C 	C 	0.62090 0.11920 0.32380 -0.21500
C 	C 	0.67290 0.07540 0.37460 0.18500
C 	C 	0.68500 0.10650 0.44780 -0.21800
C 	C 	0.64300 0.17660 0.46650 0.11400
C 	C 	0.12200 0.20520 0.88160 0.12600
C 	C 	0.18660 0.17570 0.83500 -0.23000
C 	C 	0.22470 0.22430 0.77880 0.19600
C 	C 	0.19050 0.30000 0.77170 -0.22600
C 	C 	0.12430 0.32360 0.82060 0.11900
C 	C 	0.35910 0.29330 0.56050 0.11200
C 	C 	0.30830 0.27320 0.62250 -0.22400
C 	C 	0.34050 0.21960 0.67580 0.19300
C 	C 	0.42400 0.18710 0.66070 -0.22500
C 	C 	0.46950 0.21190 0.59710 0.12400
C 	C 	0.60080 0.88020 0.89720 0.10300
C 	C 	0.65700 0.92700 0.85510 -0.23000
C 	C 	0.73200 0.95660 0.89010 0.18500
C 	C 	0.75010 0.93330 0.96480 -0.22200
C 	C 	0.68950 0.88660 0.00220 0.09500
C 	C 	0.91780 0.18820 0.84780 0.10900
C 	C 	0.87910 0.11920 0.82380 -0.21300
C 	C 	0.82710 0.07540 0.87460 0.18100
C 	C 	0.81500 0.10650 0.94780 -0.21200
C 	C 	0.85700 0.17660 0.96650 0.10100
C 	C 	0.37800 0.20520 0.38160 0.12600
C 	C 	0.31340 0.17570 0.33500 -0.23100
C 	C 	0.27530 0.22430 0.27880 0.19600
C 	C 	0.30950 0.30000 0.27170 -0.22600
C 	C 	0.37570 0.32360 0.32060 0.11900
C 	C 	0.14090 0.29330 0.06050 0.11000
C 	C 	0.19170 0.27320 0.12250 -0.22200
C 	C 	0.15950 0.21960 0.17580 0.19000
C 	C 	0.07600 0.18710 0.16070 -0.21900
C 	C 	0.03050 0.21190 0.09710 0.11200
C 	C 	0.89920 0.38020 0.10280 0.10200
C 	C 	0.84300 0.42700 0.14490 -0.22700
C 	C 	0.76800 0.45660 0.10990 0.18100
C 	C 	0.74990 0.43330 0.03520 -0.21600
C 	C 	0.81050 0.38660 0.99780 0.08900
C 	C 	0.58220 0.68820 0.15220 0.11000
C 	C 	0.62090 0.61920 0.17620 -0.21500
C 	C 	0.67290 0.57540 0.12540 0.18400
C 	C 	0.68500 0.60650 0.05220 -0.21800
C 	C 	0.64300 0.67660 0.03350 0.11300
C 	C 	0.12200 0.70520 0.61840 0.12600
C 	C 	0.18660 0.67570 0.66500 -0.23100
C 	C 	0.22470 0.72430 0.72120 0.19700
C 	C 	0.19050 0.80000 0.72830 -0.22600
C 	C 	0.12430 0.82360 0.67940 0.11900
C 	C 	0.35910 0.79330 0.93950 0.11200
C 	C 	0.30830 0.77320 0.87750 -0.22400
C 	C 	0.34050 0.71960 0.82420 0.19300
C 	C 	0.42400 0.68710 0.83930 -0.22500
C 	C 	0.46950 0.71190 0.90290 0.12400
N 	N 	0.90960 0.71747 0.58100 -0.27200
N 	N 	0.61480 0.36010 0.52970 -0.27600
N 	N 	0.78790 0.50760 0.65160 -0.24100
N 	N 	0.05960 0.76540 0.45350 -0.27000
N 	N 	0.20460 0.69340 0.26040 -0.24600
N 	N 	0.41030 0.77860 0.12370 -0.28100
N 	N 	0.59040 0.21747 0.41900 -0.27200
N 	N 	0.88520 0.86010 0.47030 -0.27600
N 	N 	0.71210 0.00760 0.34840 -0.23700
N 	N 	0.44040 0.26540 0.54650 -0.27100
N 	N 	0.29540 0.19340 0.73960 -0.24600
N 	N 	0.08970 0.27860 0.87630 -0.28000
N 	N 	0.90960 0.21747 0.91900 -0.27000
N 	N 	0.61480 0.86010 0.97030 -0.27400
N 	N 	0.78790 0.00760 0.84840 -0.24100
N 	N 	0.05960 0.26540 0.04650 -0.26900
N 	N 	0.20460 0.19340 0.23960 -0.24500
N 	N 	0.41030 0.27860 0.37630 -0.28100
N 	N 	0.59040 0.71747 0.08100 -0.27200
N 	N 	0.88520 0.36010 0.02970 -0.27100
N 	N 	0.71210 0.50760 0.15160 -0.24000
N 	N 	0.44040 0.76540 0.95350 -0.27000
N 	N 	0.29540 0.69340 0.76040 -0.24600
N 	N 	0.08970 0.77860 0.62370 -0.28000
Co	Co	0.01304 0.68284 0.04816 1.06100
Co	Co	0.48696 0.18284 0.95184 1.06100
Co	Co	0.01304 0.18284 0.45184 1.06200
Co	Co	0.48696 0.68284 0.54816 1.06200
H 	H 	0.20200 0.00300 0.20140 0.10500
H 	H 	0.82300 0.84700 0.73900 0.09900
H 	H 	0.44990 0.13860 0.12660 -0.03400
H 	H 	0.35520 0.06140 0.19580 0.09900
H 	H 	0.19810 0.05110 0.01100 0.10200
H 	H 	0.29890 0.12740 0.94740 -0.04700
H 	H 	0.04840 0.78380 0.18730 -0.03500
H 	H 	0.11270 0.89840 0.22610 0.09100
H 	H 	0.22050 0.91920 0.01670 0.09000
H 	H 	0.15180 0.80330 0.98460 -0.02200
H 	H 	0.59910 0.82760 0.58070 -0.03500
H 	H 	0.70520 0.87620 0.65960 0.09400
H 	H 	0.71190 0.66590 0.76550 0.10100
H 	H 	0.60210 0.62580 0.68530 -0.05700
H 	H 	0.83550 0.67110 0.97430 -0.05000
H 	H 	0.75260 0.70470 0.87120 0.10100
H 	H 	0.94800 0.85060 0.80690 0.08800
H 	H 	0.02480 0.81010 0.91160 -0.02500
H 	H 	0.29800 0.50300 0.79860 0.10400
H 	H 	0.67700 0.34700 0.26100 0.10000
H 	H 	0.05010 0.63860 0.87340 -0.03200
H 	H 	0.14480 0.56140 0.80420 0.09800
H 	H 	0.30190 0.55110 0.98900 0.10000
H 	H 	0.20110 0.62740 0.05260 -0.04500
H 	H 	0.45160 0.28380 0.81270 -0.03600
H 	H 	0.38730 0.39840 0.77390 0.09100
H 	H 	0.27950 0.41920 0.98330 0.09400
H 	H 	0.34820 0.30330 0.01540 -0.03000
H 	H 	0.90090 0.32760 0.41930 -0.03500
H 	H 	0.79480 0.37620 0.34040 0.09400
H 	H 	0.78810 0.16590 0.23450 0.10100
H 	H 	0.89790 0.12580 0.31470 -0.05600
H 	H 	0.66450 0.17110 0.02570 -0.04900
H 	H 	0.74740 0.20470 0.12880 0.10200
H 	H 	0.55200 0.35060 0.19310 0.09000
H 	H 	0.47520 0.31010 0.08840 -0.03300
H 	H 	0.20200 0.50300 0.29860 0.10400
H 	H 	0.82300 0.34700 0.76100 0.09900
H 	H 	0.44990 0.63860 0.37340 -0.03500
H 	H 	0.35520 0.56140 0.30420 0.09900
H 	H 	0.19810 0.55110 0.48900 0.10300
H 	H 	0.29890 0.62740 0.55260 -0.04900
H 	H 	0.04840 0.28380 0.31270 -0.03600
H 	H 	0.11270 0.39840 0.27390 0.09100
H 	H 	0.22050 0.41920 0.48330 0.09400
H 	H 	0.15180 0.30330 0.51540 -0.03000
H 	H 	0.59910 0.32760 0.91930 -0.03600
H 	H 	0.70520 0.37620 0.84040 0.09400
H 	H 	0.71190 0.16590 0.73450 0.10100
H 	H 	0.60210 0.12580 0.81470 -0.05800
H 	H 	0.83550 0.17110 0.52570 -0.05000
H 	H 	0.75260 0.20470 0.62880 0.10200
H 	H 	0.94800 0.35060 0.69310 0.09000
H 	H 	0.02480 0.31010 0.58840 -0.03300
H 	H 	0.29800 0.00300 0.70140 0.10100
H 	H 	0.67700 0.84700 0.23900 0.09900
H 	H 	0.05010 0.13860 0.62660 -0.03400
H 	H 	0.14480 0.06140 0.69580 0.09800
H 	H 	0.30190 0.05110 0.51100 0.10200
H 	H 	0.20110 0.12740 0.44740 -0.04900
H 	H 	0.45160 0.78380 0.68730 -0.03600
H 	H 	0.38730 0.89840 0.72610 0.09200
H 	H 	0.27950 0.91920 0.51670 0.09400
H 	H 	0.34820 0.80330 0.48460 -0.03000
H 	H 	0.90090 0.82760 0.08070 -0.03500
H 	H 	0.79480 0.87620 0.15960 0.09400
H 	H 	0.78810 0.66590 0.26550 0.10100
H 	H 	0.89790 0.62580 0.18530 -0.05700
H 	H 	0.66450 0.67110 0.47430 -0.05000
H 	H 	0.74740 0.70470 0.37120 0.10200
H 	H 	0.55200 0.85060 0.30690 0.09000
H 	H 	0.47520 0.81010 0.41160 -0.03300
C 	C 	0.39920 0.11980 0.10280 0.10300
C 	C 	0.34300 0.07300 0.14490 -0.23000
C 	C 	0.26800 0.04340 0.10990 0.18500
C 	C 	0.24990 0.06670 0.03520 -0.22200
C 	C 	0.31050 0.11340 0.99780 0.09500
C 	C 	0.08220 0.81180 0.15220 0.10900
C 	C 	0.12090 0.88080 0.17620 -0.21300
C 	C 	0.17290 0.92460 0.12540 0.18100
C 	C 	0.18500 0.89350 0.05220 -0.21200
C 	C 	0.14300 0.82340 0.03350 0.10100
C 	C 	0.62200 0.79480 0.61840 0.12600
C 	C 	0.68660 0.82430 0.66500 -0.23100
C 	C 	0.72470 0.77570 0.72120 0.19600
C 	C 	0.69050 0.70000 0.72830 -0.22600
C 	C 	0.62430 0.67640 0.67940 0.11900
C 	C 	0.85910 0.70670 0.93950 0.11000
C 	C 	0.80830 0.72680 0.87750 -0.22200
C 	C 	0.84050 0.78040 0.82420 0.19000
C 	C 	0.92400 0.81290 0.83930 -0.21900
C 	C 	0.96950 0.78810 0.90290 0.11200
C 	C 	0.10080 0.61980 0.89720 0.10200
C 	C 	0.15700 0.57300 0.85510 -0.22700
C 	C 	0.23200 0.54340 0.89010 0.18100
C 	C 	0.25010 0.56670 0.96480 -0.21600
C 	C 	0.18950 0.61340 0.00220 0.08900
C 	C 	0.41780 0.31180 0.84780 0.11000
C 	C 	0.37910 0.38080 0.82380 -0.21500
C 	C 	0.32710 0.42460 0.87460 0.18400
C 	C 	0.31500 0.39350 0.94780 -0.21800
C 	C 	0.35700 0.32340 0.96650 0.11300
C 	C 	0.87800 0.29480 0.38160 0.12600
C 	C 	0.81340 0.32430 0.33500 -0.23100
C 	C 	0.77530 0.27570 0.27880 0.19700
C 	C 	0.80950 0.20000 0.27170 -0.22600
C 	C 	0.87570 0.17640 0.32060 0.11900
C 	C 	0.64090 0.20670 0.06050 0.11200
C 	C 	0.69170 0.22680 0.12250 -0.22400
C 	C 	0.65950 0.28040 0.17580 0.19300
C 	C 	0.57600 0.31290 0.16070 -0.22500
C 	C 	0.53050 0.28810 0.09710 0.12400
C 	C 	0.39920 0.61980 0.39720 0.10400
C 	C 	0.34300 0.57300 0.35510 -0.23100
C 	C 	0.26800 0.54340 0.39010 0.18500
C 	C 	0.24990 0.56670 0.46480 -0.22600
C 	C 	0.31050 0.61340 0.50220 0.10100
C 	C 	0.08220 0.31180 0.34780 0.11000
C 	C 	0.12090 0.38080 0.32380 -0.21500
C 	C 	0.17290 0.42460 0.37460 0.18500
C 	C 	0.18500 0.39350 0.44780 -0.21900
C 	C 	0.14300 0.32340 0.46650 0.11400
C 	C 	0.62200 0.29480 0.88160 0.12500
C 	C 	0.68660 0.32430 0.83500 -0.23100
C 	C 	0.72470 0.27570 0.77880 0.19600
C 	C 	0.69050 0.20000 0.77170 -0.22600
C 	C 	0.62430 0.17640 0.82060 0.11900
C 	C 	0.85910 0.20670 0.56050 0.11200
C 	C 	0.80830 0.22680 0.62250 -0.22400
C 	C 	0.84050 0.28040 0.67580 0.19300
C 	C 	0.92400 0.31290 0.66070 -0.22600
C 	C 	0.96950 0.28810 0.59710 0.12400
C 	C 	0.10080 0.11980 0.60280 0.10300
C 	C 	0.15700 0.07300 0.64490 -0.22900
C 	C 	0.23200 0.04340 0.60990 0.18200
C 	C 	0.25010 0.06670 0.53520 -0.22500
C 	C 	0.18950 0.11340 0.49780 0.10000
C 	C 	0.41780 0.81180 0.65220 0.11000
C 	C 	0.37910 0.88080 0.67620 -0.21500
C 	C 	0.32710 0.92460 0.62540 0.18500
C 	C 	0.31500 0.89350 0.55220 -0.21800
C 	C 	0.35700 0.82340 0.53350 0.11400
C 	C 	0.87800 0.79480 0.11840 0.12600
C 	C 	0.81340 0.82430 0.16500 -0.23000
C 	C 	0.77530 0.77570 0.22120 0.19600
C 	C 	0.80950 0.70000 0.22830 -0.22600
C 	C 	0.87570 0.67640 0.17940 0.11900
C 	C 	0.64090 0.70670 0.43950 0.11200
C 	C 	0.69170 0.72680 0.37750 -0.22400
C 	C 	0.65950 0.78040 0.32420 0.19300
C 	C 	0.57600 0.81290 0.33930 -0.22500
C 	C 	0.53050 0.78810 0.40290 0.12400
N 	N 	0.09040 0.78253 0.08100 -0.27000
N 	N 	0.38520 0.13990 0.02970 -0.27400
N 	N 	0.21210 0.99240 0.15160 -0.24100
N 	N 	0.94040 0.73460 0.95350 -0.26900
N 	N 	0.79540 0.80660 0.76040 -0.24500
N 	N 	0.58970 0.72140 0.62370 -0.28100
N 	N 	0.40960 0.28253 0.91900 -0.27200
N 	N 	0.11480 0.63990 0.97030 -0.27100
N 	N 	0.28790 0.49240 0.84840 -0.24000
N 	N 	0.55960 0.23460 0.04650 -0.27000
N 	N 	0.70460 0.30660 0.23960 -0.24600
N 	N 	0.91030 0.22140 0.37630 -0.28000
N 	N 	0.09040 0.28253 0.41900 -0.27200
N 	N 	0.38520 0.63990 0.47030 -0.27600
N 	N 	0.21210 0.49240 0.34840 -0.24100
N 	N 	0.94040 0.23460 0.54650 -0.27000
N 	N 	0.79540 0.30660 0.73960 -0.24600
N 	N 	0.58970 0.22140 0.87630 -0.28100
N 	N 	0.40960 0.78253 0.58100 -0.27200
N 	N 	0.11480 0.13990 0.52970 -0.27600
N 	N 	0.28790 0.99240 0.65160 -0.23700
N 	N 	0.55960 0.73460 0.45350 -0.27100
N 	N 	0.70460 0.80660 0.26040 -0.24600
N 	N 	0.91030 0.72140 0.12370 -0.28000
