data_crystal

_cell_length_a 6.80910
_cell_length_b 16.41280
_cell_length_c 13.56740
_cell_angle_alpha 90.00000
_cell_angle_beta  90.00000
_cell_angle_gamma 90.00000

_symmetry_space_group_name_	'P 1'
_symmetry_space_group_name_H-M	'P 1'

loop_
_symmetry_equiv_pos_as_xyz
  x,y,z

loop_
_atom_site_label
_atom_site_type_symbol
_atom_site_fract_x
_atom_site_fract_y
_atom_site_fract_z
_atom_site_charge
O 	O 	0.31180 0.16320 0.65550 -0.51500
O 	O 	0.64150 0.16260 0.66650 -0.50100
C 	C 	0.32250 0.03290 0.52610 -0.01100
H 	H 	0.20150 0.05540 0.54250 0.05600
C 	C 	0.66750 0.03230 0.53690 -0.00700
H 	H 	0.78300 0.05480 0.56110 0.05700
C 	C 	0.49110 0.06490 0.56500 -0.08400
C 	C 	0.47810 0.13660 0.63330 0.42300
O 	O 	0.18820 0.83680 0.15550 -0.51600
O 	O 	0.85850 0.83740 0.16650 -0.50200
C 	C 	0.17750 0.96710 0.02610 -0.01100
H 	H 	0.29850 0.94460 0.04250 0.05600
C 	C 	0.83250 0.96770 0.03690 -0.00700
H 	H 	0.71700 0.94520 0.06110 0.05700
C 	C 	0.00890 0.93510 0.06500 -0.08500
C 	C 	0.02190 0.86340 0.13330 0.42400
O 	O 	0.68820 0.66320 0.34450 -0.51600
O 	O 	0.35850 0.66260 0.33350 -0.50200
C 	C 	0.67750 0.53290 0.47390 -0.01100
H 	H 	0.79850 0.55540 0.45750 0.05600
C 	C 	0.33250 0.53230 0.46310 -0.00800
H 	H 	0.21700 0.55480 0.43890 0.05700
C 	C 	0.50890 0.56490 0.43500 -0.08400
C 	C 	0.52190 0.63660 0.36670 0.42300
O 	O 	0.81180 0.33680 0.84450 -0.51600
O 	O 	0.14150 0.33740 0.83350 -0.50200
C 	C 	0.82250 0.46710 0.97390 -0.01100
H 	H 	0.70150 0.44460 0.95750 0.05600
C 	C 	0.16750 0.46770 0.96310 -0.00600
H 	H 	0.28300 0.44520 0.93890 0.05700
C 	C 	0.99110 0.43510 0.93500 -0.08500
C 	C 	0.97810 0.36340 0.86670 0.42300
O 	O 	0.68820 0.83680 0.34450 -0.51600
O 	O 	0.35850 0.83740 0.33350 -0.50200
C 	C 	0.67750 0.96710 0.47390 -0.01100
H 	H 	0.79850 0.94460 0.45750 0.05600
C 	C 	0.33250 0.96770 0.46310 -0.00700
H 	H 	0.21700 0.94520 0.43890 0.05700
C 	C 	0.50890 0.93510 0.43500 -0.08400
C 	C 	0.52190 0.86340 0.36670 0.42300
O 	O 	0.81180 0.16320 0.84450 -0.51600
O 	O 	0.14150 0.16260 0.83350 -0.50200
C 	C 	0.82250 0.03290 0.97390 -0.01100
H 	H 	0.70150 0.05540 0.95750 0.05600
C 	C 	0.16750 0.03230 0.96310 -0.00700
H 	H 	0.28300 0.05480 0.93890 0.05700
C 	C 	0.99110 0.06490 0.93500 -0.08500
C 	C 	0.97810 0.13660 0.86670 0.42400
O 	O 	0.31180 0.33680 0.65550 -0.51600
O 	O 	0.64150 0.33740 0.66650 -0.50200
C 	C 	0.32250 0.46710 0.52610 -0.01100
H 	H 	0.20150 0.44460 0.54250 0.05600
C 	C 	0.66750 0.46770 0.53690 -0.00800
H 	H 	0.78300 0.44520 0.56110 0.05700
C 	C 	0.49110 0.43510 0.56500 -0.08400
C 	C 	0.47810 0.36340 0.63330 0.42300
O 	O 	0.18820 0.66320 0.15550 -0.51600
O 	O 	0.85850 0.66260 0.16650 -0.50200
C 	C 	0.17750 0.53290 0.02610 -0.01100
H 	H 	0.29850 0.55540 0.04250 0.05600
C 	C 	0.83250 0.53230 0.03690 -0.00600
H 	H 	0.71700 0.55480 0.06110 0.05700
C 	C 	0.00890 0.56490 0.06500 -0.08500
C 	C 	0.02190 0.63660 0.13330 0.42300
O 	O 	0.47510 0.25000 0.80840 -0.66600
V 	V 	0.20020 0.25000 0.73916 1.83400
O 	O 	0.02490 0.75000 0.30840 -0.66600
V 	V 	0.29980 0.75000 0.23916 1.83400
O 	O 	0.52490 0.75000 0.19160 -0.66600
V 	V 	0.79980 0.75000 0.26084 1.83400
O 	O 	0.97510 0.25000 0.69160 -0.66600
V 	V 	0.70020 0.25000 0.76084 1.83400
