data_crystal

_cell_length_a 18.78600
_cell_length_b 16.76800
_cell_length_c 12.80300
_cell_angle_alpha 90.00000
_cell_angle_beta  100.02000
_cell_angle_gamma 90.00000

_symmetry_space_group_name_	'P 1'
_symmetry_space_group_name_H-M	'P 1'

loop_
_symmetry_equiv_pos_as_xyz
  x,y,z

loop_
_atom_site_label
_atom_site_type_symbol
_atom_site_fract_x
_atom_site_fract_y
_atom_site_fract_z
_atom_site_charge
Zn	Zn	0.78935 0.55165 0.66777 1.23100
O 	O 	0.81810 0.64690 0.60270 -0.37200
O 	O 	0.83280 0.55640 0.51190 0.09300
O 	O 	0.79350 0.67830 0.55740 -0.11700
O 	O 	0.84620 0.56530 0.55900 -0.54600
O 	O 	0.76760 0.42450 0.81670 -0.32100
O 	O 	0.85070 0.46190 0.73190 -0.44300
O 	O 	0.97360 0.86600 0.21960 -0.12500
N 	N 	0.68430 0.52580 0.60040 -0.27400
C 	C 	0.64010 0.49430 0.65540 0.10600
H 	H 	0.65900 0.47870 0.72430 -0.01100
C 	C 	0.56880 0.48200 0.62140 -0.14500
H 	H 	0.54070 0.45850 0.66600 0.08500
C 	C 	0.53790 0.50480 0.51980 0.06700
C 	C 	0.58560 0.53840 0.46190 -0.14300
H 	H 	0.56870 0.55530 0.39290 0.08300
C 	C 	0.65730 0.54760 0.50380 0.09500
H 	H 	0.68790 0.57010 0.46190 -0.00500
N 	N 	0.77570 0.62330 0.79130 -0.25500
C 	C 	0.75730 0.72140 0.95510 0.02900
C 	C 	0.81530 0.60600 0.88830 0.21600
H 	H 	0.84780 0.56360 0.89760 -0.05000
C 	C 	0.80530 0.65380 0.97190 -0.18100
H 	H 	0.82980 0.64250 0.03980 0.09100
C 	C 	0.72160 0.73180 0.85700 0.19300
H 	H 	0.69040 0.77470 0.84010 -0.01600
C 	C 	0.73250 0.67570 0.77950 0.14200
H 	H 	0.70340 0.68010 0.71320 -0.03300
C 	C 	0.76000 0.60000 0.88560 -0.16900
H 	H 	0.76090 0.54530 0.89740 0.07100
C 	C 	0.74310 0.64570 0.96640 0.07100
H 	H 	0.72360 0.62540 0.02290 -0.00400
C 	C 	0.75660 0.75880 0.85820 -0.29900
H 	H 	0.75100 0.81330 0.84660 0.13200
C 	C 	0.76590 0.70070 0.77780 -0.08800
H 	H 	0.76480 0.72010 0.70950 0.07300
C 	C 	0.95260 0.77800 0.41470 -0.13200
H 	H 	0.97470 0.82600 0.43750 0.09400
C 	C 	0.91210 0.73820 0.47960 0.08100
H 	H 	0.90950 0.75880 0.54620 0.01800
C 	C 	0.87660 0.67050 0.44760 -0.15000
C 	C 	0.87870 0.64360 0.34470 -0.00500
C 	C 	0.92270 0.68180 0.28500 -0.08900
H 	H 	0.92680 0.66150 0.21870 0.07600
C 	C 	0.96030 0.74900 0.32110 0.05900
C 	C 	0.98290 0.79150 0.22820 0.03500
C 	C 	0.83490 0.63000 0.52120 0.49400
C 	C 	0.82950 0.41830 0.79610 0.33100
Zn	Zn	0.28935 0.05165 0.66777 1.23200
O 	O 	0.31810 0.14690 0.60270 -0.37100
O 	O 	0.33280 0.05640 0.51190 0.09400
O 	O 	0.29350 0.17830 0.55740 -0.11600
O 	O 	0.34620 0.06530 0.55900 -0.54700
O 	O 	0.26760 0.92450 0.81670 -0.32000
O 	O 	0.35070 0.96190 0.73190 -0.44200
O 	O 	0.47360 0.36600 0.21960 -0.12600
N 	N 	0.18430 0.02580 0.60040 -0.27500
C 	C 	0.14010 0.99430 0.65540 0.10700
H 	H 	0.15900 0.97870 0.72430 -0.01100
C 	C 	0.06880 0.98200 0.62140 -0.14500
H 	H 	0.04070 0.95850 0.66600 0.08500
C 	C 	0.03790 0.00480 0.51980 0.06600
C 	C 	0.08560 0.03840 0.46190 -0.14300
H 	H 	0.06870 0.05530 0.39290 0.08400
C 	C 	0.15730 0.04760 0.50380 0.09500
H 	H 	0.18790 0.07010 0.46190 -0.00500
N 	N 	0.27570 0.12330 0.79130 -0.25600
C 	C 	0.25730 0.22140 0.95510 0.02900
C 	C 	0.31530 0.10600 0.88830 0.22500
H 	H 	0.34780 0.06360 0.89760 -0.05400
C 	C 	0.30530 0.15380 0.97190 -0.19100
H 	H 	0.32980 0.14250 0.03980 0.09700
C 	C 	0.22160 0.23180 0.85700 0.19500
H 	H 	0.19040 0.27470 0.84010 -0.01600
C 	C 	0.23250 0.17570 0.77950 0.14300
H 	H 	0.20340 0.18010 0.71320 -0.03300
C 	C 	0.26000 0.10000 0.88560 -0.17400
H 	H 	0.26090 0.04530 0.89740 0.07100
C 	C 	0.24310 0.14570 0.96640 0.07200
H 	H 	0.22360 0.12540 0.02290 -0.00300
C 	C 	0.25660 0.25880 0.85820 -0.30100
H 	H 	0.25100 0.31330 0.84660 0.13300
C 	C 	0.26590 0.20070 0.77780 -0.08800
H 	H 	0.26480 0.22010 0.70950 0.07300
C 	C 	0.45260 0.27800 0.41470 -0.13300
H 	H 	0.47470 0.32600 0.43750 0.09500
C 	C 	0.41210 0.23820 0.47960 0.08100
H 	H 	0.40950 0.25880 0.54620 0.01800
C 	C 	0.37660 0.17050 0.44760 -0.15000
C 	C 	0.37870 0.14360 0.34470 -0.00400
C 	C 	0.42270 0.18180 0.28500 -0.09000
H 	H 	0.42680 0.16150 0.21870 0.07700
C 	C 	0.46030 0.24900 0.32110 0.06000
C 	C 	0.48290 0.29150 0.22820 0.04000
C 	C 	0.33490 0.13000 0.52120 0.49400
C 	C 	0.32950 0.91830 0.79610 0.33100
Zn	Zn	0.21065 0.55165 0.83223 1.23200
O 	O 	0.18190 0.64690 0.89730 -0.37200
O 	O 	0.16720 0.55640 0.98810 0.09400
O 	O 	0.20650 0.67830 0.94260 -0.11500
O 	O 	0.15380 0.56530 0.94100 -0.54600
O 	O 	0.23240 0.42450 0.68330 -0.32100
O 	O 	0.14930 0.46190 0.76810 -0.44300
O 	O 	0.02640 0.86600 0.28040 -0.12700
N 	N 	0.31570 0.52580 0.89960 -0.27500
C 	C 	0.35990 0.49430 0.84460 0.10700
H 	H 	0.34100 0.47870 0.77570 -0.01100
C 	C 	0.43120 0.48200 0.87860 -0.14600
H 	H 	0.45930 0.45850 0.83400 0.08500
C 	C 	0.46210 0.50480 0.98020 0.06700
C 	C 	0.41440 0.53840 0.03810 -0.14500
H 	H 	0.43130 0.55530 0.10710 0.08400
C 	C 	0.34270 0.54760 0.99620 0.09700
H 	H 	0.31210 0.57010 0.03810 -0.00600
N 	N 	0.22430 0.62330 0.70870 -0.25500
C 	C 	0.24270 0.72140 0.54490 0.02800
C 	C 	0.18470 0.60600 0.61170 0.21700
H 	H 	0.15220 0.56360 0.60240 -0.05100
C 	C 	0.19470 0.65380 0.52810 -0.18300
H 	H 	0.17020 0.64250 0.46020 0.09200
C 	C 	0.27840 0.73180 0.64300 0.19300
H 	H 	0.30960 0.77470 0.65990 -0.01600
C 	C 	0.26750 0.67570 0.72050 0.14200
H 	H 	0.29660 0.68010 0.78680 -0.03300
C 	C 	0.24000 0.60000 0.61440 -0.17000
H 	H 	0.23910 0.54530 0.60260 0.07000
C 	C 	0.25690 0.64570 0.53360 0.07100
H 	H 	0.27640 0.62540 0.47710 -0.00400
C 	C 	0.24340 0.75880 0.64180 -0.29900
H 	H 	0.24900 0.81330 0.65340 0.13200
C 	C 	0.23410 0.70070 0.72220 -0.08800
H 	H 	0.23520 0.72010 0.79050 0.07300
C 	C 	0.04740 0.77800 0.08530 -0.12900
H 	H 	0.02530 0.82600 0.06250 0.09300
C 	C 	0.08790 0.73820 0.02040 0.07600
H 	H 	0.09050 0.75880 0.95380 0.02100
C 	C 	0.12340 0.67050 0.05240 -0.14900
C 	C 	0.12130 0.64360 0.15530 -0.00500
C 	C 	0.07730 0.68180 0.21500 -0.08800
H 	H 	0.07320 0.66150 0.28130 0.07600
C 	C 	0.03970 0.74900 0.17890 0.05800
C 	C 	0.01710 0.79150 0.27180 0.04500
C 	C 	0.16510 0.63000 0.97880 0.49400
C 	C 	0.17050 0.41830 0.70390 0.33100
Zn	Zn	0.71065 0.05165 0.83223 1.23200
O 	O 	0.68190 0.14690 0.89730 -0.37100
O 	O 	0.66720 0.05640 0.98810 0.09100
O 	O 	0.70650 0.17830 0.94260 -0.11600
O 	O 	0.65380 0.06530 0.94100 -0.54400
O 	O 	0.73240 0.92450 0.68330 -0.32100
O 	O 	0.64930 0.96190 0.76810 -0.44200
O 	O 	0.52640 0.36600 0.28040 -0.12500
N 	N 	0.81570 0.02580 0.89960 -0.27200
C 	C 	0.85990 0.99430 0.84460 0.10500
H 	H 	0.84100 0.97870 0.77570 -0.01000
C 	C 	0.93120 0.98200 0.87860 -0.13800
H 	H 	0.95930 0.95850 0.83400 0.08300
C 	C 	0.96210 0.00480 0.98020 0.05800
C 	C 	0.91440 0.03840 0.03810 -0.12700
H 	H 	0.93130 0.05530 0.10710 0.07900
C 	C 	0.84270 0.04760 0.99620 0.08000
H 	H 	0.81210 0.07010 0.03810 0.00200
N 	N 	0.72430 0.12330 0.70870 -0.25600
C 	C 	0.74270 0.22140 0.54490 0.02800
C 	C 	0.68470 0.10600 0.61170 0.21800
H 	H 	0.65220 0.06360 0.60240 -0.05100
C 	C 	0.69470 0.15380 0.52810 -0.18300
H 	H 	0.67020 0.14250 0.46020 0.09300
C 	C 	0.77840 0.23180 0.64300 0.19300
H 	H 	0.80960 0.27470 0.65990 -0.01600
C 	C 	0.76750 0.17570 0.72050 0.14200
H 	H 	0.79660 0.18010 0.78680 -0.03300
C 	C 	0.74000 0.10000 0.61440 -0.17000
H 	H 	0.73910 0.04530 0.60260 0.07000
C 	C 	0.75690 0.14570 0.53360 0.07100
H 	H 	0.77640 0.12540 0.47710 -0.00400
C 	C 	0.74340 0.25880 0.64180 -0.29900
H 	H 	0.74900 0.31330 0.65340 0.13200
C 	C 	0.73410 0.20070 0.72220 -0.08800
H 	H 	0.73520 0.22010 0.79050 0.07300
C 	C 	0.54740 0.27800 0.08530 -0.13400
H 	H 	0.52530 0.32600 0.06250 0.09600
C 	C 	0.58790 0.23820 0.02040 0.08400
H 	H 	0.59050 0.25880 0.95380 0.01600
C 	C 	0.62340 0.17050 0.05240 -0.14900
C 	C 	0.62130 0.14360 0.15530 -0.00400
C 	C 	0.57730 0.18180 0.21500 -0.09000
H 	H 	0.57320 0.16150 0.28130 0.07700
C 	C 	0.53970 0.24900 0.17890 0.06100
C 	C 	0.51710 0.29150 0.27180 0.03800
C 	C 	0.66510 0.13000 0.97880 0.49200
C 	C 	0.67050 0.91830 0.70390 0.33000
Zn	Zn	0.21065 0.44835 0.33223 1.23200
O 	O 	0.18190 0.35310 0.39730 -0.37100
O 	O 	0.16720 0.44360 0.48810 0.09400
O 	O 	0.20650 0.32170 0.44260 -0.11600
O 	O 	0.15380 0.43470 0.44100 -0.54600
O 	O 	0.23240 0.57550 0.18330 -0.32100
O 	O 	0.14930 0.53810 0.26810 -0.44300
O 	O 	0.02640 0.13400 0.78040 -0.12500
N 	N 	0.31570 0.47420 0.39960 -0.27400
C 	C 	0.35990 0.50570 0.34460 0.10600
H 	H 	0.34100 0.52130 0.27570 -0.01100
C 	C 	0.43120 0.51800 0.37860 -0.14500
H 	H 	0.45930 0.54150 0.33400 0.08500
C 	C 	0.46210 0.49520 0.48020 0.06700
C 	C 	0.41440 0.46160 0.53810 -0.14300
H 	H 	0.43130 0.44470 0.60710 0.08300
C 	C 	0.34270 0.45240 0.49620 0.09500
H 	H 	0.31210 0.42990 0.53810 -0.00500
N 	N 	0.22430 0.37670 0.20870 -0.25500
C 	C 	0.24270 0.27860 0.04490 0.02900
C 	C 	0.18470 0.39400 0.11170 0.21600
H 	H 	0.15220 0.43640 0.10240 -0.05000
C 	C 	0.19470 0.34620 0.02810 -0.18100
H 	H 	0.17020 0.35750 0.96020 0.09100
C 	C 	0.27840 0.26820 0.14300 0.19300
H 	H 	0.30960 0.22530 0.15990 -0.01600
C 	C 	0.26750 0.32430 0.22050 0.14200
H 	H 	0.29660 0.31990 0.28680 -0.03300
C 	C 	0.24000 0.40000 0.11440 -0.16900
H 	H 	0.23910 0.45470 0.10260 0.07100
C 	C 	0.25690 0.35430 0.03360 0.07100
H 	H 	0.27640 0.37460 0.97710 -0.00400
C 	C 	0.24340 0.24120 0.14180 -0.29900
H 	H 	0.24900 0.18670 0.15340 0.13200
C 	C 	0.23410 0.29930 0.22220 -0.08800
H 	H 	0.23520 0.27990 0.29050 0.07300
C 	C 	0.04740 0.22200 0.58530 -0.13200
H 	H 	0.02530 0.17400 0.56250 0.09400
C 	C 	0.08790 0.26180 0.52040 0.08100
H 	H 	0.09050 0.24120 0.45380 0.01800
C 	C 	0.12340 0.32950 0.55240 -0.15000
C 	C 	0.12130 0.35640 0.65530 -0.00500
C 	C 	0.07730 0.31820 0.71500 -0.08900
H 	H 	0.07320 0.33850 0.78130 0.07600
C 	C 	0.03970 0.25100 0.67890 0.05900
C 	C 	0.01710 0.20850 0.77180 0.03500
C 	C 	0.16510 0.37000 0.47880 0.49400
C 	C 	0.17050 0.58170 0.20390 0.33100
Zn	Zn	0.71065 0.94835 0.33223 1.23200
O 	O 	0.68190 0.85310 0.39730 -0.37100
O 	O 	0.66720 0.94360 0.48810 0.09400
O 	O 	0.70650 0.82170 0.44260 -0.11600
O 	O 	0.65380 0.93470 0.44100 -0.54700
O 	O 	0.73240 0.07550 0.18330 -0.32000
O 	O 	0.64930 0.03810 0.26810 -0.44200
O 	O 	0.52640 0.63400 0.78040 -0.12600
N 	N 	0.81570 0.97420 0.39960 -0.27500
C 	C 	0.85990 0.00570 0.34460 0.10700
H 	H 	0.84100 0.02130 0.27570 -0.01100
C 	C 	0.93120 0.01800 0.37860 -0.14500
H 	H 	0.95930 0.04150 0.33400 0.08500
C 	C 	0.96210 0.99520 0.48020 0.06600
C 	C 	0.91440 0.96160 0.53810 -0.14300
H 	H 	0.93130 0.94470 0.60710 0.08400
C 	C 	0.84270 0.95240 0.49620 0.09500
H 	H 	0.81210 0.92990 0.53810 -0.00500
N 	N 	0.72430 0.87670 0.20870 -0.25600
C 	C 	0.74270 0.77860 0.04490 0.02900
C 	C 	0.68470 0.89400 0.11170 0.22500
H 	H 	0.65220 0.93640 0.10240 -0.05400
C 	C 	0.69470 0.84620 0.02810 -0.19100
H 	H 	0.67020 0.85750 0.96020 0.09700
C 	C 	0.77840 0.76820 0.14300 0.19500
H 	H 	0.80960 0.72530 0.15990 -0.01600
C 	C 	0.76750 0.82430 0.22050 0.14300
H 	H 	0.79660 0.81990 0.28680 -0.03300
C 	C 	0.74000 0.90000 0.11440 -0.17400
H 	H 	0.73910 0.95470 0.10260 0.07100
C 	C 	0.75690 0.85430 0.03360 0.07200
H 	H 	0.77640 0.87460 0.97710 -0.00300
C 	C 	0.74340 0.74120 0.14180 -0.30100
H 	H 	0.74900 0.68670 0.15340 0.13300
C 	C 	0.73410 0.79930 0.22220 -0.08800
H 	H 	0.73520 0.77990 0.29050 0.07300
C 	C 	0.54740 0.72200 0.58530 -0.13300
H 	H 	0.52530 0.67400 0.56250 0.09500
C 	C 	0.58790 0.76180 0.52040 0.08100
H 	H 	0.59050 0.74120 0.45380 0.01800
C 	C 	0.62340 0.82950 0.55240 -0.15000
C 	C 	0.62130 0.85640 0.65530 -0.00400
C 	C 	0.57730 0.81820 0.71500 -0.09000
H 	H 	0.57320 0.83850 0.78130 0.07700
C 	C 	0.53970 0.75100 0.67890 0.06000
C 	C 	0.51710 0.70850 0.77180 0.04000
C 	C 	0.66510 0.87000 0.47880 0.49400
C 	C 	0.67050 0.08170 0.20390 0.33100
Zn	Zn	0.78935 0.44835 0.16777 1.23200
O 	O 	0.81810 0.35310 0.10270 -0.37200
O 	O 	0.83280 0.44360 0.01190 0.09400
O 	O 	0.79350 0.32170 0.05740 -0.11500
O 	O 	0.84620 0.43470 0.05900 -0.54600
O 	O 	0.76760 0.57550 0.31670 -0.32100
O 	O 	0.85070 0.53810 0.23190 -0.44300
O 	O 	0.97360 0.13400 0.71960 -0.12700
N 	N 	0.68430 0.47420 0.10040 -0.27500
C 	C 	0.64010 0.50570 0.15540 0.10700
H 	H 	0.65900 0.52130 0.22430 -0.01100
C 	C 	0.56880 0.51800 0.12140 -0.14600
H 	H 	0.54070 0.54150 0.16600 0.08500
C 	C 	0.53790 0.49520 0.01980 0.06700
C 	C 	0.58560 0.46160 0.96190 -0.14500
H 	H 	0.56870 0.44470 0.89290 0.08400
C 	C 	0.65730 0.45240 0.00380 0.09700
H 	H 	0.68790 0.42990 0.96190 -0.00600
N 	N 	0.77570 0.37670 0.29130 -0.25500
C 	C 	0.75730 0.27860 0.45510 0.02800
C 	C 	0.81530 0.39400 0.38830 0.21700
H 	H 	0.84780 0.43640 0.39760 -0.05100
C 	C 	0.80530 0.34620 0.47190 -0.18300
H 	H 	0.82980 0.35750 0.53980 0.09200
C 	C 	0.72160 0.26820 0.35700 0.19300
H 	H 	0.69040 0.22530 0.34010 -0.01600
C 	C 	0.73250 0.32430 0.27950 0.14200
H 	H 	0.70340 0.31990 0.21320 -0.03300
C 	C 	0.76000 0.40000 0.38560 -0.17000
H 	H 	0.76090 0.45470 0.39740 0.07000
C 	C 	0.74310 0.35430 0.46640 0.07100
H 	H 	0.72360 0.37460 0.52290 -0.00400
C 	C 	0.75660 0.24120 0.35820 -0.29900
H 	H 	0.75100 0.18670 0.34660 0.13200
C 	C 	0.76590 0.29930 0.27780 -0.08800
H 	H 	0.76480 0.27990 0.20950 0.07300
C 	C 	0.95260 0.22200 0.91470 -0.12900
H 	H 	0.97470 0.17400 0.93750 0.09300
C 	C 	0.91210 0.26180 0.97960 0.07600
H 	H 	0.90950 0.24120 0.04620 0.02100
C 	C 	0.87660 0.32950 0.94760 -0.14900
C 	C 	0.87870 0.35640 0.84470 -0.00500
C 	C 	0.92270 0.31820 0.78500 -0.08800
H 	H 	0.92680 0.33850 0.71870 0.07600
C 	C 	0.96030 0.25100 0.82110 0.05800
C 	C 	0.98290 0.20850 0.72820 0.04500
C 	C 	0.83490 0.37000 0.02120 0.49400
C 	C 	0.82950 0.58170 0.29610 0.33100
Zn	Zn	0.28935 0.94835 0.16777 1.23200
O 	O 	0.31810 0.85310 0.10270 -0.37100
O 	O 	0.33280 0.94360 0.01190 0.09100
O 	O 	0.29350 0.82170 0.05740 -0.11600
O 	O 	0.34620 0.93470 0.05900 -0.54400
O 	O 	0.26760 0.07550 0.31670 -0.32100
O 	O 	0.35070 0.03810 0.23190 -0.44200
O 	O 	0.47360 0.63400 0.71960 -0.12500
N 	N 	0.18430 0.97420 0.10040 -0.27200
C 	C 	0.14010 0.00570 0.15540 0.10500
H 	H 	0.15900 0.02130 0.22430 -0.01000
C 	C 	0.06880 0.01800 0.12140 -0.13800
H 	H 	0.04070 0.04150 0.16600 0.08300
C 	C 	0.03790 0.99520 0.01980 0.05800
C 	C 	0.08560 0.96160 0.96190 -0.12700
H 	H 	0.06870 0.94470 0.89290 0.07900
C 	C 	0.15730 0.95240 0.00380 0.08000
H 	H 	0.18790 0.92990 0.96190 0.00200
N 	N 	0.27570 0.87670 0.29130 -0.25600
C 	C 	0.25730 0.77860 0.45510 0.02800
C 	C 	0.31530 0.89400 0.38830 0.21800
H 	H 	0.34780 0.93640 0.39760 -0.05100
C 	C 	0.30530 0.84620 0.47190 -0.18300
H 	H 	0.32980 0.85750 0.53980 0.09300
C 	C 	0.22160 0.76820 0.35700 0.19300
H 	H 	0.19040 0.72530 0.34010 -0.01600
C 	C 	0.23250 0.82430 0.27950 0.14200
H 	H 	0.20340 0.81990 0.21320 -0.03300
C 	C 	0.26000 0.90000 0.38560 -0.17000
H 	H 	0.26090 0.95470 0.39740 0.07000
C 	C 	0.24310 0.85430 0.46640 0.07100
H 	H 	0.22360 0.87460 0.52290 -0.00400
C 	C 	0.25660 0.74120 0.35820 -0.29900
H 	H 	0.25100 0.68670 0.34660 0.13200
C 	C 	0.26590 0.79930 0.27780 -0.08800
H 	H 	0.26480 0.77990 0.20950 0.07300
C 	C 	0.45260 0.72200 0.91470 -0.13400
H 	H 	0.47470 0.67400 0.93750 0.09600
C 	C 	0.41210 0.76180 0.97960 0.08400
H 	H 	0.40950 0.74120 0.04620 0.01600
C 	C 	0.37660 0.82950 0.94760 -0.14900
C 	C 	0.37870 0.85640 0.84470 -0.00400
C 	C 	0.42270 0.81820 0.78500 -0.09000
H 	H 	0.42680 0.83850 0.71870 0.07700
C 	C 	0.46030 0.75100 0.82110 0.06100
C 	C 	0.48290 0.70850 0.72820 0.03800
C 	C 	0.33490 0.87000 0.02120 0.49200
C 	C 	0.32950 0.08170 0.29610 0.33000
