data_crystal

_cell_length_a 12.12290
_cell_length_b 12.60990
_cell_length_c 14.28190
_cell_angle_alpha 98.41000
_cell_angle_beta  90.00000
_cell_angle_gamma 90.00000

_symmetry_space_group_name_	'P 1'
_symmetry_space_group_name_H-M	'P 1'

loop_
_symmetry_equiv_pos_as_xyz
  x,y,z

loop_
_atom_site_label
_atom_site_type_symbol
_atom_site_fract_x
_atom_site_fract_y
_atom_site_fract_z
_atom_site_charge
Cd	Cd	0.95366 0.46525 0.11954 1.22300
Cd	Cd	0.45366 0.53475 0.38046 1.22500
Cd	Cd	0.04634 0.53475 0.88046 1.22300
Cd	Cd	0.54634 0.46525 0.61954 1.22500
H 	H 	0.69680 0.51720 0.14230 0.00100
H 	H 	0.56710 0.65040 0.15060 0.08800
H 	H 	0.62280 0.82640 0.15250 -0.00300
H 	H 	0.93470 0.72290 0.13400 -0.01200
H 	H 	0.78540 0.06180 0.14700 0.25700
H 	H 	0.70290 0.99910 0.20330 0.25000
H 	H 	0.70000 0.98220 0.09240 0.24900
H 	H 	0.10030 0.86460 0.08990 0.27100
H 	H 	0.20570 0.93140 0.12370 0.25000
H 	H 	0.16390 0.92700 0.01940 0.26100
H 	H 	0.27980 0.09620 0.10670 -0.01100
H 	H 	0.34240 0.26910 0.10430 0.08200
H 	H 	0.21780 0.40600 0.10590 -0.00400
H 	H 	0.97170 0.20830 0.11150 -0.01500
H 	H 	0.83790 0.22770 0.31090 0.07100
H 	H 	0.72200 0.24030 0.26530 0.08400
H 	H 	0.72810 0.28580 0.43500 0.10600
H 	H 	0.79690 0.38720 0.42020 0.12800
H 	H 	0.19680 0.48280 0.35770 0.00200
H 	H 	0.06710 0.34960 0.34940 0.09000
H 	H 	0.12280 0.17360 0.34750 -0.00300
H 	H 	0.43470 0.27710 0.36600 -0.01100
H 	H 	0.28540 0.93820 0.35300 0.26200
H 	H 	0.20290 0.00090 0.29670 0.25300
H 	H 	0.20000 0.01780 0.40760 0.25200
H 	H 	0.60030 0.13540 0.41010 0.26800
H 	H 	0.70570 0.06860 0.37630 0.24800
H 	H 	0.66390 0.07300 0.48060 0.25700
H 	H 	0.77980 0.90380 0.39330 -0.00900
H 	H 	0.84240 0.73090 0.39570 0.08100
H 	H 	0.71780 0.59400 0.39410 -0.00300
H 	H 	0.47170 0.79170 0.38850 -0.00900
H 	H 	0.33790 0.77230 0.18910 0.07100
H 	H 	0.22200 0.75970 0.23470 0.08500
H 	H 	0.22810 0.71420 0.06500 0.10600
H 	H 	0.29690 0.61280 0.07980 0.12800
H 	H 	0.30320 0.48280 0.85770 0.00200
H 	H 	0.43290 0.34960 0.84940 0.08900
H 	H 	0.37720 0.17360 0.84750 -0.00300
H 	H 	0.06530 0.27710 0.86600 -0.01200
H 	H 	0.21460 0.93820 0.85300 0.25700
H 	H 	0.29710 0.00090 0.79670 0.25000
H 	H 	0.30000 0.01780 0.90760 0.24900
H 	H 	0.89970 0.13540 0.91010 0.27100
H 	H 	0.79430 0.06860 0.87630 0.25000
H 	H 	0.83610 0.07300 0.98060 0.26100
H 	H 	0.72020 0.90380 0.89330 -0.01100
H 	H 	0.65760 0.73090 0.89570 0.08200
H 	H 	0.78220 0.59400 0.89410 -0.00400
H 	H 	0.02830 0.79170 0.88850 -0.01500
H 	H 	0.16210 0.77230 0.68910 0.07100
H 	H 	0.27800 0.75970 0.73470 0.08400
H 	H 	0.27190 0.71420 0.56500 0.10600
H 	H 	0.20310 0.61280 0.57980 0.12800
H 	H 	0.80320 0.51720 0.64230 0.00200
H 	H 	0.93290 0.65040 0.65060 0.09000
H 	H 	0.87720 0.82640 0.65250 -0.00300
H 	H 	0.56530 0.72290 0.63400 -0.01100
H 	H 	0.71460 0.06180 0.64700 0.26200
H 	H 	0.79710 0.99910 0.70330 0.25300
H 	H 	0.80000 0.98220 0.59240 0.25200
H 	H 	0.39970 0.86460 0.58990 0.26800
H 	H 	0.29430 0.93140 0.62370 0.24800
H 	H 	0.33610 0.92700 0.51940 0.25700
H 	H 	0.22020 0.09620 0.60670 -0.00900
H 	H 	0.15760 0.26910 0.60430 0.08100
H 	H 	0.28220 0.40600 0.60590 -0.00300
H 	H 	0.52830 0.20830 0.61150 -0.00900
H 	H 	0.66210 0.22770 0.81090 0.07100
H 	H 	0.77800 0.24030 0.76530 0.08500
H 	H 	0.77190 0.28580 0.93500 0.10600
H 	H 	0.70310 0.38720 0.92020 0.12800
C 	C 	0.71979 0.58750 0.14193 0.08000
C 	C 	0.64165 0.66701 0.14758 -0.14900
C 	C 	0.67479 0.77171 0.14869 0.07000
C 	C 	0.78651 0.79481 0.14401 -0.14300
C 	C 	0.85963 0.70875 0.13745 0.08700
C 	C 	0.82875 0.90589 0.14452 0.27600
C 	C 	0.74690 0.99530 0.14700 -0.77100
C 	C 	0.07118 0.02478 0.11386 0.28100
C 	C 	0.14160 0.92829 0.08410 -0.78700
C 	C 	0.11731 0.13353 0.11103 -0.15200
C 	C 	0.22998 0.15245 0.10772 0.07100
C 	C 	0.26719 0.25502 0.10602 -0.14700
C 	C 	0.19181 0.33675 0.10695 0.08500
C 	C 	0.04733 0.22045 0.11071 0.09200
C 	C 	0.83262 0.35196 0.23415 0.33500
C 	C 	0.78276 0.27960 0.29833 -0.17600
C 	C 	0.74063 0.33775 0.39232 -0.28700
C 	C 	0.63544 0.39908 0.38312 0.40100
C 	C 	0.21979 0.41250 0.35807 0.08100
C 	C 	0.14165 0.33299 0.35242 -0.15000
C 	C 	0.17479 0.22829 0.35131 0.07100
C 	C 	0.28651 0.20519 0.35599 -0.14400
C 	C 	0.35963 0.29125 0.36255 0.08800
C 	C 	0.32875 0.09411 0.35548 0.27800
C 	C 	0.24690 0.00470 0.35300 -0.78100
C 	C 	0.57118 0.97522 0.38614 0.27600
C 	C 	0.64160 0.07171 0.41590 -0.78100
C 	C 	0.61731 0.86647 0.38897 -0.14600
C 	C 	0.72998 0.84755 0.39228 0.06700
C 	C 	0.76719 0.74498 0.39398 -0.14400
C 	C 	0.69181 0.66325 0.39305 0.08300
C 	C 	0.54733 0.77955 0.38929 0.08300
C 	C 	0.33262 0.64804 0.26585 0.33500
C 	C 	0.28276 0.72040 0.20167 -0.17600
C 	C 	0.24063 0.66225 0.10768 -0.28700
C 	C 	0.13544 0.60092 0.11688 0.40100
C 	C 	0.28021 0.41250 0.85807 0.08000
C 	C 	0.35835 0.33299 0.85242 -0.14900
C 	C 	0.32521 0.22829 0.85131 0.07000
C 	C 	0.21349 0.20519 0.85599 -0.14300
C 	C 	0.14037 0.29125 0.86255 0.08700
C 	C 	0.17125 0.09411 0.85548 0.27600
C 	C 	0.25310 0.00470 0.85300 -0.77100
C 	C 	0.92882 0.97522 0.88614 0.28100
C 	C 	0.85840 0.07171 0.91590 -0.78700
C 	C 	0.88269 0.86647 0.88897 -0.15200
C 	C 	0.77002 0.84755 0.89228 0.07100
C 	C 	0.73281 0.74498 0.89398 -0.14700
C 	C 	0.80819 0.66325 0.89305 0.08500
C 	C 	0.95267 0.77955 0.88929 0.09200
C 	C 	0.16738 0.64804 0.76585 0.33500
C 	C 	0.21724 0.72040 0.70167 -0.17600
C 	C 	0.25937 0.66225 0.60768 -0.28700
C 	C 	0.36456 0.60092 0.61688 0.40100
C 	C 	0.78021 0.58750 0.64193 0.08100
C 	C 	0.85835 0.66701 0.64758 -0.15000
C 	C 	0.82521 0.77171 0.64869 0.07100
C 	C 	0.71349 0.79481 0.64401 -0.14400
C 	C 	0.64037 0.70875 0.63745 0.08800
C 	C 	0.67125 0.90589 0.64452 0.27800
C 	C 	0.75310 0.99530 0.64700 -0.78100
C 	C 	0.42882 0.02478 0.61386 0.27600
C 	C 	0.35840 0.92829 0.58410 -0.78100
C 	C 	0.38269 0.13353 0.61103 -0.14600
C 	C 	0.27002 0.15245 0.60772 0.06700
C 	C 	0.23281 0.25502 0.60602 -0.14400
C 	C 	0.30819 0.33675 0.60695 0.08300
C 	C 	0.45267 0.22045 0.61071 0.08300
C 	C 	0.66738 0.35196 0.73415 0.33500
C 	C 	0.71724 0.27960 0.79833 -0.17600
C 	C 	0.75937 0.33775 0.89232 -0.28700
C 	C 	0.86456 0.39908 0.88312 0.40100
N 	N 	0.82805 0.60733 0.13590 -0.23200
N 	N 	0.93246 0.91558 0.14046 -0.15200
N 	N 	0.97068 0.02097 0.14017 -0.15500
N 	N 	0.08232 0.32089 0.10925 -0.22800
N 	N 	0.32805 0.39267 0.36410 -0.23200
N 	N 	0.43246 0.08442 0.35954 -0.15200
N 	N 	0.47068 0.97903 0.35983 -0.15200
N 	N 	0.58232 0.67911 0.39075 -0.22700
N 	N 	0.17195 0.39267 0.86410 -0.23200
N 	N 	0.06754 0.08442 0.85954 -0.15200
N 	N 	0.02932 0.97903 0.85983 -0.15500
N 	N 	0.91768 0.67911 0.89075 -0.22800
N 	N 	0.67195 0.60733 0.63590 -0.23200
N 	N 	0.56754 0.91558 0.64046 -0.15200
N 	N 	0.52932 0.02097 0.64017 -0.15200
N 	N 	0.41768 0.32089 0.60925 -0.22700
O 	O 	0.89640 0.42585 0.26897 -0.38400
O 	O 	0.81484 0.33332 0.14658 -0.38300
O 	O 	0.60204 0.41657 0.30449 -0.38300
O 	O 	0.58304 0.43552 0.45745 -0.53300
O 	O 	0.39640 0.57415 0.23103 -0.38400
O 	O 	0.31484 0.66668 0.35342 -0.38200
O 	O 	0.10204 0.58343 0.19551 -0.38100
O 	O 	0.08304 0.56448 0.04255 -0.53000
O 	O 	0.10360 0.57415 0.73103 -0.38400
O 	O 	0.18516 0.66668 0.85342 -0.38300
O 	O 	0.39796 0.58343 0.69551 -0.38300
O 	O 	0.41696 0.56448 0.54255 -0.53300
O 	O 	0.60360 0.42585 0.76897 -0.38400
O 	O 	0.68516 0.33332 0.64658 -0.38200
O 	O 	0.89796 0.41657 0.80449 -0.38100
O 	O 	0.91696 0.43552 0.95745 -0.53000
