data_crystal

_cell_length_a 18.28700
_cell_length_b 18.28700
_cell_length_c 18.28700
_cell_angle_alpha 105.11200
_cell_angle_beta  105.11200
_cell_angle_gamma 118.59400

_symmetry_space_group_name_	'P 1'
_symmetry_space_group_name_H-M	'P 1'

loop_
_symmetry_equiv_pos_as_xyz
  x,y,z

loop_
_atom_site_label
_atom_site_type_symbol
_atom_site_fract_x
_atom_site_fract_y
_atom_site_fract_z
_atom_site_charge
Cd	Cd	0.70111 0.21102 0.12247 1.19700
Cd	Cd	0.52891 0.14618 0.21461 1.20100
Cd	Cd	0.32907 0.12335 0.25784 1.19600
Cd	Cd	0.13467 0.87682 0.20591 1.19900
Cd	Cd	0.06857 0.85386 0.38283 1.20300
Cd	Cd	0.91152 0.78890 0.49008 1.19700
Cd	Cd	0.08855 0.57864 0.87753 1.20200
Cd	Cd	0.93157 0.31430 0.78539 1.19800
Cd	Cd	0.86551 0.07123 0.74216 1.19100
Cd	Cd	0.67091 0.92876 0.79409 1.20000
Cd	Cd	0.47103 0.68574 0.61717 1.20100
Cd	Cd	0.29882 0.42144 0.50992 1.19900
Cd	Cd	0.42136 0.29889 0.50991 1.19900
Cd	Cd	0.68570 0.47109 0.61727 1.20200
Cd	Cd	0.92877 0.67093 0.79428 1.19600
Cd	Cd	0.07124 0.86533 0.74215 1.20100
Cd	Cd	0.31426 0.93143 0.78529 1.20400
Cd	Cd	0.57856 0.08848 0.87738 1.19700
Cd	Cd	0.78898 0.91145 0.49009 1.20200
Cd	Cd	0.85382 0.06843 0.38273 1.19600
Cd	Cd	0.87665 0.13449 0.20572 1.19300
Cd	Cd	0.12318 0.32909 0.25785 1.19900
Cd	Cd	0.14614 0.52897 0.21471 1.20200
Cd	Cd	0.21110 0.70118 0.12262 1.19900
H 	H 	0.94780 0.51110 0.17470 0.30800
H 	H 	0.87980 0.48340 0.21600 0.33400
H 	H 	0.84330 0.42360 0.11910 0.34400
H 	H 	0.58780 0.08340 0.36580 0.21600
H 	H 	0.68750 0.13320 0.43930 0.21900
H 	H 	0.62940 0.02700 0.37580 0.23700
H 	H 	0.25620 0.88830 0.94130 0.30200
H 	H 	0.28970 0.97240 0.02470 0.32900
H 	H 	0.30690 0.89740 0.03030 0.29800
H 	H 	0.87670 0.73770 0.96180 0.35200
H 	H 	0.96260 0.83480 0.98140 0.36300
H 	H 	0.94850 0.81360 0.05630 0.35000
H 	H 	0.27650 0.89240 0.49810 0.22600
H 	H 	0.32180 0.88350 0.57770 0.23500
H 	H 	0.34070 0.97960 0.58790 0.25500
H 	H 	0.72960 0.51090 0.39570 0.32800
H 	H 	0.70140 0.57960 0.41620 0.33500
H 	H 	0.65940 0.49310 0.43470 0.30600
H 	H 	0.33640 0.77310 0.82530 0.32300
H 	H 	0.26740 0.66380 0.78400 0.34700
H 	H 	0.30450 0.72420 0.88090 0.35500
H 	H 	0.71760 0.22200 0.63420 0.22000
H 	H 	0.69390 0.24820 0.56070 0.22300
H 	H 	0.65120 0.25360 0.62420 0.24500
H 	H 	0.94700 0.31490 0.05870 0.28200
H 	H 	0.94770 0.26500 0.97530 0.30500
H 	H 	0.86710 0.27660 0.96970 0.28300
H 	H 	0.77590 0.91490 0.03820 0.34400
H 	H 	0.85340 0.98120 0.01860 0.35800
H 	H 	0.75730 0.89220 0.94370 0.33800
H 	H 	0.39430 0.77840 0.50190 0.22300
H 	H 	0.30580 0.74410 0.42230 0.23200
H 	H 	0.39170 0.75280 0.41210 0.24800
H 	H 	0.11520 0.33390 0.60430 0.34300
H 	H 	0.16340 0.28520 0.58380 0.34700
H 	H 	0.05840 0.22470 0.56530 0.32300
H 	H 	0.22690 0.05220 0.56330 0.31200
H 	H 	0.33620 0.12020 0.60360 0.33700
H 	H 	0.27580 0.15670 0.58030 0.34700
H 	H 	0.77800 0.41220 0.49560 0.22000
H 	H 	0.75180 0.31250 0.44570 0.22300
H 	H 	0.74640 0.37060 0.39760 0.24500
H 	H 	0.68510 0.74380 0.63210 0.29800
H 	H 	0.73500 0.71030 0.68270 0.32200
H 	H 	0.72340 0.69310 0.59050 0.29400
H 	H 	0.08510 0.12330 0.86100 0.35600
H 	H 	0.01880 0.03740 0.87220 0.36800
H 	H 	0.10780 0.05150 0.86510 0.34900
H 	H 	0.22160 0.72350 0.61590 0.22300
H 	H 	0.25590 0.67820 0.56170 0.23200
H 	H 	0.24720 0.65930 0.63890 0.24800
H 	H 	0.66610 0.27040 0.78130 0.32700
H 	H 	0.71480 0.29860 0.87820 0.33400
H 	H 	0.77530 0.34060 0.83370 0.30400
H 	H 	0.48890 0.66360 0.43670 0.32100
H 	H 	0.51660 0.73260 0.39640 0.34600
H 	H 	0.57640 0.69550 0.41970 0.35400
H 	H 	0.91660 0.28240 0.50440 0.21500
H 	H 	0.86680 0.30610 0.55430 0.21900
H 	H 	0.97300 0.34880 0.60240 0.23600
H 	H 	0.11170 0.05300 0.36790 0.30000
H 	H 	0.02760 0.05230 0.31730 0.32800
H 	H 	0.10260 0.13290 0.40950 0.30000
H 	H 	0.26230 0.22410 0.13900 0.33800
H 	H 	0.16520 0.14660 0.12780 0.34900
H 	H 	0.18640 0.24270 0.13490 0.33500
H 	H 	0.10760 0.60570 0.38410 0.22600
H 	H 	0.11650 0.69420 0.43830 0.23500
H 	H 	0.02040 0.60830 0.36110 0.25500
H 	H 	0.48910 0.88480 0.21870 0.34100
H 	H 	0.42040 0.83660 0.12180 0.34500
H 	H 	0.50690 0.94160 0.16630 0.32100
C 	C 	0.92160 0.40140 0.19440 0.35200
C 	C 	0.89600 0.45980 0.17440 -1.01800
C 	C 	0.68820 0.11320 0.32200 0.24300
C 	C 	0.64400 0.08670 0.38150 -0.73900
C 	C 	0.39560 0.98730 0.99910 0.37100
C 	C 	0.30400 0.93140 0.99880 -0.94500
C 	C 	0.00020 0.74770 0.00030 0.36600
C 	C 	0.94130 0.78720 0.99990 -1.01900
C 	C 	0.20900 0.88640 0.57380 0.25600
C 	C 	0.29510 0.91300 0.55790 -0.76800
C 	C 	0.79220 0.59680 0.52000 0.34200
C 	C 	0.71390 0.54020 0.43430 -0.98800
C 	C 	0.20700 0.72720 0.80560 0.37400
C 	C 	0.28540 0.72160 0.82560 -1.05000
C 	C 	0.79120 0.36620 0.67800 0.24900
C 	C 	0.70520 0.26250 0.61850 -0.74800
C 	C 	0.98820 0.39650 0.00090 0.33200
C 	C 	0.93260 0.30520 0.00120 -0.90000
C 	C 	0.74740 0.99990 0.99970 0.35900
C 	C 	0.78730 0.94140 0.00010 -0.98300
C 	C 	0.31260 0.63520 0.42620 0.25100
C 	C 	0.35510 0.73720 0.44210 -0.76100
C 	C 	0.07680 0.27220 0.48000 0.37000
C 	C 	0.10590 0.27960 0.56570 -1.02500
C 	C 	0.27280 0.07840 0.47980 0.35700
C 	C 	0.27840 0.10400 0.56380 -1.02600
C 	C 	0.63380 0.31180 0.42500 0.24900
C 	C 	0.73750 0.35600 0.44270 -0.74900
C 	C 	0.60350 0.60440 0.59170 0.35500
C 	C 	0.69480 0.69600 0.62740 -0.93400
C 	C 	0.00010 0.99980 0.74750 0.38200
C 	C 	0.05860 0.05870 0.84590 -1.01900
C 	C 	0.36480 0.79100 0.67740 0.25100
C 	C 	0.26280 0.70490 0.61790 -0.76100
C 	C 	0.72780 0.20780 0.80460 0.34100
C 	C 	0.72040 0.28610 0.82630 -0.98600
C 	C 	0.59860 0.79300 0.52020 0.37300
C 	C 	0.54020 0.71460 0.43620 -1.04700
C 	C 	0.88680 0.20880 0.57500 0.24300
C 	C 	0.91330 0.29480 0.55730 -0.73800
C 	C 	0.01270 0.01180 0.40830 0.36900
C 	C 	0.06860 0.06740 0.37260 -0.94800
C 	C 	0.25230 0.25260 0.25250 0.34100
C 	C 	0.21280 0.21270 0.15410 -0.97000
C 	C 	0.11360 0.68740 0.32260 0.25500
C 	C 	0.08700 0.64490 0.38210 -0.76800
C 	C 	0.40320 0.92320 0.19540 0.36500
C 	C 	0.45980 0.89410 0.17370 -1.02000
N 	N 	0.86270 0.31580 0.18710 -0.25800
N 	N 	0.91540 0.28620 0.21060 -0.17700
N 	N 	0.00330 0.35200 0.23250 -0.17200
N 	N 	0.00920 0.42510 0.22310 -0.25600
N 	N 	0.65320 0.13380 0.26400 -0.24700
N 	N 	0.71040 0.15150 0.22610 -0.17500
N 	N 	0.77410 0.14070 0.26120 -0.17300
N 	N 	0.76430 0.11720 0.32190 -0.23100
N 	N 	0.47860 0.05050 0.07030 -0.25300
N 	N 	0.54060 0.08210 0.04070 -0.16800
N 	N 	0.50040 0.04090 0.95930 -0.17000
N 	N 	0.40900 0.98120 0.93000 -0.24000
N 	N 	0.06480 0.76510 0.06970 -0.25900
N 	N 	0.10080 0.72260 0.04080 -0.16600
N 	N 	0.05940 0.68040 0.95920 -0.16200
N 	N 	0.99330 0.69520 0.93030 -0.27300
N 	N 	0.12970 0.86600 0.52010 -0.24500
N 	N 	0.07560 0.84920 0.55860 -0.16700
N 	N 	0.12110 0.85970 0.63440 -0.17200
N 	N 	0.20460 0.88210 0.64590 -0.22600
N 	N 	0.87160 0.68490 0.54670 -0.25300
N 	N 	0.92390 0.71440 0.62870 -0.17200
N 	N 	0.88010 0.64820 0.65210 -0.18400
N 	N 	0.79770 0.57500 0.58370 -0.26200
N 	N 	0.12870 0.67560 0.81290 -0.25900
N 	N 	0.07560 0.70480 0.78940 -0.16500
N 	N 	0.11950 0.77080 0.76750 -0.17800
N 	N 	0.20200 0.78610 0.77690 -0.26600
N 	N 	0.86980 0.38920 0.73600 -0.24800
N 	N 	0.92540 0.48430 0.77390 -0.17900
N 	N 	0.87950 0.51290 0.73880 -0.17200
N 	N 	0.79530 0.44240 0.67810 -0.22900
N 	N 	0.98020 0.40830 0.92970 -0.24900
N 	N 	0.04140 0.49990 0.95930 -0.15300
N 	N 	0.08160 0.54110 0.04070 -0.16500
N 	N 	0.05120 0.47900 0.07000 -0.23400
N 	N 	0.69540 0.99510 0.93030 -0.25100
N 	N 	0.68180 0.06000 0.95920 -0.17300
N 	N 	0.72120 0.10020 0.04080 -0.17300
N 	N 	0.76490 0.06300 0.06970 -0.27300
N 	N 	0.34590 0.60960 0.47990 -0.24700
N 	N 	0.29060 0.51700 0.44140 -0.17100
N 	N 	0.22530 0.48670 0.36560 -0.17400
N 	N 	0.23620 0.55870 0.35410 -0.22700
N 	N 	0.13820 0.32490 0.45330 -0.25500
N 	N 	0.08570 0.29520 0.37130 -0.16100
N 	N 	0.99610 0.22800 0.34790 -0.19300
N 	N 	0.99130 0.21400 0.41630 -0.27700
N 	N 	0.32440 0.13730 0.45310 -0.25900
N 	N 	0.29520 0.08460 0.37080 -0.17400
N 	N 	0.22920 0.99670 0.34870 -0.17400
N 	N 	0.21390 0.99080 0.41590 -0.25800
N 	N 	0.61080 0.34680 0.48060 -0.24600
N 	N 	0.51570 0.28960 0.44110 -0.17400
N 	N 	0.48710 0.22590 0.36660 -0.17000
N 	N 	0.55760 0.23570 0.35290 -0.22900
N 	N 	0.59170 0.52140 0.57190 -0.24200
N 	N 	0.50010 0.45940 0.54150 -0.16400
N 	N 	0.45890 0.49960 0.54050 -0.16400
N 	N 	0.52100 0.59100 0.57220 -0.24500
N 	N 	0.00490 0.93520 0.70030 -0.25700
N 	N 	0.94000 0.89920 0.62180 -0.16900
N 	N 	0.89980 0.94060 0.62100 -0.16200
N 	N 	0.93700 0.00670 0.70190 -0.29000
N 	N 	0.39040 0.87030 0.73630 -0.24500
N 	N 	0.48300 0.92440 0.77360 -0.16700
N 	N 	0.51330 0.87890 0.73860 -0.17200
N 	N 	0.44130 0.79540 0.67750 -0.22700
N 	N 	0.67510 0.12840 0.81330 -0.25400
N 	N 	0.70480 0.07610 0.79050 -0.17400
N 	N 	0.77200 0.11990 0.76810 -0.18600
N 	N 	0.78600 0.20230 0.77730 -0.26300
N 	N 	0.68420 0.87130 0.54690 -0.25900
N 	N 	0.71380 0.92440 0.62920 -0.16400
N 	N 	0.64800 0.88050 0.65130 -0.17900
N 	N 	0.57490 0.79800 0.58410 -0.26700
N 	N 	0.86620 0.13020 0.51940 -0.24900
N 	N 	0.84850 0.07460 0.55890 -0.18100
N 	N 	0.85930 0.12050 0.63340 -0.17500
N 	N 	0.88280 0.20470 0.64710 -0.23200
N 	N 	0.94950 0.01980 0.42810 -0.26700
N 	N 	0.91790 0.95860 0.45850 -0.15500
N 	N 	0.95910 0.91840 0.45950 -0.16700
N 	N 	0.01880 0.94880 0.42780 -0.23800
N 	N 	0.23490 0.30460 0.29970 -0.25600
N 	N 	0.27740 0.31820 0.37820 -0.16500
N 	N 	0.31960 0.27880 0.37900 -0.17000
N 	N 	0.30480 0.23510 0.29810 -0.25900
N 	N 	0.13400 0.65410 0.26370 -0.24600
N 	N 	0.15080 0.70940 0.22640 -0.17000
N 	N 	0.14030 0.77470 0.26140 -0.17300
N 	N 	0.11790 0.76380 0.32250 -0.22600
N 	N 	0.31510 0.86180 0.18670 -0.25500
N 	N 	0.28560 0.91430 0.20950 -0.16300
N 	N 	0.35180 0.00390 0.23190 -0.18800
N 	N 	0.42500 0.00870 0.22270 -0.27300
Cl	Cl	0.65370 0.29525 0.21115 -0.64500
Cl	Cl	0.39764 0.16480 0.15844 -0.65300
Cl	Cl	0.15603 1.00000 0.15623 -0.67100
Cl	Cl	0.99356 0.83500 0.23276 -0.65000
Cl	Cl	0.91620 0.70463 0.35863 -0.64700
Cl	Cl	0.74588 0.74577 0.42679 -0.68400
Cl	Cl	0.08410 0.44255 0.78885 -0.63200
Cl	Cl	0.00636 0.23920 0.84156 -0.62800
Cl	Cl	0.84377 0.99980 0.84377 -0.67500
Cl	Cl	0.60224 0.76080 0.76724 -0.64400
Cl	Cl	0.34600 0.55757 0.64137 -0.64100
Cl	Cl	0.31898 0.31909 0.57321 -0.68400
Cl	Cl	0.55745 0.34630 0.64155 -0.64400
Cl	Cl	0.76080 0.60236 0.76716 -0.65000
Cl	Cl	0.00020 0.84397 0.84397 -0.66900
Cl	Cl	0.23920 0.00644 0.84144 -0.65300
Cl	Cl	0.44243 0.08380 0.78843 -0.64900
Cl	Cl	0.68091 0.25412 0.99989 -0.68500
Cl	Cl	0.70475 0.91590 0.35845 -0.63200
Cl	Cl	0.83520 0.99364 0.23284 -0.63200
Cl	Cl	-0.00000 0.15623 0.15603 -0.67500
Cl	Cl	0.16500 0.39776 0.15856 -0.64200
Cl	Cl	0.29537 0.65400 0.21157 -0.64100
Cl	Cl	0.25423 0.68102 0.00011 -0.68800
