data_crystal

_cell_length_a 13.09590
_cell_length_b 13.09590
_cell_length_c 13.65000
_cell_angle_alpha 90.00000
_cell_angle_beta  90.00000
_cell_angle_gamma 120.00000

_symmetry_space_group_name_	'P 1'
_symmetry_space_group_name_H-M	'P 1'

loop_
_symmetry_equiv_pos_as_xyz
  x,y,z

loop_
_atom_site_label
_atom_site_type_symbol
_atom_site_fract_x
_atom_site_fract_y
_atom_site_fract_z
_atom_site_charge
N 	N 	0.05000 0.52520 0.16860 -0.40000
N 	N 	0.16330 0.58140 0.20270 -0.22000
N 	N 	0.86130 0.55920 0.03280 -0.28100
N 	N 	0.75180 0.50470 0.00070 -0.25500
N 	N 	0.69890 0.56000 0.03330 -0.23500
N 	N 	0.77610 0.65030 0.08500 -0.11900
C 	C 	0.87550 0.64980 0.08570 0.11400
C 	C 	0.97700 0.74700 0.13800 -0.39700
H 	H 	0.01830 0.81270 0.09450 0.07700
H 	H 	0.02890 0.72040 0.16050 0.07900
H 	H 	0.94820 0.77110 0.19330 0.12000
C 	C 	0.77000 0.74700 0.13800 -0.27300
H 	H 	0.81680 0.76670 0.19670 0.06100
H 	H 	0.68960 0.72120 0.15520 0.05300
H 	H 	0.79970 0.81520 0.09670 0.05300
H 	H 	0.82410 0.34300 0.25380 0.47000
H 	H 	0.82410 0.44310 0.19080 0.46300
H 	H 	0.82410 0.44990 0.30550 0.46700
N 	N 	0.47480 0.52480 0.16860 -0.36900
N 	N 	0.41860 0.58190 0.20270 -0.22000
N 	N 	0.44080 0.30210 0.03280 -0.29600
N 	N 	0.49530 0.24710 0.00070 -0.25300
N 	N 	0.44000 0.13890 0.03330 -0.23500
N 	N 	0.34970 0.12580 0.08500 -0.12000
C 	C 	0.35020 0.22570 0.08570 0.17800
C 	C 	0.25300 0.23000 0.13800 -0.65000
H 	H 	0.18730 0.20560 0.09450 0.16800
H 	H 	0.27960 0.30850 0.16050 0.17100
H 	H 	0.22890 0.17710 0.19330 0.18400
C 	C 	0.25300 0.02300 0.13800 -0.36800
H 	H 	0.23330 0.05010 0.19670 0.07600
H 	H 	0.27880 0.96840 0.15520 0.09300
H 	H 	0.18480 0.98450 0.09670 0.09200
H 	H 	0.65700 0.48110 0.25380 0.40700
H 	H 	0.55690 0.38100 0.19080 0.40600
H 	H 	0.55010 0.37420 0.30550 0.41100
N 	N 	0.47520 0.95000 0.16860 -0.34700
N 	N 	0.41810 0.83670 0.20270 -0.22000
N 	N 	0.69790 0.13870 0.03280 -0.30600
N 	N 	0.75290 0.24820 0.00070 -0.25200
N 	N 	0.86110 0.30110 0.03330 -0.22700
N 	N 	0.87420 0.22390 0.08500 -0.16500
C 	C 	0.77430 0.12450 0.08570 0.23200
C 	C 	0.77000 0.02300 0.13800 -0.82200
H 	H 	0.79440 0.98170 0.09450 0.23300
H 	H 	0.69150 0.97110 0.16050 0.23100
H 	H 	0.82290 0.05180 0.19330 0.23700
C 	C 	0.97700 0.23000 0.13800 -0.05000
H 	H 	0.94990 0.18320 0.19670 -0.00500
H 	H 	0.03160 0.31040 0.15520 -0.02700
H 	H 	0.01550 0.20030 0.09670 -0.03500
H 	H 	0.51890 0.17590 0.25380 0.37000
H 	H 	0.61900 0.17590 0.19080 0.36200
H 	H 	0.62580 0.17590 0.30550 0.36800
N 	N 	0.47480 0.95000 0.33140 -0.32900
N 	N 	0.41860 0.83670 0.29730 -0.20400
N 	N 	0.44080 0.13870 0.46720 -0.28700
N 	N 	0.49530 0.24820 0.49930 -0.21200
N 	N 	0.44000 0.30110 0.46670 -0.20300
N 	N 	0.34970 0.22390 0.41500 -0.13500
C 	C 	0.35020 0.12450 0.41430 0.28500
C 	C 	0.25300 0.02300 0.36200 -0.93600
H 	H 	0.18730 0.98170 0.40550 0.30400
H 	H 	0.27960 0.97110 0.33950 0.28300
H 	H 	0.22890 0.05180 0.30670 0.26900
C 	C 	0.25300 0.23000 0.36200 -0.27300
H 	H 	0.23330 0.18320 0.30330 0.05400
H 	H 	0.27880 0.31040 0.34480 0.07300
H 	H 	0.18480 0.20030 0.40330 0.08500
H 	H 	0.65700 0.17590 0.24620 0.36600
H 	H 	0.55690 0.17590 0.30920 0.36500
H 	H 	0.55010 0.17590 0.19450 0.36900
N 	N 	0.47520 0.52520 0.33140 -0.35300
N 	N 	0.41810 0.58140 0.29730 -0.20300
N 	N 	0.69790 0.55920 0.46720 -0.27800
N 	N 	0.75290 0.50470 0.49930 -0.21500
N 	N 	0.86110 0.56000 0.46670 -0.20200
N 	N 	0.87420 0.65030 0.41500 -0.14100
C 	C 	0.77430 0.64980 0.41430 0.23800
C 	C 	0.77000 0.74700 0.36200 -0.75200
H 	H 	0.79440 0.81270 0.40550 0.23700
H 	H 	0.69150 0.72040 0.33950 0.21500
H 	H 	0.82290 0.77110 0.30670 0.22400
C 	C 	0.97700 0.74700 0.36200 -0.14600
H 	H 	0.94990 0.76670 0.30330 0.03100
H 	H 	0.03160 0.72120 0.34480 0.02100
H 	H 	0.01550 0.81520 0.40330 0.03300
H 	H 	0.51890 0.34300 0.24620 0.41400
H 	H 	0.61900 0.44310 0.30920 0.40500
H 	H 	0.62580 0.44990 0.19450 0.40800
N 	N 	0.05000 0.52480 0.33140 -0.38200
N 	N 	0.16330 0.58190 0.29730 -0.20200
N 	N 	0.86130 0.30210 0.46720 -0.26200
N 	N 	0.75180 0.24710 0.49930 -0.21300
N 	N 	0.69890 0.13890 0.46670 -0.20600
N 	N 	0.77610 0.12580 0.41500 -0.09600
C 	C 	0.87550 0.22570 0.41430 0.17500
C 	C 	0.97700 0.23000 0.36200 -0.52800
H 	H 	0.01830 0.20560 0.40550 0.15500
H 	H 	0.02890 0.30850 0.33950 0.13600
H 	H 	0.94820 0.17710 0.30670 0.16000
C 	C 	0.77000 0.02300 0.36200 -0.43500
H 	H 	0.81680 0.05010 0.30330 0.10500
H 	H 	0.68960 0.96840 0.34480 0.13100
H 	H 	0.79970 0.98450 0.40330 0.15000
H 	H 	0.82410 0.48110 0.24620 0.46800
H 	H 	0.82410 0.38100 0.30920 0.46400
H 	H 	0.82410 0.37420 0.19450 0.46700
N 	N 	0.95000 0.47480 0.83140 -0.31200
N 	N 	0.83670 0.41860 0.79730 -0.18400
N 	N 	0.13870 0.44080 0.96720 -0.24400
N 	N 	0.24820 0.49530 0.99930 -0.16600
N 	N 	0.30110 0.44000 0.96670 -0.16100
N 	N 	0.22390 0.34970 0.91500 -0.11800
C 	C 	0.12450 0.35020 0.91430 0.30200
C 	C 	0.02300 0.25300 0.86200 -0.87400
H 	H 	0.98170 0.18730 0.90550 0.31200
H 	H 	0.97110 0.27960 0.83950 0.27400
H 	H 	0.05180 0.22890 0.80670 0.25300
C 	C 	0.23000 0.25300 0.86200 -0.30100
H 	H 	0.18320 0.23330 0.80330 0.06300
H 	H 	0.31040 0.27880 0.84480 0.10100
H 	H 	0.20030 0.18480 0.90330 0.13100
H 	H 	0.17590 0.65700 0.74620 0.37800
H 	H 	0.17590 0.55690 0.80920 0.38200
H 	H 	0.17590 0.55010 0.69450 0.38300
N 	N 	0.52520 0.47520 0.83140 -0.32400
N 	N 	0.58140 0.41810 0.79730 -0.18300
N 	N 	0.55920 0.69790 0.96720 -0.24500
N 	N 	0.50470 0.75290 0.99930 -0.16900
N 	N 	0.56000 0.86110 0.96670 -0.15900
N 	N 	0.65030 0.87420 0.91500 -0.14000
C 	C 	0.64980 0.77430 0.91430 0.29400
C 	C 	0.74700 0.77000 0.86200 -0.83700
H 	H 	0.81270 0.79440 0.90550 0.30000
H 	H 	0.72040 0.69150 0.83950 0.25900
H 	H 	0.77110 0.82290 0.80670 0.25200
C 	C 	0.74700 0.97700 0.86200 -0.10000
H 	H 	0.76670 0.94990 0.80330 0.01400
H 	H 	0.72120 0.03160 0.84480 0.02200
H 	H 	0.81520 0.01550 0.90330 0.04800
H 	H 	0.34300 0.51890 0.74620 0.40700
H 	H 	0.44310 0.61900 0.80920 0.40400
H 	H 	0.44990 0.62580 0.69450 0.40500
N 	N 	0.52480 0.05000 0.83140 -0.35800
N 	N 	0.58190 0.16330 0.79730 -0.18200
N 	N 	0.30210 0.86130 0.96720 -0.22500
N 	N 	0.24710 0.75180 0.99930 -0.16700
N 	N 	0.13890 0.69890 0.96670 -0.16100
N 	N 	0.12580 0.77610 0.91500 -0.09300
C 	C 	0.22570 0.87550 0.91430 0.21700
C 	C 	0.23000 0.97700 0.86200 -0.54900
H 	H 	0.20560 0.01830 0.90550 0.19600
H 	H 	0.30850 0.02890 0.83950 0.15700
H 	H 	0.17710 0.94820 0.80670 0.16800
C 	C 	0.02300 0.77000 0.86200 -0.36600
H 	H 	0.05010 0.81680 0.80330 0.08400
H 	H 	0.96840 0.68960 0.84480 0.12300
H 	H 	0.98450 0.79970 0.90330 0.15800
H 	H 	0.48110 0.82410 0.74620 0.46600
H 	H 	0.38100 0.82410 0.80920 0.46700
H 	H 	0.37420 0.82410 0.69450 0.46700
N 	N 	0.52520 0.05000 0.66860 -0.38200
N 	N 	0.58140 0.16330 0.70270 -0.19900
N 	N 	0.55920 0.86130 0.53280 -0.26200
N 	N 	0.50470 0.75180 0.50070 -0.21600
N 	N 	0.56000 0.69890 0.53330 -0.20500
N 	N 	0.65030 0.77610 0.58500 -0.11200
C 	C 	0.64980 0.87550 0.58570 0.17200
C 	C 	0.74700 0.97700 0.63800 -0.50700
H 	H 	0.81270 0.01830 0.59450 0.14800
H 	H 	0.72040 0.02890 0.66050 0.12900
H 	H 	0.77110 0.94820 0.69330 0.15600
C 	C 	0.74700 0.77000 0.63800 -0.29200
H 	H 	0.76670 0.81680 0.69670 0.06400
H 	H 	0.72120 0.68960 0.65520 0.07700
H 	H 	0.81520 0.79970 0.59670 0.09300
H 	H 	0.34300 0.82410 0.75380 0.46700
H 	H 	0.44310 0.82410 0.69080 0.46300
H 	H 	0.44990 0.82410 0.80550 0.46900
N 	N 	0.52480 0.47480 0.66860 -0.35100
N 	N 	0.58190 0.41860 0.70270 -0.20100
N 	N 	0.30210 0.44080 0.53280 -0.27500
N 	N 	0.24710 0.49530 0.50070 -0.21300
N 	N 	0.13890 0.44000 0.53330 -0.20500
N 	N 	0.12580 0.34970 0.58500 -0.11300
C 	C 	0.22570 0.35020 0.58570 0.23000
C 	C 	0.23000 0.25300 0.63800 -0.73100
H 	H 	0.20560 0.18730 0.59450 0.22900
H 	H 	0.30850 0.27960 0.66050 0.21200
H 	H 	0.17710 0.22890 0.69330 0.21100
C 	C 	0.02300 0.25300 0.63800 -0.37900
H 	H 	0.05010 0.23330 0.69670 0.08200
H 	H 	0.96840 0.27880 0.65520 0.11300
H 	H 	0.98450 0.18480 0.59670 0.12900
H 	H 	0.48110 0.65700 0.75380 0.40100
H 	H 	0.38100 0.55690 0.69080 0.40300
H 	H 	0.37420 0.55010 0.80550 0.41000
N 	N 	0.95000 0.47520 0.66860 -0.33700
N 	N 	0.83670 0.41810 0.70270 -0.20100
N 	N 	0.13870 0.69790 0.53280 -0.28600
N 	N 	0.24820 0.75290 0.50070 -0.21500
N 	N 	0.30110 0.86110 0.53330 -0.20100
N 	N 	0.22390 0.87420 0.58500 -0.15300
C 	C 	0.12450 0.77430 0.58570 0.27500
C 	C 	0.02300 0.77000 0.63800 -0.89200
H 	H 	0.98170 0.79440 0.59450 0.28900
H 	H 	0.97110 0.69150 0.66050 0.26700
H 	H 	0.05180 0.82290 0.69330 0.26100
C 	C 	0.23000 0.97700 0.63800 -0.10600
H 	H 	0.18320 0.94990 0.69670 0.01200
H 	H 	0.31040 0.03160 0.65520 0.00900
H 	H 	0.20030 0.01550 0.59670 0.01800
H 	H 	0.17590 0.51890 0.75380 0.38100
H 	H 	0.17590 0.61900 0.69080 0.37600
H 	H 	0.17590 0.62580 0.80550 0.38400
Cd	Cd	-0.00000 0.50000 -0.00000 1.10300
Cd	Cd	0.50000 0.50000 -0.00000 1.11100
Cd	Cd	0.50000 0.00000 -0.00000 1.10800
Cd	Cd	0.50000 0.00000 0.50000 1.15800
Cd	Cd	0.50000 0.50000 0.50000 1.16400
Cd	Cd	-0.00000 0.50000 0.50000 1.15900
Cd	Cd	0.33333 0.66667 0.10370 1.09500
Cd	Cd	0.33333 0.66667 0.39630 1.14000
Cd	Cd	0.66667 0.33333 0.89630 1.18700
Cd	Cd	0.66667 0.33333 0.60370 1.14200
C 	C 	0.97900 0.48950 0.25000 0.87700
C 	C 	0.85200 0.42600 0.25000 -2.90200
C 	C 	0.51050 0.48950 0.25000 0.75100
C 	C 	0.57400 0.42600 0.25000 -2.57200
C 	C 	0.51050 0.02100 0.25000 0.66000
C 	C 	0.57400 0.14800 0.25000 -2.33300
C 	C 	0.02100 0.51050 0.75000 0.69000
C 	C 	0.14800 0.57400 0.75000 -2.40700
C 	C 	0.48950 0.51050 0.75000 0.74400
C 	C 	0.42600 0.57400 0.75000 -2.54700
C 	C 	0.48950 0.97900 0.75000 0.87800
C 	C 	0.42600 0.85200 0.75000 -2.89700
