data_crystal

_cell_length_a 16.37240
_cell_length_b 7.16730
_cell_length_c 14.18570
_cell_angle_alpha 90.00000
_cell_angle_beta  90.00000
_cell_angle_gamma 90.00000

_symmetry_space_group_name_	'P 1'
_symmetry_space_group_name_H-M	'P 1'

loop_
_symmetry_equiv_pos_as_xyz
  x,y,z

loop_
_atom_site_label
_atom_site_type_symbol
_atom_site_fract_x
_atom_site_fract_y
_atom_site_fract_z
_atom_site_charge
O 	O 	0.40867 0.43930 0.44765 -0.37100
O 	O 	0.46016 0.19013 0.52250 -0.25800
O 	O 	0.41573 0.05810 0.74825 -0.39200
O 	O 	0.43957 0.36127 0.71826 -0.22400
C 	C 	0.32398 0.28050 0.55610 -0.03200
C 	C 	0.32397 0.22290 0.65041 -0.04100
C 	C 	0.40460 0.30530 0.50457 0.32200
C 	C 	0.40005 0.21280 0.70882 0.32300
O 	O 	0.90867 0.93930 0.94765 -0.26100
O 	O 	0.96016 0.69013 0.02250 -0.15700
O 	O 	0.91573 0.55810 0.24825 -0.32300
O 	O 	0.93957 0.86127 0.21826 -0.14500
C 	C 	0.82398 0.78050 0.05610 0.02000
C 	C 	0.82397 0.72290 0.15041 -0.04100
C 	C 	0.90460 0.80530 0.00457 0.26500
C 	C 	0.90005 0.71280 0.20882 0.31400
O 	O 	0.59133 0.56070 0.44765 -0.38000
O 	O 	0.53984 0.80987 0.52250 -0.19200
O 	O 	0.58427 0.94190 0.74825 -0.30700
O 	O 	0.56043 0.63873 0.71826 -0.21800
C 	C 	0.67602 0.71950 0.55610 -0.02600
C 	C 	0.67603 0.77710 0.65041 -0.01900
C 	C 	0.59540 0.69470 0.50457 0.32000
C 	C 	0.59995 0.78720 0.70882 0.31300
O 	O 	0.09133 0.06070 0.94765 -0.40700
O 	O 	0.03984 0.30987 0.02250 -0.28000
O 	O 	0.08427 0.44190 0.24825 -0.38300
O 	O 	0.06043 0.13873 0.21826 -0.30500
C 	C 	0.17602 0.21950 0.05610 -0.01900
C 	C 	0.17603 0.27710 0.15041 -0.05400
C 	C 	0.09540 0.19470 0.00457 0.29700
C 	C 	0.09995 0.28720 0.20882 0.33300
O 	O 	0.90867 0.56070 0.44765 -0.34000
O 	O 	0.96016 0.80987 0.52250 -0.14000
O 	O 	0.91573 0.94190 0.74825 -0.26500
O 	O 	0.93957 0.63873 0.71826 -0.17200
C 	C 	0.82398 0.71950 0.55610 -0.01900
C 	C 	0.82397 0.77710 0.65041 -0.01200
C 	C 	0.90460 0.69470 0.50457 0.31200
C 	C 	0.90005 0.78720 0.70882 0.30400
O 	O 	0.40867 0.06070 0.94765 -0.38300
O 	O 	0.46016 0.30987 0.02250 -0.23500
O 	O 	0.41573 0.44190 0.24825 -0.35600
O 	O 	0.43957 0.13873 0.21826 -0.26700
C 	C 	0.32398 0.21950 0.05610 -0.01300
C 	C 	0.32397 0.27710 0.15041 -0.04900
C 	C 	0.40460 0.19470 0.00457 0.29100
C 	C 	0.40005 0.28720 0.20882 0.32700
O 	O 	0.09133 0.43930 0.44765 -0.39500
O 	O 	0.03984 0.19013 0.52250 -0.30400
O 	O 	0.08427 0.05810 0.74825 -0.41800
O 	O 	0.06043 0.36127 0.71826 -0.26400
C 	C 	0.17602 0.28050 0.55610 -0.03800
C 	C 	0.17603 0.22290 0.65041 -0.04600
C 	C 	0.09540 0.30530 0.50457 0.32600
C 	C 	0.09995 0.21280 0.70882 0.32900
O 	O 	0.59133 0.93930 0.94765 -0.30100
O 	O 	0.53984 0.69013 0.02250 -0.20800
O 	O 	0.58427 0.55810 0.24825 -0.36600
O 	O 	0.56043 0.86127 0.21826 -0.19000
C 	C 	0.67602 0.78050 0.05610 0.01300
C 	C 	0.67603 0.72290 0.15041 -0.04700
C 	C 	0.59540 0.80530 0.00457 0.27300
C 	C 	0.59995 0.71280 0.20882 0.32300
Ni	Ni	0.50000 0.50000 0.35324 1.10400
Ni	Ni	0.00000 0.00000 0.85324 1.02200
Ni	Ni	0.00000 0.50000 0.35324 1.06100
Ni	Ni	0.50000 0.00000 0.85324 1.06400
C 	C 	0.25000 0.30970 0.50968 -0.00500
H 	H 	0.25000 0.34990 0.44590 0.05900
C 	C 	0.25000 0.19410 0.69672 0.00200
H 	H 	0.25000 0.15440 0.76060 0.04800
C 	C 	0.75000 0.80970 0.00968 -0.07800
H 	H 	0.75000 0.84990 0.94590 0.10800
C 	C 	0.75000 0.69410 0.19672 0.01400
H 	H 	0.75000 0.65440 0.26060 0.05200
C 	C 	0.75000 0.69030 0.50968 -0.00200
H 	H 	0.75000 0.65010 0.44590 0.06200
C 	C 	0.75000 0.80590 0.69672 -0.00800
H 	H 	0.75000 0.84560 0.76060 0.06700
C 	C 	0.25000 0.19030 0.00968 -0.05500
H 	H 	0.25000 0.15010 0.94590 0.08300
C 	C 	0.25000 0.30590 0.19672 0.01000
H 	H 	0.25000 0.34560 0.26060 0.05000
