data_crystal

_cell_length_a 6.69860
_cell_length_b 18.51790
_cell_length_c 8.49340
_cell_angle_alpha 90.00000
_cell_angle_beta  90.00000
_cell_angle_gamma 90.00000

_symmetry_space_group_name_	'P 1'
_symmetry_space_group_name_H-M	'P 1'

loop_
_symmetry_equiv_pos_as_xyz
  x,y,z

loop_
_atom_site_label
_atom_site_type_symbol
_atom_site_fract_x
_atom_site_fract_y
_atom_site_fract_z
_atom_site_charge
C 	C 	0.73520 0.75700 0.47270 0.62700
H 	H 	0.71410 0.71870 0.54150 -0.15400
O 	O 	0.81920 0.74253 0.34700 -0.42600
O 	O 	0.67610 0.81706 0.51660 -0.46500
O 	O 	0.51300 0.95032 0.56900 -0.47600
O 	O 	0.83660 0.90582 0.77060 -0.29200
C 	C 	0.23520 0.25700 0.47270 0.63800
H 	H 	0.21410 0.21870 0.54150 -0.20900
O 	O 	0.31920 0.24253 0.34700 -0.54600
O 	O 	0.17610 0.31706 0.51660 -0.49800
O 	O 	0.01300 0.45032 0.56900 -0.76900
O 	O 	0.33660 0.40582 0.77060 -0.44700
C 	C 	0.26480 0.24300 0.97270 0.68800
H 	H 	0.28590 0.28130 0.04150 -0.22500
O 	O 	0.18080 0.25747 0.84700 -0.56100
O 	O 	0.32390 0.18294 0.01660 -0.54100
O 	O 	0.48700 0.04968 0.06900 -0.53600
O 	O 	0.16340 0.09418 0.27060 -0.45100
C 	C 	0.76480 0.74300 0.97270 0.68200
H 	H 	0.78590 0.78130 0.04150 -0.17400
O 	O 	0.68080 0.75747 0.84700 -0.51900
O 	O 	0.82390 0.68294 0.01660 -0.44100
O 	O 	0.98700 0.54968 0.06900 -0.19200
O 	O 	0.66340 0.59418 0.27060 -0.40100
C 	C 	0.26480 0.75700 0.02730 0.59300
H 	H 	0.28590 0.71870 0.95850 -0.17900
O 	O 	0.18080 0.74253 0.15300 -0.53400
O 	O 	0.32390 0.81706 0.98340 -0.49100
O 	O 	0.48700 0.95032 0.93100 -0.47200
O 	O 	0.16340 0.90582 0.72940 -0.42500
C 	C 	0.76480 0.25700 0.02730 0.59200
H 	H 	0.78590 0.21870 0.95850 -0.13400
O 	O 	0.68080 0.24253 0.15300 -0.49800
O 	O 	0.82390 0.31706 0.98340 -0.40200
O 	O 	0.98700 0.45032 0.93100 -0.18300
O 	O 	0.66340 0.40582 0.72940 -0.40100
C 	C 	0.73520 0.24300 0.52730 0.62800
H 	H 	0.71410 0.28130 0.45850 -0.15600
O 	O 	0.81920 0.25747 0.65300 -0.43000
O 	O 	0.67610 0.18294 0.48340 -0.47200
O 	O 	0.51300 0.04968 0.43100 -0.53100
O 	O 	0.83660 0.09418 0.22940 -0.32000
C 	C 	0.23520 0.74300 0.52730 0.63700
H 	H 	0.21410 0.78130 0.45850 -0.20400
O 	O 	0.31920 0.75747 0.65300 -0.54600
O 	O 	0.17610 0.68294 0.48340 -0.49600
O 	O 	0.01300 0.54968 0.43100 -0.76900
O 	O 	0.33660 0.59418 0.22940 -0.45100
C 	C 	0.42610 -0.00000 0.50000 0.62600
H 	H 	0.28730 -0.00000 0.50000 -0.19900
C 	C 	0.92610 0.50000 0.50000 1.25900
H 	H 	0.78730 0.50000 0.50000 -0.33300
C 	C 	0.57390 0.00000 -0.00000 0.59500
H 	H 	0.71270 0.00000 -0.00000 -0.14700
C 	C 	0.07390 0.50000 -0.00000 0.05100
H 	H 	0.21270 0.50000 -0.00000 0.01900
C 	C 	0.00000 0.87500 0.75000 0.35000
H 	H 	0.00000 0.82480 0.75000 -0.15200
C 	C 	0.50000 0.37500 0.75000 0.57300
H 	H 	0.50000 0.32480 0.75000 -0.16500
C 	C 	-0.00000 0.12500 0.25000 0.35100
H 	H 	0.00000 0.17520 0.25000 -0.15500
C 	C 	0.50000 0.62500 0.25000 0.57100
H 	H 	0.50000 0.67520 0.25000 -0.16500
Tb	Tb	0.50000 0.85734 0.75000 2.24900
Tb	Tb	0.00000 0.35734 0.75000 1.88700
Tb	Tb	0.50000 0.14266 0.25000 2.23400
Tb	Tb	-0.00000 0.64266 0.25000 1.88300
