data_crystal

_cell_length_a 6.62910
_cell_length_b 18.25490
_cell_length_c 8.39830
_cell_angle_alpha 90.00000
_cell_angle_beta  90.00000
_cell_angle_gamma 90.00000

_symmetry_space_group_name_	'P 1'
_symmetry_space_group_name_H-M	'P 1'

loop_
_symmetry_equiv_pos_as_xyz
  x,y,z

loop_
_atom_site_label
_atom_site_type_symbol
_atom_site_fract_x
_atom_site_fract_y
_atom_site_fract_z
_atom_site_charge
O 	O 	0.16540 0.09500 0.72990 -0.34400
O 	O 	0.51160 0.05023 0.57050 -0.39000
O 	O 	0.32650 0.18371 0.98070 -0.38000
O 	O 	0.17910 0.25869 0.15230 -0.43700
C 	C 	0.26290 0.24410 0.02380 0.43800
H 	H 	0.27940 0.28270 0.95270 -0.10200
O 	O 	0.66540 0.59500 0.72990 -0.33500
O 	O 	0.01160 0.55023 0.57050 -0.62800
O 	O 	0.82650 0.68371 0.98070 -0.32500
O 	O 	0.67910 0.75869 0.15230 -0.37900
C 	C 	0.76290 0.74410 0.02380 0.43700
H 	H 	0.77940 0.78270 0.95270 -0.06100
O 	O 	0.83460 0.90500 0.22990 -0.21800
O 	O 	0.48840 0.94977 0.07050 -0.34600
O 	O 	0.67350 0.81629 0.48070 -0.36000
O 	O 	0.82090 0.74131 0.65230 -0.34700
C 	C 	0.73710 0.75590 0.52380 0.48100
H 	H 	0.72060 0.71730 0.45270 -0.08900
O 	O 	0.33460 0.40500 0.22990 -0.37700
O 	O 	0.98840 0.44977 0.07050 -0.15500
O 	O 	0.17350 0.31629 0.48070 -0.40900
O 	O 	0.32090 0.24131 0.65230 -0.42000
C 	C 	0.23710 0.25590 0.52380 0.48700
H 	H 	0.22060 0.21730 0.45270 -0.13100
O 	O 	0.83460 0.09500 0.77010 -0.23500
O 	O 	0.48840 0.05023 0.92950 -0.38000
O 	O 	0.67350 0.18371 0.51930 -0.36700
O 	O 	0.82090 0.25869 0.34770 -0.35100
C 	C 	0.73710 0.24410 0.47620 0.48200
H 	H 	0.72060 0.28270 0.54730 -0.08700
O 	O 	0.33460 0.59500 0.77010 -0.37300
O 	O 	0.98840 0.55023 0.92950 -0.14400
O 	O 	0.17350 0.68371 0.51930 -0.40800
O 	O 	0.32090 0.75869 0.34770 -0.41900
C 	C 	0.23710 0.74410 0.47620 0.48400
H 	H 	0.22060 0.78270 0.54730 -0.12400
O 	O 	0.16540 0.90500 0.27010 -0.32400
O 	O 	0.51160 0.94977 0.42950 -0.34400
O 	O 	0.32650 0.81629 0.01930 -0.41900
O 	O 	0.17910 0.74131 0.84770 -0.45500
C 	C 	0.26290 0.75590 0.97620 0.53800
H 	H 	0.27940 0.71730 0.04730 -0.15100
O 	O 	0.66540 0.40500 0.27010 -0.33700
O 	O 	0.01160 0.44977 0.42950 -0.62700
O 	O 	0.82650 0.31629 0.01930 -0.37000
O 	O 	0.67910 0.24131 0.84770 -0.40200
C 	C 	0.76290 0.25590 0.97620 0.54000
H 	H 	0.77940 0.21730 0.04730 -0.11500
Yb	Yb	0.50000 0.14278 0.75000 1.59300
Yb	Yb	0.00000 0.64278 0.75000 1.52500
Yb	Yb	0.50000 0.85722 0.25000 1.59400
Yb	Yb	0.00000 0.35722 0.25000 1.52400
C 	C 	0.00000 0.12640 0.75000 0.24900
H 	H 	0.00000 0.17730 0.75000 -0.08200
C 	C 	0.50000 0.62640 0.75000 0.45800
H 	H 	0.50000 0.67730 0.75000 -0.10600
C 	C 	-0.00000 0.87360 0.25000 0.24600
H 	H 	0.00000 0.82270 0.25000 -0.08200
C 	C 	0.50000 0.37360 0.25000 0.45800
H 	H 	0.50000 0.32270 0.25000 -0.10900
C 	C 	0.42420 0.00000 0.50000 0.44200
H 	H 	0.28390 0.00000 0.50000 -0.10800
C 	C 	0.92420 0.50000 0.50000 1.00600
H 	H 	0.78390 0.50000 0.50000 -0.23800
C 	C 	0.57580 0.00000 -0.00000 0.40500
H 	H 	0.71610 0.00000 -0.00000 -0.06300
C 	C 	0.07580 0.50000 -0.00000 0.01600
H 	H 	0.21610 0.50000 -0.00000 0.05000
