data_crystal

_cell_length_a 6.74270
_cell_length_b 18.65300
_cell_length_c 8.54600
_cell_angle_alpha 90.00000
_cell_angle_beta  90.00000
_cell_angle_gamma 90.00000

_symmetry_space_group_name_	'P 1'
_symmetry_space_group_name_H-M	'P 1'

loop_
_symmetry_equiv_pos_as_xyz
  x,y,z

loop_
_atom_site_label
_atom_site_type_symbol
_atom_site_fract_x
_atom_site_fract_y
_atom_site_fract_z
_atom_site_charge
O 	O 	0.83710 0.59332 0.22850 -0.31600
O 	O 	0.82280 0.81717 0.98440 -0.40600
O 	O 	0.68180 0.74296 0.15300 -0.49800
O 	O 	0.51210 0.54923 0.43210 -0.58200
C 	C 	0.76690 0.75760 0.02680 0.58500
H 	H 	0.79000 0.71970 0.95850 -0.13300
O 	O 	0.33710 0.09332 0.22850 -0.46500
O 	O 	0.32280 0.31717 0.98440 -0.50900
O 	O 	0.18180 0.24296 0.15300 -0.53800
O 	O 	0.01210 0.04923 0.43210 -0.78800
C 	C 	0.26690 0.25760 0.02680 0.58900
H 	H 	0.29000 0.21970 0.95850 -0.18400
O 	O 	0.16290 0.40668 0.72850 -0.44900
O 	O 	0.17720 0.18283 0.48440 -0.51200
O 	O 	0.31820 0.25704 0.65300 -0.55300
O 	O 	0.48790 0.45077 0.93210 -0.57600
C 	C 	0.23310 0.24240 0.52680 0.63900
H 	H 	0.21000 0.28030 0.45850 -0.21400
O 	O 	0.66290 0.90668 0.72850 -0.38900
O 	O 	0.67720 0.68283 0.48440 -0.48200
O 	O 	0.81820 0.75704 0.65300 -0.42900
O 	O 	0.98790 0.95077 0.93210 -0.12300
C 	C 	0.73310 0.74240 0.52680 0.62700
H 	H 	0.71000 0.78030 0.45850 -0.15800
O 	O 	0.16290 0.59332 0.27150 -0.45000
O 	O 	0.17720 0.81717 0.51560 -0.50400
O 	O 	0.31820 0.74296 0.34700 -0.54800
O 	O 	0.48790 0.54923 0.06790 -0.58700
C 	C 	0.23310 0.75760 0.47320 0.63700
H 	H 	0.21000 0.71970 0.54150 -0.21200
O 	O 	0.66290 0.09332 0.27150 -0.41500
O 	O 	0.67720 0.31717 0.51560 -0.48400
O 	O 	0.81820 0.24296 0.34700 -0.43100
O 	O 	0.98790 0.04923 0.06790 -0.18700
C 	C 	0.73310 0.25760 0.47320 0.62800
H 	H 	0.71000 0.21970 0.54150 -0.16200
O 	O 	0.83710 0.40668 0.77150 -0.31300
O 	O 	0.82280 0.18283 0.01560 -0.45900
O 	O 	0.68180 0.25704 0.84700 -0.52600
O 	O 	0.51210 0.45077 0.56790 -0.58300
C 	C 	0.76690 0.24240 0.97320 0.68700
H 	H 	0.79000 0.28030 0.04150 -0.18400
O 	O 	0.33710 0.90668 0.77150 -0.43700
O 	O 	0.32280 0.68283 0.01560 -0.55300
O 	O 	0.18180 0.75704 0.84700 -0.56000
O 	O 	0.01210 0.95077 0.56790 -0.73700
C 	C 	0.26690 0.74240 0.97320 0.68800
H 	H 	0.29000 0.78030 0.04150 -0.22800
Eu	Eu	0.50000 0.64250 0.25000 2.35400
Eu	Eu	-0.00000 0.14250 0.25000 1.95000
Eu	Eu	0.50000 0.35750 0.75000 2.35800
Eu	Eu	-0.00000 0.85750 0.75000 1.96000
C 	C 	-0.00000 0.62390 0.25000 0.34700
H 	H 	-0.00000 0.67380 0.25000 -0.15900
C 	C 	0.50000 0.12390 0.25000 0.56500
H 	H 	0.50000 0.17380 0.25000 -0.16800
C 	C 	-0.00000 0.37610 0.75000 0.34900
H 	H 	-0.00000 0.32620 0.75000 -0.15800
C 	C 	0.50000 0.87610 0.75000 0.56500
H 	H 	0.50000 0.82620 0.75000 -0.16400
C 	C 	0.42820 0.50000 0.50000 0.79400
H 	H 	0.29030 0.50000 0.50000 -0.23900
C 	C 	0.92820 0.00000 0.50000 1.21700
H 	H 	0.79030 0.00000 0.50000 -0.34000
C 	C 	0.57180 0.50000 -0.00000 0.75700
H 	H 	0.70970 0.50000 -0.00000 -0.18600
C 	C 	0.07180 0.00000 -0.00000 -0.04600
H 	H 	0.20970 0.00000 -0.00000 0.02800
