data_crystal

_cell_length_a 6.67540
_cell_length_b 18.39430
_cell_length_c 8.45710
_cell_angle_alpha 90.00000
_cell_angle_beta  90.00000
_cell_angle_gamma 90.00000

_symmetry_space_group_name_	'P 1'
_symmetry_space_group_name_H-M	'P 1'

loop_
_symmetry_equiv_pos_as_xyz
  x,y,z

loop_
_atom_site_label
_atom_site_type_symbol
_atom_site_fract_x
_atom_site_fract_y
_atom_site_fract_z
_atom_site_charge
O 	O 	0.16410 0.09438 0.76950 -0.44100
O 	O 	0.49000 0.05021 0.56980 -0.55600
O 	O 	0.17550 0.31651 0.01870 -0.62100
O 	O 	0.32020 0.24192 0.84800 -0.59500
C 	C 	0.23670 0.25630 0.97540 0.75200
H 	H 	0.21850 0.21780 0.04530 -0.27300
O 	O 	0.66410 0.59438 0.76950 -0.44000
O 	O 	0.99000 0.55021 0.56980 -0.19300
O 	O 	0.67550 0.81651 0.01870 -0.54300
O 	O 	0.82020 0.74192 0.84800 -0.49500
C 	C 	0.73670 0.75630 0.97540 0.75200
H 	H 	0.71850 0.71780 0.04530 -0.21500
O 	O 	0.83590 0.90562 0.26950 -0.26300
O 	O 	0.51000 0.94979 0.06980 -0.48100
O 	O 	0.82450 0.68349 0.51870 -0.45800
O 	O 	0.67980 0.75808 0.34800 -0.51600
C 	C 	0.76330 0.74370 0.47540 0.60300
H 	H 	0.78150 0.78220 0.54530 -0.12800
O 	O 	0.33590 0.40562 0.26950 -0.51200
O 	O 	0.01000 0.44979 0.06980 -0.90300
O 	O 	0.32450 0.18349 0.51870 -0.54000
O 	O 	0.17980 0.25808 0.34800 -0.61500
C 	C 	0.26330 0.24370 0.47540 0.61500
H 	H 	0.28150 0.28220 0.54530 -0.19800
O 	O 	0.83590 0.09438 0.73050 -0.28200
O 	O 	0.51000 0.05021 0.93020 -0.50400
O 	O 	0.82450 0.31651 0.48130 -0.45900
O 	O 	0.67980 0.24192 0.65200 -0.51500
C 	C 	0.76330 0.25630 0.52460 0.60900
H 	H 	0.78150 0.21780 0.45470 -0.14000
O 	O 	0.33590 0.59438 0.73050 -0.50700
O 	O 	0.01000 0.55021 0.93020 -0.87300
O 	O 	0.32450 0.81651 0.48130 -0.53000
O 	O 	0.17980 0.74192 0.65200 -0.60900
C 	C 	0.26330 0.75630 0.52460 0.61600
H 	H 	0.28150 0.71780 0.45470 -0.20200
O 	O 	0.16410 0.90562 0.23050 -0.42700
O 	O 	0.49000 0.94979 0.43020 -0.49900
O 	O 	0.17550 0.68349 0.98130 -0.49100
O 	O 	0.32020 0.75808 0.15200 -0.52900
C 	C 	0.23670 0.74370 0.02460 0.46200
H 	H 	0.21850 0.78220 0.95470 -0.12500
O 	O 	0.66410 0.40562 0.23050 -0.45400
O 	O 	0.99000 0.44979 0.43020 -0.19400
O 	O 	0.67550 0.18349 0.98130 -0.41200
O 	O 	0.82020 0.25808 0.15200 -0.43200
C 	C 	0.73670 0.24370 0.02460 0.44100
H 	H 	0.71850 0.28220 0.95470 -0.06100
Y 	Y 	0.50000 0.14261 0.75000 2.40400
Y 	Y 	0.00000 0.64260 0.75000 2.37700
Y 	Y 	0.50000 0.85740 0.25000 2.40400
Y 	Y 	0.00000 0.35739 0.25000 2.37700
C 	C 	0.00000 0.12540 0.75000 0.23800
H 	H 	0.00000 0.17600 0.75000 -0.12000
C 	C 	0.50000 0.62540 0.75000 0.56700
H 	H 	0.50000 0.67600 0.75000 -0.16300
C 	C 	0.00000 0.87460 0.25000 0.23800
H 	H 	0.00000 0.82400 0.25000 -0.12300
C 	C 	0.50000 0.37460 0.25000 0.56600
H 	H 	0.50000 0.32400 0.25000 -0.16900
C 	C 	0.57490 -0.00000 0.50000 0.57100
H 	H 	0.71420 -0.00000 0.50000 -0.11700
C 	C 	0.07490 0.50000 0.50000 -0.06100
H 	H 	0.21420 0.50000 0.50000 0.05800
C 	C 	0.42510 0.00000 -0.00000 0.51800
H 	H 	0.28580 0.00000 -0.00000 -0.16800
C 	C 	0.92510 0.50000 -0.00000 1.35100
H 	H 	0.78580 0.50000 -0.00000 -0.36700
