data_crystal

_cell_length_a 6.69160
_cell_length_b 18.58100
_cell_length_c 8.49100
_cell_angle_alpha 90.00000
_cell_angle_beta  90.00000
_cell_angle_gamma 90.00000

_symmetry_space_group_name_	'P 1'
_symmetry_space_group_name_H-M	'P 1'

loop_
_symmetry_equiv_pos_as_xyz
  x,y,z

loop_
_atom_site_label
_atom_site_type_symbol
_atom_site_fract_x
_atom_site_fract_y
_atom_site_fract_z
_atom_site_charge
O 	O 	0.48500 0.45009 0.06770 -0.47600
O 	O 	0.32250 0.31801 0.01560 -0.47800
O 	O 	0.16300 0.40620 0.27350 -0.39100
O 	O 	0.18160 0.24351 0.84590 -0.48700
C 	C 	0.26750 0.25760 0.97250 0.62000
H 	H 	0.29230 0.21930 0.04040 -0.19400
O 	O 	0.98500 0.95009 0.06770 -0.11000
O 	O 	0.82250 0.81801 0.01560 -0.39400
O 	O 	0.66300 0.90620 0.27350 -0.34700
O 	O 	0.68160 0.74351 0.84590 -0.44700
C 	C 	0.76750 0.75760 0.97250 0.61700
H 	H 	0.79230 0.71930 0.04040 -0.15000
O 	O 	0.51500 0.54991 0.56770 -0.47100
O 	O 	0.67750 0.68199 0.51560 -0.40900
O 	O 	0.83700 0.59380 0.77350 -0.27200
O 	O 	0.81840 0.75649 0.34590 -0.37200
C 	C 	0.73250 0.74240 0.47250 0.54900
H 	H 	0.70770 0.78070 0.54040 -0.12000
O 	O 	0.01500 0.04991 0.56770 -0.64600
O 	O 	0.17750 0.18199 0.51560 -0.43900
O 	O 	0.33700 0.09380 0.77350 -0.40800
O 	O 	0.31840 0.25649 0.34590 -0.47100
C 	C 	0.23250 0.24240 0.47250 0.55800
H 	H 	0.20770 0.28070 0.54040 -0.16800
O 	O 	0.51500 0.45009 0.43230 -0.47000
O 	O 	0.67750 0.31801 0.48440 -0.40900
O 	O 	0.83700 0.40620 0.22650 -0.27800
O 	O 	0.81840 0.24351 0.65410 -0.37200
C 	C 	0.73250 0.25760 0.52750 0.55200
H 	H 	0.70770 0.21930 0.45960 -0.12700
O 	O 	0.01500 0.95009 0.43230 -0.59900
O 	O 	0.17750 0.81801 0.48440 -0.43100
O 	O 	0.33700 0.90620 0.22650 -0.39100
O 	O 	0.31840 0.74351 0.65410 -0.46600
C 	C 	0.23250 0.75760 0.52750 0.55800
H 	H 	0.20770 0.71930 0.45960 -0.16900
O 	O 	0.48500 0.54991 0.93230 -0.46200
O 	O 	0.32250 0.68199 0.98440 -0.42400
O 	O 	0.16300 0.59380 0.72650 -0.38900
O 	O 	0.18160 0.75649 0.15410 -0.46000
C 	C 	0.26750 0.74240 0.02750 0.50000
H 	H 	0.29230 0.78070 0.95960 -0.13000
O 	O 	0.98500 0.04991 0.93230 -0.14700
O 	O 	0.82250 0.18199 0.98440 -0.34900
O 	O 	0.66300 0.09380 0.72650 -0.36900
O 	O 	0.68160 0.25649 0.15410 -0.42500
C 	C 	0.76750 0.24240 0.02750 0.49900
H 	H 	0.79230 0.28070 0.95960 -0.09200
Gd	Gd	0.50000 0.35730 0.25000 1.86400
Gd	Gd	-0.00000 0.85730 0.25000 1.57600
Gd	Gd	0.50000 0.64270 0.75000 1.86800
Gd	Gd	-0.00000 0.14270 0.75000 1.57500
C 	C 	-0.00000 0.37570 0.25000 0.33200
H 	H 	-0.00000 0.32560 0.25000 -0.13000
C 	C 	0.50000 0.87570 0.25000 0.52500
H 	H 	0.50000 0.82560 0.25000 -0.14000
C 	C 	-0.00000 0.62430 0.75000 0.33100
H 	H 	-0.00000 0.67440 0.75000 -0.12800
C 	C 	0.50000 0.12430 0.75000 0.52800
H 	H 	0.50000 0.17440 0.75000 -0.14000
C 	C 	0.57350 0.50000 -0.00000 0.61500
H 	H 	0.71100 0.50000 -0.00000 -0.13400
C 	C 	0.07350 0.00000 -0.00000 -0.03300
H 	H 	0.21100 0.00000 -0.00000 0.04000
C 	C 	0.42650 0.50000 0.50000 0.65300
H 	H 	0.28900 0.50000 0.50000 -0.18000
C 	C 	0.92650 0.00000 0.50000 1.00200
H 	H 	0.78900 0.00000 0.50000 -0.26800
