data_crystal

_cell_length_a 10.19590
_cell_length_b 11.78560
_cell_length_c 14.92240
_cell_angle_alpha 91.85590
_cell_angle_beta  90.00000
_cell_angle_gamma 90.00000

_symmetry_space_group_name_	'P 1'
_symmetry_space_group_name_H-M	'P 1'

loop_
_symmetry_equiv_pos_as_xyz
  x,y,z

loop_
_atom_site_label
_atom_site_type_symbol
_atom_site_fract_x
_atom_site_fract_y
_atom_site_fract_z
_atom_site_charge
Mn	Mn	0.06693 0.01017 0.43727 1.32000
Mn	Mn	0.37925 0.00971 0.38115 1.30300
Mn	Mn	0.45846 0.25526 0.25221 1.32600
Mn	Mn	0.54323 0.49648 0.11876 1.30800
Mn	Mn	0.85653 0.48743 0.06444 1.31300
Mn	Mn	0.45996 0.75494 0.24799 1.32600
Mn	Mn	0.56693 0.98983 0.56273 1.31700
Mn	Mn	0.87925 0.99029 0.61885 1.29400
Mn	Mn	0.95846 0.74474 0.74779 1.31400
Mn	Mn	0.04323 0.50352 0.88124 1.31500
Mn	Mn	0.35653 0.51257 0.93556 1.31600
Mn	Mn	0.95996 0.24506 0.75201 1.32200
H 	H 	0.21730 0.09830 0.61960 -0.13000
H 	H 	0.08240 0.81790 0.28850 -0.10600
H 	H 	0.00330 0.26620 0.49090 -0.09300
H 	H 	0.16240 0.25350 0.27710 -0.10300
H 	H 	0.60890 0.95280 0.17400 -0.11200
H 	H 	0.16800 0.78510 0.52740 -0.13100
H 	H 	0.74290 0.24930 0.22580 -0.12700
H 	H 	0.30720 0.55830 0.32390 -0.11400
H 	H 	0.25080 0.29590 0.03200 -0.14000
H 	H 	0.70660 0.39570 0.88570 -0.12700
H 	H 	0.83610 0.69330 0.20870 -0.13700
H 	H 	0.43270 0.77090 0.98660 -0.11800
H 	H 	0.71730 0.90170 0.38040 -0.13600
H 	H 	0.58240 0.18210 0.71150 -0.11500
H 	H 	0.50330 0.73380 0.50910 -0.11700
H 	H 	0.66240 0.74650 0.72290 -0.10700
H 	H 	0.10890 0.04720 0.82600 -0.10700
H 	H 	0.66800 0.21490 0.47260 -0.13500
H 	H 	0.24290 0.75070 0.77420 -0.12200
H 	H 	0.80720 0.44170 0.67610 -0.11700
H 	H 	0.75080 0.70410 0.96800 -0.14500
H 	H 	0.20660 0.60430 0.11430 -0.12400
H 	H 	0.33610 0.30670 0.79130 -0.12700
H 	H 	0.93270 0.22910 0.01340 -0.12500
C 	C 	0.28550 0.07280 0.58290 0.52300
C 	C 	0.17130 0.83270 0.29680 0.50000
C 	C 	0.97960 0.22740 0.54170 0.46400
C 	C 	0.17990 0.19090 0.31160 0.48400
C 	C 	0.55410 0.99440 0.21270 0.49400
C 	C 	0.10090 0.80620 0.56660 0.51300
C 	C 	0.73010 0.31280 0.19150 0.52900
C 	C 	0.36050 0.51410 0.28600 0.51500
C 	C 	0.31790 0.31540 0.07180 0.54000
C 	C 	0.63830 0.42510 0.92060 0.50300
C 	C 	0.74770 0.67630 0.20030 0.54900
C 	C 	0.44940 0.73260 0.03890 0.52000
C 	C 	0.78550 0.92720 0.41710 0.52800
C 	C 	0.67130 0.16730 0.70320 0.50300
C 	C 	0.47960 0.77260 0.45830 0.50000
C 	C 	0.67990 0.80910 0.68840 0.48800
C 	C 	0.05410 0.00560 0.78730 0.49200
C 	C 	0.60090 0.19380 0.43340 0.51800
C 	C 	0.23010 0.68720 0.80850 0.52400
C 	C 	0.86050 0.48590 0.71400 0.51600
C 	C 	0.81790 0.68460 0.92820 0.54300
C 	C 	0.13830 0.57490 0.07940 0.50200
C 	C 	0.24770 0.32370 0.79970 0.54500
C 	C 	0.94940 0.26740 0.96110 0.52700
O 	O 	0.25760 0.05380 0.49970 -0.58500
O 	O 	0.39150 0.06100 0.61860 -0.47100
O 	O 	0.20190 0.90770 0.35510 -0.58600
O 	O 	0.25110 0.77590 0.24860 -0.44100
O 	O 	0.96800 0.11970 0.53490 -0.57800
O 	O 	0.96070 0.28360 0.61330 -0.45000
O 	O 	0.08610 0.14670 0.34870 -0.45500
O 	O 	0.30150 0.15800 0.31650 -0.57400
O 	O 	0.48530 0.94050 0.26800 -0.58300
O 	O 	0.55260 0.10140 0.20700 -0.45300
O 	O 	0.04180 0.89850 0.55220 -0.57200
O 	O 	0.07650 0.74140 0.62910 -0.44900
O 	O 	0.61680 0.35030 0.18770 -0.60800
O 	O 	0.82990 0.35270 0.15360 -0.46900
O 	O 	0.35980 0.41270 0.29660 -0.46400
O 	O 	0.42850 0.56720 0.22710 -0.57800
O 	O 	0.33570 0.25200 0.13380 -0.46900
O 	O 	0.38170 0.40520 0.05600 -0.59400
O 	O 	0.66150 0.44580 0.00260 -0.58600
O 	O 	0.52960 0.44120 0.88220 -0.45700
O 	O 	0.72140 0.59550 0.14300 -0.60300
O 	O 	0.67170 0.73210 0.24400 -0.48200
O 	O 	0.45880 0.62410 0.03110 -0.58300
O 	O 	0.45990 0.79100 0.10740 -0.46400
O 	O 	0.75760 0.94620 0.50030 -0.59200
O 	O 	0.89150 0.93900 0.38140 -0.49000
O 	O 	0.70190 0.09230 0.64490 -0.59000
O 	O 	0.75110 0.22410 0.75140 -0.44400
O 	O 	0.46800 0.88030 0.46510 -0.58300
O 	O 	0.46070 0.71640 0.38670 -0.45400
O 	O 	0.58610 0.85330 0.65130 -0.46200
O 	O 	0.80150 0.84200 0.68350 -0.58300
O 	O 	0.98530 0.05950 0.73200 -0.58800
O 	O 	0.05260 0.89860 0.79300 -0.43600
O 	O 	0.54180 0.10150 0.44780 -0.58900
O 	O 	0.57650 0.25860 0.37090 -0.46200
O 	O 	0.11680 0.64970 0.81230 -0.59600
O 	O 	0.32990 0.64730 0.84640 -0.46200
O 	O 	0.85980 0.58730 0.70340 -0.47200
O 	O 	0.92850 0.43280 0.77290 -0.58500
O 	O 	0.83570 0.74800 0.86620 -0.47800
O 	O 	0.88170 0.59480 0.94400 -0.60300
O 	O 	0.16150 0.55420 0.99740 -0.58100
O 	O 	0.02960 0.55880 0.11780 -0.44300
O 	O 	0.22140 0.40450 0.85700 -0.59600
O 	O 	0.17170 0.26790 0.75600 -0.47200
O 	O 	0.95880 0.37590 0.96890 -0.59300
O 	O 	0.95990 0.20900 0.89260 -0.47100
