data_crystal

_cell_length_a 10.20720
_cell_length_b 11.75610
_cell_length_c 14.96140
_cell_angle_alpha 91.86390
_cell_angle_beta  90.00000
_cell_angle_gamma 90.00000

_symmetry_space_group_name_	'P 1'
_symmetry_space_group_name_H-M	'P 1'

loop_
_symmetry_equiv_pos_as_xyz
  x,y,z

loop_
_atom_site_label
_atom_site_type_symbol
_atom_site_fract_x
_atom_site_fract_y
_atom_site_fract_z
_atom_site_charge
Mn	Mn	0.91931 0.75679 0.13165 1.35300
Mn	Mn	0.10688 0.73916 0.31282 1.29900
Mn	Mn	0.41931 0.74321 0.36835 1.30800
Mn	Mn	0.60688 0.76084 0.18718 1.31700
Mn	Mn	0.08069 0.24321 0.86835 1.25700
Mn	Mn	0.89312 0.26084 0.68718 1.33300
Mn	Mn	0.58069 0.25679 0.63165 1.30100
Mn	Mn	0.39312 0.23916 0.81282 1.31200
Mn	Mn	-0.00000 0.50000 -0.00000 1.22800
Mn	Mn	0.50000 0.00000 0.50000 1.29200
Mn	Mn	-0.00000 0.00000 -0.00000 1.20000
Mn	Mn	0.50000 0.50000 0.50000 1.32400
H 	H 	0.75300 0.84680 0.37080 -0.08100
H 	H 	0.03400 0.48330 0.26530 -0.13500
H 	H 	0.61500 0.56610 0.04110 -0.11500
H 	H 	0.21400 0.96180 0.22380 -0.12600
H 	H 	0.15300 0.69680 0.92580 -0.16000
H 	H 	0.70700 0.99630 0.02730 -0.15200
H 	H 	0.25300 0.65320 0.12920 -0.13000
H 	H 	0.53400 0.01670 0.23470 -0.24600
H 	H 	0.11500 0.93390 0.45890 -0.09600
H 	H 	0.71400 0.53820 0.27620 -0.07900
H 	H 	0.65300 0.80320 0.57420 -0.08200
H 	H 	0.20700 0.50370 0.47270 -0.17900
H 	H 	0.24700 0.15320 0.62920 -0.12800
H 	H 	0.96600 0.51670 0.73470 -0.05400
H 	H 	0.38500 0.43390 0.95890 -0.04600
H 	H 	0.78600 0.03820 0.77620 -0.06200
H 	H 	0.84700 0.30320 0.07420 -0.04000
H 	H 	0.29300 0.00370 0.97270 -0.14600
H 	H 	0.74700 0.34680 0.87080 -0.07600
H 	H 	0.46600 0.98330 0.76530 0.05700
H 	H 	0.88500 0.06610 0.54110 -0.06500
H 	H 	0.28600 0.46180 0.72380 -0.11100
H 	H 	0.34700 0.19680 0.42580 -0.13000
H 	H 	0.79300 0.49630 0.52730 -0.13000
C 	C 	0.82540 0.82406 0.33146 0.46600
C 	C 	0.01860 0.51989 0.20859 0.50600
C 	C 	0.71240 0.57689 0.04999 0.46600
C 	C 	0.14040 0.94108 0.18048 0.60200
C 	C 	0.09710 0.74053 0.96413 0.68900
C 	C 	0.72450 0.93679 0.05969 0.55800
C 	C 	0.32540 0.67594 0.16854 0.47900
C 	C 	0.51860 0.98011 0.29141 0.77100
C 	C 	0.21240 0.92311 0.45001 0.45300
C 	C 	0.64040 0.55892 0.31952 0.46100
C 	C 	0.59710 0.75947 0.53587 0.48800
C 	C 	0.22450 0.56321 0.44031 0.59100
C 	C 	0.17460 0.17594 0.66854 0.48200
C 	C 	0.98140 0.48011 0.79141 0.45100
C 	C 	0.28760 0.42311 0.95001 0.43600
C 	C 	0.85960 0.05892 0.81952 0.32600
C 	C 	0.90290 0.25947 0.03587 0.28600
C 	C 	0.27550 0.06321 0.94031 0.57600
C 	C 	0.67460 0.32406 0.83146 0.46800
C 	C 	0.48140 0.01989 0.70859 0.19100
C 	C 	0.78760 0.07689 0.54999 0.45600
C 	C 	0.35960 0.44108 0.68048 0.47300
C 	C 	0.40290 0.24053 0.46413 0.50900
C 	C 	0.77550 0.43679 0.55969 0.55900
O 	O 	0.79934 0.80393 0.24918 -0.54100
O 	O 	0.93310 0.81176 0.36781 -0.37200
O 	O 	0.00751 0.62768 0.21629 -0.63600
O 	O 	0.00210 0.46197 0.13988 -0.54200
O 	O 	0.74211 0.65519 0.10712 -0.57000
O 	O 	0.79002 0.52016 0.00331 -0.46800
O 	O 	0.08066 0.84900 0.19604 -0.65100
O 	O 	0.11890 0.00457 0.11860 -0.61800
O 	O 	0.02890 0.68666 0.02076 -0.75900
O 	O 	0.09836 0.84413 0.95566 -0.45600
O 	O 	0.84242 0.90292 0.06436 -0.56600
O 	O 	0.62893 0.89514 0.09719 -0.47800
O 	O 	0.29934 0.69607 0.25082 -0.58000
O 	O 	0.43310 0.68824 0.13219 -0.47800
O 	O 	0.50751 0.87232 0.28371 -0.64000
O 	O 	0.50210 0.03803 0.36012 -0.59600
O 	O 	0.24211 0.84481 0.39288 -0.58300
O 	O 	0.29002 0.97984 0.49669 -0.40700
O 	O 	0.58066 0.65100 0.30396 -0.57300
O 	O 	0.61890 0.49543 0.38140 -0.44600
O 	O 	0.52890 0.81334 0.47924 -0.56300
O 	O 	0.59836 0.65587 0.54434 -0.44600
O 	O 	0.34242 0.59708 0.43564 -0.61900
O 	O 	0.12893 0.60486 0.40281 -0.52200
O 	O 	0.20066 0.19607 0.75082 -0.61200
O 	O 	0.06690 0.18824 0.63219 -0.54100
O 	O 	0.99249 0.37232 0.78371 -0.51700
O 	O 	0.99790 0.53803 0.86012 -0.34000
O 	O 	0.25789 0.34481 0.89288 -0.58400
O 	O 	0.20998 0.47984 0.99669 -0.38800
O 	O 	0.91934 0.15100 0.80396 -0.49600
O 	O 	0.88110 0.99543 0.88140 -0.25100
O 	O 	0.97110 0.31334 0.97924 -0.37000
O 	O 	0.90164 0.15587 0.04434 -0.41500
O 	O 	0.15758 0.09708 0.93564 -0.61700
O 	O 	0.37107 0.10486 0.90281 -0.48800
O 	O 	0.70066 0.30393 0.74918 -0.57200
O 	O 	0.56690 0.31176 0.86781 -0.43200
O 	O 	0.49249 0.12768 0.71629 -0.51700
O 	O 	0.49790 0.96197 0.63988 -0.30600
O 	O 	0.75789 0.15519 0.60712 -0.57500
O 	O 	0.70998 0.02016 0.50331 -0.46800
O 	O 	0.41934 0.34900 0.69604 -0.58300
O 	O 	0.38110 0.50457 0.61860 -0.45900
O 	O 	0.47110 0.18666 0.52076 -0.59400
O 	O 	0.40164 0.34413 0.45566 -0.47200
O 	O 	0.65758 0.40292 0.56436 -0.60000
O 	O 	0.87107 0.39514 0.59719 -0.44800
