data_crystal

_cell_length_a 19.09030
_cell_length_b 19.09030
_cell_length_c 27.42950
_cell_angle_alpha 110.36400
_cell_angle_beta  110.36400
_cell_angle_gamma 90.00010

_symmetry_space_group_name_	'P 1'
_symmetry_space_group_name_H-M	'P 1'

loop_
_symmetry_equiv_pos_as_xyz
  x,y,z

loop_
_atom_site_label
_atom_site_type_symbol
_atom_site_fract_x
_atom_site_fract_y
_atom_site_fract_z
_atom_site_charge
Zn	Zn	0.50576 0.43093 0.51151 1.21800
Zn	Zn	0.43093 0.50576 0.01151 1.21700
Zn	Zn	0.50576 0.08058 0.51152 1.21900
Zn	Zn	0.91942 0.49424 0.98848 1.21700
Zn	Zn	0.08058 0.50576 0.01152 1.21700
Zn	Zn	0.56907 0.49424 0.98849 1.21800
Zn	Zn	0.49424 0.56907 0.48849 1.21900
Zn	Zn	0.49424 0.91942 0.48848 1.21900
H 	H 	0.76640 0.52090 0.91680 0.05600
H 	H 	0.74220 0.82090 0.18940 0.25600
H 	H 	0.58530 0.31220 0.38120 -0.01900
H 	H 	0.25780 0.63150 0.81060 0.25600
H 	H 	0.65040 0.52090 0.91680 0.05600
H 	H 	0.16140 0.34630 0.20220 0.19400
H 	H 	0.38320 0.79550 0.47500 0.06500
H 	H 	0.32050 0.40820 0.02500 0.06400
H 	H 	0.52090 0.76640 0.41680 0.05600
H 	H 	0.74220 0.36850 0.18940 0.25600
H 	H 	0.67950 0.38320 0.97500 0.06400
H 	H 	0.40820 0.20450 0.52500 0.06500
H 	H 	0.74010 0.14510 0.63300 -0.01700
H 	H 	0.25990 0.51210 0.36700 -0.01800
H 	H 	0.17910 0.25780 0.31060 0.25600
H 	H 	0.54080 0.85590 0.20220 0.19400
H 	H 	0.41470 0.93100 0.61880 -0.01900
H 	H 	0.61680 0.32050 0.52500 0.06500
H 	H 	0.65040 0.39590 0.91680 0.05600
H 	H 	0.85490 0.25990 0.86700 -0.01800
H 	H 	0.20450 0.61680 0.02500 0.06300
H 	H 	0.72380 0.48890 0.06160 0.06500
H 	H 	0.48790 0.39290 0.13300 -0.01800
H 	H 	0.48890 0.83780 0.56160 0.06500
H 	H 	0.48790 0.74010 0.13300 -0.01800
H 	H 	0.36850 0.74220 0.68940 0.25600
H 	H 	0.85590 0.54080 0.70220 0.19400
H 	H 	0.82090 0.94720 0.68940 0.25500
H 	H 	0.34630 0.54080 0.70220 0.19400
H 	H 	0.67950 0.59180 0.97500 0.06400
H 	H 	0.40820 0.32050 0.52500 0.06500
H 	H 	0.83780 0.48890 0.06160 0.06500
H 	H 	0.14510 0.39290 0.13300 -0.01800
H 	H 	0.83860 0.14410 0.79780 0.19200
H 	H 	0.93100 0.41470 0.11880 -0.01900
H 	H 	0.85490 0.60710 0.86700 -0.01800
H 	H 	0.59180 0.79550 0.47500 0.06500
H 	H 	0.31220 0.29590 0.88120 -0.01900
H 	H 	0.05280 0.63150 0.81060 0.25600
H 	H 	0.70410 0.93100 0.61880 -0.01800
H 	H 	0.60410 0.23360 0.58320 0.05600
H 	H 	0.14410 0.83860 0.29780 0.19200
H 	H 	0.27620 0.51110 0.93840 0.06500
H 	H 	0.52090 0.65040 0.41680 0.05600
H 	H 	0.47910 0.34960 0.58320 0.05600
H 	H 	0.60710 0.85490 0.36700 -0.01800
H 	H 	0.93100 0.70410 0.11880 -0.01900
H 	H 	0.38320 0.67950 0.47500 0.06500
H 	H 	0.79550 0.59180 0.97500 0.06400
H 	H 	0.45920 0.14410 0.79780 0.19400
H 	H 	0.16220 0.42730 0.93840 0.06500
H 	H 	0.83860 0.65370 0.79780 0.19400
H 	H 	0.45920 0.65370 0.79780 0.19400
H 	H 	0.82090 0.74220 0.68940 0.25600
H 	H 	0.83780 0.57270 0.06160 0.06500
H 	H 	0.94720 0.82090 0.18940 0.25400
H 	H 	0.65370 0.83860 0.29780 0.19400
H 	H 	0.85590 0.16140 0.70220 0.19200
H 	H 	0.14410 0.45920 0.29780 0.19400
H 	H 	0.51110 0.16220 0.43840 0.06500
H 	H 	0.42730 0.16220 0.43840 0.06500
H 	H 	0.25990 0.85490 0.36700 -0.01700
H 	H 	0.06900 0.58530 0.88120 -0.01900
H 	H 	0.70410 0.68780 0.61880 -0.01900
H 	H 	0.29590 0.31220 0.38120 -0.01900
H 	H 	0.34960 0.60410 0.08320 0.05600
H 	H 	0.17910 0.05280 0.31060 0.25500
H 	H 	0.48890 0.72380 0.56160 0.06500
H 	H 	0.05280 0.17910 0.81060 0.25400
H 	H 	0.29590 0.06900 0.38120 -0.01800
H 	H 	0.59180 0.67950 0.47500 0.06500
H 	H 	0.68780 0.70410 0.11880 -0.01900
H 	H 	0.36850 0.94720 0.68940 0.25600
H 	H 	0.16140 0.85590 0.20220 0.19200
H 	H 	0.54080 0.34630 0.20220 0.19400
H 	H 	0.63150 0.25780 0.31060 0.25600
H 	H 	0.25780 0.17910 0.81060 0.25600
H 	H 	0.39290 0.48790 0.63300 -0.01800
H 	H 	0.14510 0.74010 0.13300 -0.01800
H 	H 	0.06900 0.29590 0.88120 -0.01900
H 	H 	0.60410 0.34960 0.58320 0.05600
H 	H 	0.79550 0.38320 0.97500 0.06300
H 	H 	0.94720 0.36850 0.18940 0.25600
H 	H 	0.51210 0.60710 0.86700 -0.01800
H 	H 	0.51110 0.27620 0.43840 0.06500
H 	H 	0.20450 0.40820 0.02500 0.06400
H 	H 	0.60710 0.51210 0.36700 -0.01800
H 	H 	0.72380 0.57270 0.06160 0.06500
H 	H 	0.42730 0.27620 0.43840 0.06500
H 	H 	0.31220 0.58530 0.88120 -0.01900
H 	H 	0.58530 0.06900 0.38120 -0.01900
H 	H 	0.23360 0.47910 0.08320 0.05600
H 	H 	0.16220 0.51110 0.93840 0.06500
H 	H 	0.63150 0.05280 0.31060 0.25600
H 	H 	0.47910 0.23360 0.58320 0.05600
H 	H 	0.39590 0.76640 0.41680 0.05600
H 	H 	0.76640 0.39590 0.91680 0.05500
H 	H 	0.65370 0.45920 0.29780 0.19400
H 	H 	0.68780 0.41470 0.11880 -0.01900
H 	H 	0.57270 0.83780 0.56160 0.06500
H 	H 	0.27620 0.42730 0.93840 0.06500
H 	H 	0.74010 0.48790 0.63300 -0.01800
H 	H 	0.61680 0.20450 0.52500 0.06500
H 	H 	0.23360 0.60410 0.08320 0.05500
H 	H 	0.39590 0.65040 0.41680 0.05600
H 	H 	0.34960 0.47910 0.08320 0.05600
H 	H 	0.39290 0.14510 0.63300 -0.01800
H 	H 	0.57270 0.72380 0.56160 0.06500
H 	H 	0.51210 0.25990 0.86700 -0.01800
H 	H 	0.34630 0.16140 0.70220 0.19400
H 	H 	0.41470 0.68780 0.61880 -0.01900
H 	H 	0.32050 0.61680 0.02500 0.06400
C 	C 	0.05592 0.35512 0.20468 0.44000
C 	C 	0.65837 0.23667 0.22214 0.93000
C 	C 	0.97897 0.73450 0.13660 0.27800
C 	C 	0.26550 0.34237 0.36340 0.27400
C 	C 	0.75602 0.54026 0.64498 0.25600
C 	C 	0.58362 0.23124 0.54404 -0.06000
C 	C 	0.23667 0.06377 0.72214 0.93100
C 	C 	0.06377 0.98547 0.22214 0.92100
C 	C 	0.19554 0.01154 0.32128 -0.34700
C 	C 	0.34163 0.76333 0.77786 0.93000
C 	C 	0.23124 0.58362 0.04404 -0.06000
C 	C 	0.58838 0.41556 0.37966 -0.25900
C 	C 	0.01453 0.93623 0.27786 0.92100
C 	C 	0.01154 0.62574 0.82128 -0.35100
C 	C 	0.98547 0.06377 0.72214 0.92100
C 	C 	0.64488 0.35124 0.29532 0.44300
C 	C 	0.03590 0.41162 0.12034 -0.26200
C 	C 	0.23124 0.46042 0.04404 -0.06000
C 	C 	0.35124 0.15044 0.79532 0.44400
C 	C 	0.59790 0.34237 0.36340 0.27400
C 	C 	0.82441 0.11425 0.68592 -0.33900
C 	C 	0.54026 0.38896 0.14498 0.25700
C 	C 	0.58444 0.70872 0.12034 -0.25900
C 	C 	0.36833 0.45010 0.42446 0.47100
C 	C 	0.31280 0.46042 0.04404 -0.06000
C 	C 	0.70872 0.58444 0.62034 -0.25800
C 	C 	0.46042 0.23124 0.54404 -0.06000
C 	C 	0.02564 0.63167 0.07554 0.46400
C 	C 	0.76333 0.34163 0.27786 0.93000
C 	C 	0.02564 0.44387 0.07554 0.46500
C 	C 	0.18941 0.47931 0.95862 -0.06200
C 	C 	0.03590 0.70872 0.12034 -0.26200
C 	C 	0.46042 0.31280 0.54404 -0.06000
C 	C 	0.35124 0.64488 0.79532 0.44300
C 	C 	0.94408 0.64488 0.79532 0.44000
C 	C 	0.41638 0.76876 0.45596 -0.06000
C 	C 	0.19554 0.30974 0.32128 -0.35300
C 	C 	0.98846 0.80446 0.17872 -0.34500
C 	C 	0.45010 0.36833 0.92446 0.47100
C 	C 	0.26921 0.47931 0.95862 -0.06500
C 	C 	0.01154 0.19554 0.82128 -0.34500
C 	C 	0.68720 0.53958 0.95596 -0.06000
C 	C 	0.36833 0.97436 0.42446 0.47000
C 	C 	0.62574 0.30974 0.32128 -0.35400
C 	C 	0.45974 0.61104 0.85502 0.25700
C 	C 	0.57167 0.82441 0.18592 -0.34300
C 	C 	0.11425 0.82441 0.18592 -0.33900
C 	C 	0.63167 0.54990 0.57554 0.47100
C 	C 	0.63849 0.42833 0.31408 -0.34300
C 	C 	0.45974 0.24398 0.85502 0.25700
C 	C 	0.76333 0.93623 0.27786 0.93100
C 	C 	0.24398 0.45974 0.35502 0.25600
C 	C 	0.30974 0.19554 0.82128 -0.35400
C 	C 	0.38896 0.10472 0.64498 0.25700
C 	C 	0.58838 0.96410 0.37966 -0.25900
C 	C 	0.65763 0.73450 0.13660 0.27500
C 	C 	0.10472 0.38896 0.14498 0.25700
C 	C 	0.45010 0.55613 0.92446 0.47100
C 	C 	0.30974 0.62574 0.82128 -0.35400
C 	C 	0.64488 0.94408 0.29532 0.44400
C 	C 	0.34237 0.59790 0.86340 0.27400
C 	C 	0.98846 0.37426 0.17872 -0.35100
C 	C 	0.61104 0.45974 0.35502 0.25700
C 	C 	0.73450 0.97897 0.63660 0.27300
C 	C 	0.61104 0.89528 0.35502 0.25700
C 	C 	0.80446 0.69026 0.67872 -0.35300
C 	C 	0.07230 0.32230 0.25000 -0.55700
C 	C 	0.44387 0.02564 0.57554 0.47200
C 	C 	0.40210 0.65763 0.63660 0.27400
C 	C 	0.35512 0.05592 0.70468 0.44400
C 	C 	0.41556 0.58838 0.87966 -0.25800
C 	C 	0.59790 0.02103 0.36340 0.27400
C 	C 	0.93623 0.76333 0.77786 0.92900
C 	C 	0.76876 0.41638 0.95596 -0.06000
C 	C 	0.65763 0.40210 0.13660 0.27400
C 	C 	0.37426 0.98846 0.67872 -0.35500
C 	C 	0.11425 0.36151 0.18592 -0.34200
C 	C 	0.68720 0.41638 0.95596 -0.06000
C 	C 	0.82441 0.57167 0.68592 -0.34200
C 	C 	0.97436 0.36833 0.92446 0.46400
C 	C 	0.41162 0.03590 0.62034 -0.25900
C 	C 	0.80446 0.98846 0.67872 -0.34700
C 	C 	0.92770 0.07230 0.75000 -0.55100
C 	C 	0.42833 0.17559 0.81408 -0.34300
C 	C 	0.38896 0.54026 0.64498 0.25700
C 	C 	0.41162 0.58444 0.62034 -0.25900
C 	C 	0.84956 0.05592 0.70468 0.43700
C 	C 	0.63849 0.88575 0.31408 -0.34300
C 	C 	0.64876 0.35512 0.20468 0.44300
C 	C 	0.76876 0.53958 0.95596 -0.06000
C 	C 	0.55613 0.97436 0.42446 0.47200
C 	C 	0.98547 0.65837 0.72214 0.92800
C 	C 	0.96410 0.58838 0.87966 -0.26200
C 	C 	0.53958 0.76876 0.45596 -0.06000
C 	C 	0.96410 0.29128 0.87966 -0.26200
C 	C 	0.75602 0.10472 0.64498 0.25400
C 	C 	0.54990 0.44387 0.07554 0.47100
C 	C 	0.54990 0.63167 0.07554 0.47100
C 	C 	0.94408 0.15044 0.79532 0.43300
C 	C 	0.93623 0.01453 0.77786 0.92100
C 	C 	0.97436 0.55613 0.92446 0.46500
C 	C 	0.23667 0.65837 0.72214 0.93000
C 	C 	0.58362 0.31280 0.54404 -0.06000
C 	C 	0.32230 0.07230 0.75000 -0.55900
C 	C 	0.44387 0.54990 0.57554 0.47200
C 	C 	0.02103 0.59790 0.86340 0.27800
C 	C 	0.26550 0.02103 0.36340 0.27300
C 	C 	0.29128 0.41556 0.37966 -0.25800
C 	C 	0.06377 0.23667 0.22214 0.92900
C 	C 	0.64876 0.84956 0.20468 0.44400
C 	C 	0.69026 0.37426 0.17872 -0.35400
C 	C 	0.62574 0.01154 0.32128 -0.35500
C 	C 	0.10472 0.75602 0.14498 0.25400
C 	C 	0.35512 0.64876 0.70468 0.44300
C 	C 	0.55613 0.45010 0.42446 0.47200
C 	C 	0.52069 0.73079 0.54138 -0.06600
C 	C 	0.32230 0.67770 0.75000 -0.55800
C 	C 	0.57167 0.36151 0.18592 -0.34300
C 	C 	0.36151 0.57167 0.68592 -0.34300
C 	C 	0.70872 0.03590 0.62034 -0.25900
C 	C 	0.52069 0.81059 0.54138 -0.06600
C 	C 	0.47931 0.26921 0.45862 -0.06600
C 	C 	0.05592 0.84956 0.20468 0.43300
C 	C 	0.41556 0.29128 0.87966 -0.25900
C 	C 	0.89528 0.61104 0.85502 0.25700
C 	C 	0.47931 0.18941 0.45862 -0.06600
C 	C 	0.65837 0.98547 0.22214 0.93100
C 	C 	0.36151 0.11425 0.68592 -0.34300
C 	C 	0.58444 0.41162 0.12034 -0.25800
C 	C 	0.88575 0.63849 0.81408 -0.34200
C 	C 	0.88575 0.17559 0.81408 -0.33900
C 	C 	0.67770 0.92770 0.25000 -0.55900
C 	C 	0.53958 0.68720 0.45596 -0.06000
C 	C 	0.17559 0.42833 0.31408 -0.34200
C 	C 	0.01453 0.34163 0.27786 0.92800
C 	C 	0.41638 0.68720 0.45596 -0.06000
C 	C 	0.89528 0.24398 0.85502 0.25400
C 	C 	0.73079 0.52069 0.04138 -0.06500
C 	C 	0.37426 0.69026 0.67872 -0.35400
C 	C 	0.42833 0.63849 0.81408 -0.34300
C 	C 	0.54026 0.75602 0.14498 0.25700
C 	C 	0.34237 0.26550 0.86340 0.27500
C 	C 	0.24398 0.89528 0.35502 0.25400
C 	C 	0.07230 0.92770 0.25000 -0.55100
C 	C 	0.02103 0.26550 0.86340 0.27800
C 	C 	0.34163 0.01453 0.77786 0.93100
C 	C 	0.15044 0.35124 0.29532 0.44300
C 	C 	0.97897 0.40210 0.13660 0.27800
C 	C 	0.29128 0.96410 0.37966 -0.25900
C 	C 	0.92770 0.67770 0.75000 -0.55700
C 	C 	0.67770 0.32230 0.25000 -0.55800
C 	C 	0.81059 0.52069 0.04138 -0.06200
C 	C 	0.73450 0.65763 0.63660 0.27400
C 	C 	0.15044 0.94408 0.29532 0.43700
C 	C 	0.63167 0.02564 0.57554 0.47000
C 	C 	0.40210 0.97897 0.63660 0.27400
C 	C 	0.17559 0.88575 0.31408 -0.33900
C 	C 	0.31280 0.58362 0.04404 -0.06000
C 	C 	0.84956 0.64876 0.70468 0.44300
C 	C 	0.69026 0.80446 0.17872 -0.35400
N 	N 	0.50786 0.18960 0.51572 -0.18800
N 	N 	0.81040 0.49214 0.98428 -0.19000
N 	N 	0.49214 0.81040 0.48428 -0.18800
N 	N 	0.32612 0.50786 0.01572 -0.18900
N 	N 	0.18960 0.50786 0.01572 -0.19000
N 	N 	0.50786 0.32612 0.51572 -0.18800
N 	N 	0.49214 0.67388 0.48428 -0.18800
N 	N 	0.67388 0.49214 0.98428 -0.18900
O 	O 	0.40243 0.03999 0.45028 -0.48100
O 	O 	0.58971 0.45215 0.04972 -0.48200
O 	O 	0.40243 0.41029 0.45028 -0.48200
O 	O 	0.08328 0.45904 0.06792 -0.47600
O 	O 	0.91672 0.39112 0.93208 -0.47500
O 	O 	0.60888 0.08328 0.56792 -0.47600
O 	O 	0.54096 0.51536 0.43208 -0.47600
O 	O 	0.51536 0.39112 0.93208 -0.47600
O 	O 	0.96001 0.59757 0.04972 -0.47500
O 	O 	0.54785 0.03999 0.45028 -0.48300
O 	O 	0.45215 0.96001 0.54972 -0.48300
O 	O 	0.59757 0.96001 0.54972 -0.48100
O 	O 	0.51536 0.54096 0.93208 -0.47600
O 	O 	0.03999 0.54785 0.95028 -0.47600
O 	O 	0.45904 0.48464 0.56792 -0.47600
O 	O 	0.58971 0.59757 0.04972 -0.48200
O 	O 	0.03999 0.40243 0.95028 -0.47500
O 	O 	0.60888 0.48464 0.56792 -0.47600
O 	O 	0.39112 0.51536 0.43208 -0.47600
O 	O 	0.59757 0.58971 0.54972 -0.48200
O 	O 	0.54096 0.91672 0.43208 -0.47600
O 	O 	0.48464 0.45904 0.06792 -0.47600
O 	O 	0.41029 0.40243 0.95028 -0.48200
O 	O 	0.48464 0.60888 0.06792 -0.47600
O 	O 	0.96001 0.45215 0.04972 -0.47600
O 	O 	0.41029 0.54785 0.95028 -0.48200
O 	O 	0.39112 0.91672 0.43208 -0.47600
O 	O 	0.08328 0.60888 0.06792 -0.47500
O 	O 	0.45904 0.08328 0.56792 -0.47600
O 	O 	0.91672 0.54096 0.93208 -0.47600
O 	O 	0.54785 0.41029 0.45028 -0.48200
O 	O 	0.45215 0.58971 0.54972 -0.48200
F 	F 	0.69535 0.05557 0.25412 -0.37800
F 	F 	0.32213 0.03560 0.82430 -0.37900
F 	F 	0.03560 0.32213 0.32430 -0.37900
F 	F 	0.00988 0.88147 0.29848 -0.44800
F 	F 	0.99012 0.11853 0.70152 -0.44800
F 	F 	0.94123 0.94443 0.74588 -0.37500
F 	F 	0.99783 0.96440 0.17570 -0.37400
F 	F 	0.32213 0.78870 0.82430 -0.37800
F 	F 	0.99783 0.21130 0.17570 -0.37700
F 	F 	0.96440 0.99783 0.67570 -0.37600
F 	F 	0.30465 0.94443 0.74588 -0.37800
F 	F 	0.94443 0.30465 0.24588 -0.37600
F 	F 	0.05877 0.19855 0.25412 -0.37800
F 	F 	0.05557 0.69535 0.75412 -0.37600
F 	F 	0.11853 0.99012 0.20152 -0.44800
F 	F 	0.80145 0.94123 0.24588 -0.37700
F 	F 	0.21130 0.99783 0.67570 -0.38000
F 	F 	0.67787 0.96440 0.17570 -0.37900
F 	F 	0.00217 0.03560 0.82430 -0.37400
F 	F 	0.94123 0.80145 0.74588 -0.37800
F 	F 	0.78860 0.88147 0.29848 -0.44700
F 	F 	0.00217 0.78870 0.82430 -0.37700
F 	F 	0.58299 0.99012 0.20152 -0.44800
F 	F 	0.99012 0.58299 0.70152 -0.44800
F 	F 	0.69535 0.19855 0.25412 -0.37800
F 	F 	0.05557 0.05877 0.75412 -0.37300
F 	F 	0.94443 0.94123 0.24588 -0.37300
F 	F 	0.30465 0.80145 0.74588 -0.37800
F 	F 	0.19855 0.69535 0.75412 -0.37700
F 	F 	0.80145 0.30465 0.24588 -0.37700
F 	F 	0.78860 0.41701 0.29848 -0.44700
F 	F 	0.19855 0.05877 0.75412 -0.37700
F 	F 	0.05877 0.05557 0.25412 -0.37500
F 	F 	0.96440 0.67787 0.67570 -0.37900
F 	F 	0.78870 0.32213 0.32430 -0.37900
F 	F 	0.21140 0.58299 0.70152 -0.44700
F 	F 	0.11853 0.21140 0.20152 -0.44700
F 	F 	0.41701 0.78860 0.79848 -0.44700
F 	F 	0.03560 0.00217 0.32430 -0.37600
F 	F 	0.67787 0.21130 0.17570 -0.37800
F 	F 	0.21130 0.67787 0.67570 -0.37900
F 	F 	0.41701 0.00988 0.79848 -0.44800
F 	F 	0.88147 0.78860 0.79848 -0.44700
F 	F 	0.58299 0.21140 0.20152 -0.44700
F 	F 	0.88147 0.00988 0.79848 -0.44800
F 	F 	0.21140 0.11853 0.70152 -0.44700
F 	F 	0.00988 0.41701 0.29848 -0.44800
F 	F 	0.78870 0.00217 0.32430 -0.38000
