data_crystal

_cell_length_a 22.89730
_cell_length_b 26.50610
_cell_length_c 31.64720
_cell_angle_alpha 90.00000
_cell_angle_beta  90.00000
_cell_angle_gamma 90.00000

_symmetry_space_group_name_	'P 1'
_symmetry_space_group_name_H-M	'P 1'

loop_
_symmetry_equiv_pos_as_xyz
  x,y,z

loop_
_atom_site_label
_atom_site_type_symbol
_atom_site_fract_x
_atom_site_fract_y
_atom_site_fract_z
_atom_site_charge
Zn	Zn	0.71904 0.65640 0.68091 1.23600
Zn	Zn	0.61665 0.71750 0.73333 1.19900
N 	N 	0.93159 0.48878 0.75105 -0.21600
H 	H 	0.91250 0.46770 0.73570 0.12300
N 	N 	0.76990 0.68724 0.45863 -0.21700
H 	H 	0.73710 0.67270 0.45360 0.12900
O 	O 	0.80837 0.69005 0.75133 -0.49400
O 	O 	0.77390 0.62198 0.71739 -0.47700
O 	O 	0.15156 0.38986 0.81589 -0.48200
O 	O 	0.08576 0.35046 0.77479 -0.50900
O 	O 	0.80687 0.70321 0.64747 -0.41300
O 	O 	0.73446 0.65976 0.61990 -0.44700
O 	O 	0.79747 0.71150 0.29665 -0.45600
O 	O 	0.89244 0.72992 0.29341 -0.48000
O 	O 	0.69205 0.72106 0.70481 -1.17000
H 	H 	0.69210 0.74130 0.68940 0.53000
C 	C 	0.81033 0.64433 0.74091 0.38100
C 	C 	0.86072 0.61392 0.75705 -0.07800
C 	C 	0.90248 0.63655 0.78355 -0.01600
H 	H 	0.89760 0.66990 0.79200 0.03700
C 	C 	0.95055 0.60986 0.79706 -0.06500
H 	H 	0.97830 0.62530 0.81420 0.05000
C 	C 	0.95762 0.55970 0.78500 -0.01300
C 	C 	0.91539 0.53783 0.75906 0.08600
C 	C 	0.86706 0.56449 0.74459 -0.07400
H 	H 	0.83970 0.54930 0.72700 0.07000
C 	C 	0.00030 0.52188 0.79357 -0.00800
C 	C 	0.05067 0.52039 0.81725 -0.07000
H 	H 	0.06230 0.54830 0.83290 0.05400
C 	C 	0.08354 0.47688 0.81740 -0.00100
H 	H 	0.11780 0.47600 0.83320 0.04300
C 	C 	0.06722 0.43433 0.79470 -0.07700
C 	C 	0.01631 0.43509 0.77166 -0.07100
H 	H 	0.00430 0.40690 0.75650 0.06400
C 	C 	0.98312 0.47912 0.77153 0.08400
C 	C 	0.10481 0.38797 0.79526 0.38700
C 	C 	0.77990 0.68677 0.61590 0.32100
C 	C 	0.80129 0.69804 0.57274 -0.06000
C 	C 	0.85382 0.72417 0.56820 -0.00800
H 	H 	0.87420 0.73370 0.59240 0.02700
C 	C 	0.87659 0.73636 0.52930 -0.06800
H 	H 	0.91160 0.75390 0.52710 0.05100
C 	C 	0.84606 0.72179 0.49319 -0.00900
C 	C 	0.79226 0.69615 0.49822 0.09300
C 	C 	0.77036 0.68446 0.53756 -0.08200
H 	H 	0.73500 0.66750 0.54020 0.07500
C 	C 	0.85568 0.72742 0.44835 -0.01500
C 	C 	0.90014 0.74732 0.42440 -0.06000
H 	H 	0.93240 0.76180 0.43760 0.05000
C 	C 	0.89700 0.74591 0.38112 -0.01500
H 	H 	0.92720 0.75940 0.36500 0.04400
C 	C 	0.84799 0.72402 0.36098 -0.05600
C 	C 	0.80293 0.70449 0.38447 -0.08600
H 	H 	0.77000 0.69120 0.37140 0.07800
C 	C 	0.80769 0.70509 0.42816 0.09500
C 	C 	0.84531 0.72181 0.31382 0.35100
Zn	Zn	0.78096 0.84360 0.68091 1.23700
Zn	Zn	0.88335 0.78250 0.73333 1.20000
N 	N 	0.56841 0.01122 0.75105 -0.21500
H 	H 	0.58750 0.03230 0.73570 0.12400
N 	N 	0.73010 0.81276 0.45863 -0.21600
H 	H 	0.76290 0.82730 0.45360 0.13000
O 	O 	0.69163 0.80995 0.75133 -0.49300
O 	O 	0.72610 0.87802 0.71739 -0.47600
O 	O 	0.34844 0.11014 0.81589 -0.48100
O 	O 	0.41424 0.14954 0.77479 -0.50800
O 	O 	0.69313 0.79679 0.64747 -0.41200
O 	O 	0.76554 0.84024 0.61990 -0.44600
O 	O 	0.70253 0.78850 0.29665 -0.45500
O 	O 	0.60756 0.77008 0.29341 -0.47900
O 	O 	0.80795 0.77894 0.70481 -1.16900
H 	H 	0.80790 0.75870 0.68940 0.53100
C 	C 	0.68967 0.85567 0.74091 0.38100
C 	C 	0.63928 0.88608 0.75705 -0.07800
C 	C 	0.59752 0.86345 0.78355 -0.01500
H 	H 	0.60240 0.83010 0.79200 0.03700
C 	C 	0.54945 0.89014 0.79706 -0.06500
H 	H 	0.52170 0.87470 0.81420 0.05000
C 	C 	0.54238 0.94030 0.78500 -0.01300
C 	C 	0.58461 0.96217 0.75906 0.08600
C 	C 	0.63294 0.93551 0.74459 -0.07400
H 	H 	0.66030 0.95070 0.72700 0.07000
C 	C 	0.49970 0.97812 0.79357 -0.00800
C 	C 	0.44933 0.97961 0.81725 -0.07000
H 	H 	0.43770 0.95170 0.83290 0.05400
C 	C 	0.41646 0.02312 0.81740 -0.00100
H 	H 	0.38220 0.02400 0.83320 0.04300
C 	C 	0.43278 0.06567 0.79470 -0.07700
C 	C 	0.48369 0.06491 0.77166 -0.07100
H 	H 	0.49570 0.09310 0.75650 0.06400
C 	C 	0.51688 0.02088 0.77153 0.08400
C 	C 	0.39519 0.11203 0.79526 0.38700
C 	C 	0.72010 0.81323 0.61590 0.32100
C 	C 	0.69871 0.80196 0.57274 -0.06000
C 	C 	0.64618 0.77583 0.56820 -0.00800
H 	H 	0.62580 0.76630 0.59240 0.02700
C 	C 	0.62341 0.76364 0.52930 -0.06800
H 	H 	0.58840 0.74610 0.52710 0.05100
C 	C 	0.65394 0.77821 0.49319 -0.00900
C 	C 	0.70774 0.80385 0.49822 0.09300
C 	C 	0.72964 0.81554 0.53756 -0.08200
H 	H 	0.76500 0.83250 0.54020 0.07500
C 	C 	0.64432 0.77258 0.44835 -0.01500
C 	C 	0.59986 0.75268 0.42440 -0.06000
H 	H 	0.56760 0.73820 0.43760 0.05000
C 	C 	0.60300 0.75409 0.38112 -0.01500
H 	H 	0.57280 0.74060 0.36500 0.04400
C 	C 	0.65201 0.77598 0.36098 -0.05600
C 	C 	0.69707 0.79551 0.38447 -0.08600
H 	H 	0.73000 0.80880 0.37140 0.07800
C 	C 	0.69231 0.79491 0.42816 0.09500
C 	C 	0.65469 0.77819 0.31382 0.35100
Zn	Zn	0.28096 0.15640 0.81909 1.23700
Zn	Zn	0.38335 0.21750 0.76667 1.20000
N 	N 	0.06841 0.98878 0.74895 -0.21500
H 	H 	0.08750 0.96770 0.76430 0.12400
N 	N 	0.23010 0.18724 0.04137 -0.21600
H 	H 	0.26290 0.17270 0.04640 0.13000
O 	O 	0.19163 0.19005 0.74867 -0.49300
O 	O 	0.22610 0.12198 0.78261 -0.47600
O 	O 	0.84844 0.88986 0.68411 -0.48100
O 	O 	0.91424 0.85046 0.72521 -0.50800
O 	O 	0.19313 0.20321 0.85253 -0.41200
O 	O 	0.26554 0.15976 0.88010 -0.44600
O 	O 	0.20253 0.21150 0.20335 -0.45500
O 	O 	0.10756 0.22992 0.20659 -0.47900
O 	O 	0.30795 0.22106 0.79519 -1.16900
H 	H 	0.30790 0.24130 0.81060 0.53100
C 	C 	0.18967 0.14433 0.75909 0.38100
C 	C 	0.13928 0.11392 0.74295 -0.07800
C 	C 	0.09752 0.13655 0.71645 -0.01500
H 	H 	0.10240 0.16990 0.70800 0.03700
C 	C 	0.04945 0.10986 0.70294 -0.06500
H 	H 	0.02170 0.12530 0.68580 0.05000
C 	C 	0.04238 0.05970 0.71500 -0.01300
C 	C 	0.08461 0.03783 0.74094 0.08600
C 	C 	0.13294 0.06449 0.75541 -0.07400
H 	H 	0.16030 0.04930 0.77300 0.07000
C 	C 	0.99970 0.02188 0.70643 -0.00800
C 	C 	0.94933 0.02039 0.68275 -0.07000
H 	H 	0.93770 0.04830 0.66710 0.05400
C 	C 	0.91646 0.97688 0.68260 -0.00100
H 	H 	0.88220 0.97600 0.66680 0.04300
C 	C 	0.93278 0.93433 0.70530 -0.07700
C 	C 	0.98369 0.93509 0.72834 -0.07200
H 	H 	0.99570 0.90690 0.74350 0.06500
C 	C 	0.01688 0.97912 0.72847 0.08500
C 	C 	0.89519 0.88797 0.70474 0.38700
C 	C 	0.22010 0.18677 0.88410 0.32100
C 	C 	0.19871 0.19804 0.92726 -0.06000
C 	C 	0.14618 0.22417 0.93180 -0.00800
H 	H 	0.12580 0.23370 0.90760 0.02700
C 	C 	0.12341 0.23636 0.97070 -0.06800
H 	H 	0.08840 0.25390 0.97290 0.05100
C 	C 	0.15394 0.22179 0.00681 -0.00900
C 	C 	0.20774 0.19615 0.00178 0.09300
C 	C 	0.22964 0.18446 0.96244 -0.08200
H 	H 	0.26500 0.16750 0.95980 0.07500
C 	C 	0.14432 0.22742 0.05165 -0.01500
C 	C 	0.09986 0.24732 0.07560 -0.06000
H 	H 	0.06760 0.26180 0.06240 0.05000
C 	C 	0.10300 0.24591 0.11888 -0.01500
H 	H 	0.07280 0.25940 0.13500 0.04400
C 	C 	0.15201 0.22402 0.13902 -0.05600
C 	C 	0.19707 0.20449 0.11553 -0.08600
H 	H 	0.23000 0.19120 0.12860 0.07800
C 	C 	0.19231 0.20509 0.07184 0.09500
C 	C 	0.15469 0.22181 0.18618 0.35100
Zn	Zn	0.21904 0.34360 0.81909 1.23700
Zn	Zn	0.11665 0.28250 0.76667 1.20000
N 	N 	0.43159 0.51122 0.74895 -0.21500
H 	H 	0.41250 0.53230 0.76430 0.12400
N 	N 	0.26990 0.31276 0.04137 -0.21600
H 	H 	0.23710 0.32730 0.04640 0.13000
O 	O 	0.30837 0.30995 0.74867 -0.49300
O 	O 	0.27390 0.37802 0.78261 -0.47600
O 	O 	0.65156 0.61014 0.68411 -0.48100
O 	O 	0.58576 0.64954 0.72521 -0.50800
O 	O 	0.30687 0.29679 0.85253 -0.41200
O 	O 	0.23446 0.34024 0.88010 -0.44600
O 	O 	0.29747 0.28850 0.20335 -0.45500
O 	O 	0.39244 0.27008 0.20659 -0.47900
O 	O 	0.19205 0.27894 0.79519 -1.16900
H 	H 	0.19210 0.25870 0.81060 0.53100
C 	C 	0.31033 0.35567 0.75909 0.38100
C 	C 	0.36072 0.38608 0.74295 -0.07800
C 	C 	0.40248 0.36345 0.71645 -0.01500
H 	H 	0.39760 0.33010 0.70800 0.03700
C 	C 	0.45055 0.39014 0.70294 -0.06500
H 	H 	0.47830 0.37470 0.68580 0.05000
C 	C 	0.45762 0.44030 0.71500 -0.01300
C 	C 	0.41539 0.46217 0.74094 0.08600
C 	C 	0.36706 0.43551 0.75541 -0.07400
H 	H 	0.33970 0.45070 0.77300 0.07000
C 	C 	0.50030 0.47812 0.70643 -0.00800
C 	C 	0.55067 0.47961 0.68275 -0.07000
H 	H 	0.56230 0.45170 0.66710 0.05400
C 	C 	0.58354 0.52312 0.68260 -0.00100
H 	H 	0.61780 0.52400 0.66680 0.04300
C 	C 	0.56722 0.56567 0.70530 -0.07700
C 	C 	0.51631 0.56491 0.72834 -0.07100
H 	H 	0.50430 0.59310 0.74350 0.06400
C 	C 	0.48312 0.52088 0.72847 0.08400
C 	C 	0.60481 0.61203 0.70474 0.38700
C 	C 	0.27990 0.31323 0.88410 0.32100
C 	C 	0.30129 0.30196 0.92726 -0.06000
C 	C 	0.35382 0.27583 0.93180 -0.00800
H 	H 	0.37420 0.26630 0.90760 0.02700
C 	C 	0.37659 0.26364 0.97070 -0.06800
H 	H 	0.41160 0.24610 0.97290 0.05100
C 	C 	0.34606 0.27821 0.00681 -0.00900
C 	C 	0.29226 0.30385 0.00178 0.09300
C 	C 	0.27036 0.31554 0.96244 -0.08200
H 	H 	0.23500 0.33250 0.95980 0.07500
C 	C 	0.35568 0.27258 0.05165 -0.01500
C 	C 	0.40014 0.25268 0.07560 -0.06000
H 	H 	0.43240 0.23820 0.06240 0.05000
C 	C 	0.39700 0.25409 0.11888 -0.01500
H 	H 	0.42720 0.24060 0.13500 0.04400
C 	C 	0.34799 0.27598 0.13902 -0.05600
C 	C 	0.30293 0.29551 0.11553 -0.08600
H 	H 	0.27000 0.30880 0.12860 0.07800
C 	C 	0.30769 0.29491 0.07184 0.09500
C 	C 	0.34531 0.27819 0.18618 0.35100
Zn	Zn	0.28096 0.34360 0.31909 1.23700
Zn	Zn	0.38335 0.28250 0.26667 1.20000
N 	N 	0.06841 0.51122 0.24895 -0.21500
H 	H 	0.08750 0.53230 0.26430 0.12400
N 	N 	0.23010 0.31276 0.54137 -0.21600
H 	H 	0.26290 0.32730 0.54640 0.13000
O 	O 	0.19163 0.30995 0.24867 -0.49300
O 	O 	0.22610 0.37802 0.28261 -0.47600
O 	O 	0.84844 0.61014 0.18411 -0.48100
O 	O 	0.91424 0.64954 0.22521 -0.50800
O 	O 	0.19313 0.29679 0.35253 -0.41200
O 	O 	0.26554 0.34024 0.38010 -0.44600
O 	O 	0.20253 0.28850 0.70335 -0.45500
O 	O 	0.10756 0.27008 0.70659 -0.47900
O 	O 	0.30795 0.27894 0.29519 -1.16900
H 	H 	0.30790 0.25870 0.31060 0.53100
C 	C 	0.18967 0.35567 0.25909 0.38100
C 	C 	0.13928 0.38608 0.24295 -0.07800
C 	C 	0.09752 0.36345 0.21645 -0.01600
H 	H 	0.10240 0.33010 0.20800 0.03700
C 	C 	0.04945 0.39014 0.20294 -0.06500
H 	H 	0.02170 0.37470 0.18580 0.05000
C 	C 	0.04238 0.44030 0.21500 -0.01300
C 	C 	0.08461 0.46217 0.24094 0.08600
C 	C 	0.13294 0.43551 0.25541 -0.07400
H 	H 	0.16030 0.45070 0.27300 0.07000
C 	C 	0.99970 0.47812 0.20643 -0.00800
C 	C 	0.94933 0.47961 0.18275 -0.07000
H 	H 	0.93770 0.45170 0.16710 0.05400
C 	C 	0.91646 0.52312 0.18260 -0.00100
H 	H 	0.88220 0.52400 0.16680 0.04300
C 	C 	0.93278 0.56567 0.20530 -0.07700
C 	C 	0.98369 0.56491 0.22834 -0.07100
H 	H 	0.99570 0.59310 0.24350 0.06400
C 	C 	0.01688 0.52088 0.22847 0.08400
C 	C 	0.89519 0.61203 0.20474 0.38700
C 	C 	0.22010 0.31323 0.38410 0.32100
C 	C 	0.19871 0.30196 0.42726 -0.06000
C 	C 	0.14618 0.27583 0.43180 -0.00800
H 	H 	0.12580 0.26630 0.40760 0.02700
C 	C 	0.12341 0.26364 0.47070 -0.06800
H 	H 	0.08840 0.24610 0.47290 0.05100
C 	C 	0.15394 0.27821 0.50681 -0.00900
C 	C 	0.20774 0.30385 0.50178 0.09300
C 	C 	0.22964 0.31554 0.46244 -0.08200
H 	H 	0.26500 0.33250 0.45980 0.07500
C 	C 	0.14432 0.27258 0.55165 -0.01500
C 	C 	0.09986 0.25268 0.57560 -0.06000
H 	H 	0.06760 0.23820 0.56240 0.05000
C 	C 	0.10300 0.25409 0.61888 -0.01500
H 	H 	0.07280 0.24060 0.63500 0.04400
C 	C 	0.15201 0.27598 0.63902 -0.05600
C 	C 	0.19707 0.29551 0.61553 -0.08600
H 	H 	0.23000 0.30880 0.62860 0.07800
C 	C 	0.19231 0.29491 0.57184 0.09500
C 	C 	0.15469 0.27819 0.68618 0.35100
Zn	Zn	0.21904 0.15640 0.31909 1.23700
Zn	Zn	0.11665 0.21750 0.26667 1.20000
N 	N 	0.43159 0.98878 0.24895 -0.21500
H 	H 	0.41250 0.96770 0.26430 0.12400
N 	N 	0.26990 0.18724 0.54137 -0.21600
H 	H 	0.23710 0.17270 0.54640 0.13000
O 	O 	0.30837 0.19005 0.24867 -0.49300
O 	O 	0.27390 0.12198 0.28261 -0.47600
O 	O 	0.65156 0.88986 0.18411 -0.48100
O 	O 	0.58576 0.85046 0.22521 -0.50800
O 	O 	0.30687 0.20321 0.35253 -0.41200
O 	O 	0.23446 0.15976 0.38010 -0.44600
O 	O 	0.29747 0.21150 0.70335 -0.45500
O 	O 	0.39244 0.22992 0.70659 -0.47900
O 	O 	0.19205 0.22106 0.29519 -1.16900
H 	H 	0.19210 0.24130 0.31060 0.53100
C 	C 	0.31033 0.14433 0.25909 0.38100
C 	C 	0.36072 0.11392 0.24295 -0.07800
C 	C 	0.40248 0.13655 0.21645 -0.01500
H 	H 	0.39760 0.16990 0.20800 0.03700
C 	C 	0.45055 0.10986 0.20294 -0.06500
H 	H 	0.47830 0.12530 0.18580 0.05000
C 	C 	0.45762 0.05970 0.21500 -0.01300
C 	C 	0.41539 0.03783 0.24094 0.08600
C 	C 	0.36706 0.06449 0.25541 -0.07400
H 	H 	0.33970 0.04930 0.27300 0.07000
C 	C 	0.50030 0.02188 0.20643 -0.00800
C 	C 	0.55067 0.02039 0.18275 -0.07000
H 	H 	0.56230 0.04830 0.16710 0.05400
C 	C 	0.58354 0.97688 0.18260 -0.00100
H 	H 	0.61780 0.97600 0.16680 0.04300
C 	C 	0.56722 0.93433 0.20530 -0.07700
C 	C 	0.51631 0.93509 0.22834 -0.07100
H 	H 	0.50430 0.90690 0.24350 0.06400
C 	C 	0.48312 0.97912 0.22847 0.08400
C 	C 	0.60481 0.88797 0.20474 0.38700
C 	C 	0.27990 0.18677 0.38410 0.32100
C 	C 	0.30129 0.19804 0.42726 -0.06000
C 	C 	0.35382 0.22417 0.43180 -0.00800
H 	H 	0.37420 0.23370 0.40760 0.02700
C 	C 	0.37659 0.23636 0.47070 -0.06800
H 	H 	0.41160 0.25390 0.47290 0.05100
C 	C 	0.34606 0.22179 0.50681 -0.00900
C 	C 	0.29226 0.19615 0.50178 0.09300
C 	C 	0.27036 0.18446 0.46244 -0.08200
H 	H 	0.23500 0.16750 0.45980 0.07500
C 	C 	0.35568 0.22742 0.55165 -0.01500
C 	C 	0.40014 0.24732 0.57560 -0.06000
H 	H 	0.43240 0.26180 0.56240 0.05000
C 	C 	0.39700 0.24591 0.61888 -0.01500
H 	H 	0.42720 0.25940 0.63500 0.04400
C 	C 	0.34799 0.22402 0.63902 -0.05600
C 	C 	0.30293 0.20449 0.61553 -0.08600
H 	H 	0.27000 0.19120 0.62860 0.07800
C 	C 	0.30769 0.20509 0.57184 0.09500
C 	C 	0.34531 0.22181 0.68618 0.35100
Zn	Zn	0.71904 0.84360 0.18091 1.23700
Zn	Zn	0.61665 0.78250 0.23333 1.20000
N 	N 	0.93159 0.01122 0.25105 -0.21500
H 	H 	0.91250 0.03230 0.23570 0.12400
N 	N 	0.76990 0.81276 0.95863 -0.21600
H 	H 	0.73710 0.82730 0.95360 0.13000
O 	O 	0.80837 0.80995 0.25133 -0.49300
O 	O 	0.77390 0.87802 0.21739 -0.47600
O 	O 	0.15156 0.11014 0.31589 -0.48100
O 	O 	0.08576 0.14954 0.27479 -0.50800
O 	O 	0.80687 0.79679 0.14747 -0.41200
O 	O 	0.73446 0.84024 0.11990 -0.44600
O 	O 	0.79747 0.78850 0.79665 -0.45500
O 	O 	0.89244 0.77008 0.79341 -0.47900
O 	O 	0.69205 0.77894 0.20481 -1.16900
H 	H 	0.69210 0.75870 0.18940 0.53100
C 	C 	0.81033 0.85567 0.24091 0.38100
C 	C 	0.86072 0.88608 0.25705 -0.07800
C 	C 	0.90248 0.86345 0.28355 -0.01500
H 	H 	0.89760 0.83010 0.29200 0.03700
C 	C 	0.95055 0.89014 0.29706 -0.06500
H 	H 	0.97830 0.87470 0.31420 0.05000
C 	C 	0.95762 0.94030 0.28500 -0.01300
C 	C 	0.91539 0.96217 0.25906 0.08600
C 	C 	0.86706 0.93551 0.24459 -0.07400
H 	H 	0.83970 0.95070 0.22700 0.07000
C 	C 	0.00030 0.97812 0.29357 -0.00800
C 	C 	0.05067 0.97961 0.31725 -0.07000
H 	H 	0.06230 0.95170 0.33290 0.05400
C 	C 	0.08354 0.02312 0.31740 -0.00100
H 	H 	0.11780 0.02400 0.33320 0.04300
C 	C 	0.06722 0.06567 0.29470 -0.07700
C 	C 	0.01631 0.06491 0.27166 -0.07200
H 	H 	0.00430 0.09310 0.25650 0.06500
C 	C 	0.98312 0.02088 0.27153 0.08500
C 	C 	0.10481 0.11203 0.29526 0.38700
C 	C 	0.77990 0.81323 0.11590 0.32100
C 	C 	0.80129 0.80196 0.07274 -0.06000
C 	C 	0.85382 0.77583 0.06820 -0.00800
H 	H 	0.87420 0.76630 0.09240 0.02700
C 	C 	0.87659 0.76364 0.02930 -0.06800
H 	H 	0.91160 0.74610 0.02710 0.05100
C 	C 	0.84606 0.77821 0.99319 -0.00900
C 	C 	0.79226 0.80385 0.99822 0.09300
C 	C 	0.77036 0.81554 0.03756 -0.08200
H 	H 	0.73500 0.83250 0.04020 0.07500
C 	C 	0.85568 0.77258 0.94835 -0.01500
C 	C 	0.90014 0.75268 0.92440 -0.06000
H 	H 	0.93240 0.73820 0.93760 0.05000
C 	C 	0.89700 0.75409 0.88112 -0.01500
H 	H 	0.92720 0.74060 0.86500 0.04400
C 	C 	0.84799 0.77598 0.86098 -0.05600
C 	C 	0.80293 0.79551 0.88447 -0.08600
H 	H 	0.77000 0.80880 0.87140 0.07800
C 	C 	0.80769 0.79491 0.92816 0.09500
C 	C 	0.84531 0.77819 0.81382 0.35100
Zn	Zn	0.78096 0.65640 0.18091 1.23700
Zn	Zn	0.88335 0.71750 0.23333 1.20000
N 	N 	0.56841 0.48878 0.25105 -0.21500
H 	H 	0.58750 0.46770 0.23570 0.12400
N 	N 	0.73010 0.68724 0.95863 -0.21600
H 	H 	0.76290 0.67270 0.95360 0.13000
O 	O 	0.69163 0.69005 0.25133 -0.49300
O 	O 	0.72610 0.62198 0.21739 -0.47600
O 	O 	0.34844 0.38986 0.31589 -0.48100
O 	O 	0.41424 0.35046 0.27479 -0.50800
O 	O 	0.69313 0.70321 0.14747 -0.41200
O 	O 	0.76554 0.65976 0.11990 -0.44600
O 	O 	0.70253 0.71150 0.79665 -0.45500
O 	O 	0.60756 0.72992 0.79341 -0.47900
O 	O 	0.80795 0.72106 0.20481 -1.16900
H 	H 	0.80790 0.74130 0.18940 0.53100
C 	C 	0.68967 0.64433 0.24091 0.38100
C 	C 	0.63928 0.61392 0.25705 -0.07800
C 	C 	0.59752 0.63655 0.28355 -0.01500
H 	H 	0.60240 0.66990 0.29200 0.03700
C 	C 	0.54945 0.60986 0.29706 -0.06500
H 	H 	0.52170 0.62530 0.31420 0.05000
C 	C 	0.54238 0.55970 0.28500 -0.01300
C 	C 	0.58461 0.53783 0.25906 0.08600
C 	C 	0.63294 0.56449 0.24459 -0.07400
H 	H 	0.66030 0.54930 0.22700 0.07000
C 	C 	0.49970 0.52188 0.29357 -0.00800
C 	C 	0.44933 0.52039 0.31725 -0.07000
H 	H 	0.43770 0.54830 0.33290 0.05400
C 	C 	0.41646 0.47688 0.31740 -0.00100
H 	H 	0.38220 0.47600 0.33320 0.04300
C 	C 	0.43278 0.43433 0.29470 -0.07700
C 	C 	0.48369 0.43509 0.27166 -0.07100
H 	H 	0.49570 0.40690 0.25650 0.06400
C 	C 	0.51688 0.47912 0.27153 0.08400
C 	C 	0.39519 0.38797 0.29526 0.38700
C 	C 	0.72010 0.68677 0.11590 0.32100
C 	C 	0.69871 0.69804 0.07274 -0.06000
C 	C 	0.64618 0.72417 0.06820 -0.00800
H 	H 	0.62580 0.73370 0.09240 0.02700
C 	C 	0.62341 0.73636 0.02930 -0.06800
H 	H 	0.58840 0.75390 0.02710 0.05100
C 	C 	0.65394 0.72179 0.99319 -0.00900
C 	C 	0.70774 0.69615 0.99822 0.09300
C 	C 	0.72964 0.68446 0.03756 -0.08200
H 	H 	0.76500 0.66750 0.04020 0.07500
C 	C 	0.64432 0.72742 0.94835 -0.01500
C 	C 	0.59986 0.74732 0.92440 -0.06000
H 	H 	0.56760 0.76180 0.93760 0.05000
C 	C 	0.60300 0.74591 0.88112 -0.01500
H 	H 	0.57280 0.75940 0.86500 0.04400
C 	C 	0.65201 0.72402 0.86098 -0.05600
C 	C 	0.69707 0.70449 0.88447 -0.08600
H 	H 	0.73000 0.69120 0.87140 0.07800
C 	C 	0.69231 0.70509 0.92816 0.09500
C 	C 	0.65469 0.72181 0.81382 0.35100
Zn	Zn	0.75000 0.75000 0.75110 1.24000
Zn	Zn	0.25000 0.25000 0.74890 1.24000
Zn	Zn	0.25000 0.25000 0.24890 1.24000
Zn	Zn	0.75000 0.75000 0.25110 1.24000
