data_crystal

_cell_length_a 25.49360
_cell_length_b 11.67710
_cell_length_c 13.45330
_cell_angle_alpha 90.00000
_cell_angle_beta  93.63800
_cell_angle_gamma 90.00000

_symmetry_space_group_name_	'P 1'
_symmetry_space_group_name_H-M	'P 1'

loop_
_symmetry_equiv_pos_as_xyz
  x,y,z

loop_
_atom_site_label
_atom_site_type_symbol
_atom_site_fract_x
_atom_site_fract_y
_atom_site_fract_z
_atom_site_charge
U 	U 	0.30714 0.05074 0.05497 0.01200
P 	P 	0.33630 0.09996 0.32221 0.44600
P 	P 	0.24016 0.28532 0.16068 0.44400
P 	P 	0.44522 0.96979 0.12008 0.43000
O 	O 	0.34268 0.02830 0.41450 -0.19200
O 	O 	0.31649 0.03050 0.23300 -0.21200
O 	O 	0.39009 0.16010 0.30290 -0.42600
H 	H 	0.40650 0.12040 0.26530 0.31000
O 	O 	0.18739 0.29980 0.21570 -0.39600
H 	H 	0.18420 0.36680 0.23260 0.29200
O 	O 	0.24478 0.37770 0.08260 -0.18000
O 	O 	0.24051 0.16350 0.12400 -0.16500
O 	O 	0.47293 0.86350 0.16590 -0.18200
O 	O 	0.38694 0.95190 0.10680 -0.17800
O 	O 	0.45898 0.07440 0.18800 -0.40000
H 	H 	0.48590 0.06090 0.22260 0.20700
C 	C 	0.29420 0.22010 0.34100 -0.18400
H 	H 	0.25900 0.19200 0.34940 0.12400
H 	H 	0.30630 0.25830 0.40230 0.12100
C 	C 	0.29180 0.30880 0.25560 -0.21100
H 	H 	0.32510 0.30830 0.22480 0.14000
H 	H 	0.28730 0.38430 0.28390 0.12800
C 	C 	0.46990 0.99610 0.99910 -0.19700
H 	H 	0.45810 0.93490 0.95430 0.13000
H 	H 	0.45500 0.06710 0.97280 0.13100
U 	U 	0.80714 0.55074 0.05497 0.01100
P 	P 	0.83630 0.59996 0.32221 0.44700
P 	P 	0.74016 0.78532 0.16068 0.44400
P 	P 	0.94522 0.46979 0.12008 0.43400
O 	O 	0.84268 0.52830 0.41450 -0.19100
O 	O 	0.81649 0.53050 0.23300 -0.21200
O 	O 	0.89009 0.66010 0.30290 -0.42500
H 	H 	0.90650 0.62040 0.26530 0.31000
O 	O 	0.68739 0.79980 0.21570 -0.39500
H 	H 	0.68420 0.86680 0.23260 0.29300
O 	O 	0.74478 0.87770 0.08260 -0.18000
O 	O 	0.74051 0.66350 0.12400 -0.16500
O 	O 	0.97293 0.36350 0.16590 -0.18200
O 	O 	0.88694 0.45190 0.10680 -0.17700
O 	O 	0.95898 0.57440 0.18800 -0.40200
H 	H 	0.98590 0.56090 0.22260 0.20700
C 	C 	0.79420 0.72010 0.34100 -0.18400
H 	H 	0.75900 0.69200 0.34940 0.12400
H 	H 	0.80630 0.75830 0.40230 0.12100
C 	C 	0.79180 0.80880 0.25560 -0.21100
H 	H 	0.82510 0.80830 0.22480 0.13900
H 	H 	0.78730 0.88430 0.28390 0.12800
C 	C 	0.96990 0.49610 0.99910 -0.20200
H 	H 	0.95810 0.43490 0.95430 0.13000
H 	H 	0.95500 0.56710 0.97280 0.13400
U 	U 	0.69286 0.05074 0.44503 0.01200
P 	P 	0.66370 0.09996 0.17779 0.44700
P 	P 	0.75984 0.28532 0.33932 0.44500
P 	P 	0.55478 0.96979 0.37992 0.43400
O 	O 	0.65732 0.02830 0.08550 -0.19000
O 	O 	0.68351 0.03050 0.26700 -0.21100
O 	O 	0.60991 0.16010 0.19710 -0.42400
H 	H 	0.59350 0.12040 0.23470 0.31100
O 	O 	0.81261 0.29980 0.28430 -0.39500
H 	H 	0.81580 0.36680 0.26740 0.29300
O 	O 	0.75522 0.37770 0.41740 -0.17900
O 	O 	0.75949 0.16350 0.37600 -0.16400
O 	O 	0.52707 0.86350 0.33410 -0.18200
O 	O 	0.61306 0.95190 0.39320 -0.17700
O 	O 	0.54102 0.07440 0.31200 -0.40100
H 	H 	0.51410 0.06090 0.27740 0.20700
C 	C 	0.70580 0.22010 0.15900 -0.18400
H 	H 	0.74100 0.19200 0.15060 0.12400
H 	H 	0.69370 0.25830 0.09770 0.12100
C 	C 	0.70820 0.30880 0.24440 -0.21100
H 	H 	0.67490 0.30830 0.27520 0.14000
H 	H 	0.71270 0.38430 0.21610 0.12800
C 	C 	0.53010 0.99610 0.50090 -0.20100
H 	H 	0.54190 0.93490 0.54570 0.13000
H 	H 	0.54500 0.06710 0.52720 0.13400
U 	U 	0.19286 0.55074 0.44503 0.01200
P 	P 	0.16370 0.59996 0.17779 0.44700
P 	P 	0.25984 0.78532 0.33932 0.44400
P 	P 	0.05478 0.46979 0.37992 0.43400
O 	O 	0.15732 0.52830 0.08550 -0.19100
O 	O 	0.18351 0.53050 0.26700 -0.21200
O 	O 	0.10991 0.66010 0.19710 -0.42500
H 	H 	0.09350 0.62040 0.23470 0.31100
O 	O 	0.31261 0.79980 0.28430 -0.39500
H 	H 	0.31580 0.86680 0.26740 0.29300
O 	O 	0.25522 0.87770 0.41740 -0.17900
O 	O 	0.25949 0.66350 0.37600 -0.16400
O 	O 	0.02707 0.36350 0.33410 -0.18200
O 	O 	0.11306 0.45190 0.39320 -0.17700
O 	O 	0.04102 0.57440 0.31200 -0.40200
H 	H 	0.01410 0.56090 0.27740 0.20700
C 	C 	0.20580 0.72010 0.15900 -0.18400
H 	H 	0.24100 0.69200 0.15060 0.12300
H 	H 	0.19370 0.75830 0.09770 0.12100
C 	C 	0.20820 0.80880 0.24440 -0.21100
H 	H 	0.17490 0.80830 0.27520 0.14000
H 	H 	0.21270 0.88430 0.21610 0.12700
C 	C 	0.03010 0.49610 0.50090 -0.20200
H 	H 	0.04190 0.43490 0.54570 0.13000
H 	H 	0.04500 0.56710 0.52720 0.13400
U 	U 	0.69286 0.94926 0.94503 0.01300
P 	P 	0.66370 0.90004 0.67779 0.44700
P 	P 	0.75984 0.71468 0.83932 0.44500
P 	P 	0.55478 0.03021 0.87992 0.43100
O 	O 	0.65732 0.97170 0.58550 -0.19100
O 	O 	0.68351 0.96950 0.76700 -0.21100
O 	O 	0.60991 0.83990 0.69710 -0.42500
H 	H 	0.59350 0.87960 0.73470 0.31100
O 	O 	0.81261 0.70020 0.78430 -0.39500
H 	H 	0.81580 0.63320 0.76740 0.29300
O 	O 	0.75522 0.62230 0.91740 -0.17900
O 	O 	0.75949 0.83650 0.87600 -0.16400
O 	O 	0.52707 0.13650 0.83410 -0.18200
O 	O 	0.61306 0.04810 0.89320 -0.17800
O 	O 	0.54102 0.92560 0.81200 -0.40000
H 	H 	0.51410 0.93910 0.77740 0.20700
C 	C 	0.70580 0.77990 0.65900 -0.18400
H 	H 	0.74100 0.80800 0.65060 0.12400
H 	H 	0.69370 0.74170 0.59770 0.12100
C 	C 	0.70820 0.69120 0.74440 -0.21100
H 	H 	0.67490 0.69170 0.77520 0.14000
H 	H 	0.71270 0.61570 0.71610 0.12800
C 	C 	0.53010 0.00390 0.00090 -0.19700
H 	H 	0.54190 0.06510 0.04570 0.13000
H 	H 	0.54500 0.93290 0.02720 0.13100
U 	U 	0.19286 0.44926 0.94503 0.01100
P 	P 	0.16370 0.40004 0.67779 0.44700
P 	P 	0.25984 0.21468 0.83932 0.44400
P 	P 	0.05478 0.53021 0.87992 0.43400
O 	O 	0.15732 0.47170 0.58550 -0.19100
O 	O 	0.18351 0.46950 0.76700 -0.21200
O 	O 	0.10991 0.33990 0.69710 -0.42500
H 	H 	0.09350 0.37960 0.73470 0.31000
O 	O 	0.31261 0.20020 0.78430 -0.39500
H 	H 	0.31580 0.13320 0.76740 0.29300
O 	O 	0.25522 0.12230 0.91740 -0.18000
O 	O 	0.25949 0.33650 0.87600 -0.16500
O 	O 	0.02707 0.63650 0.83410 -0.18200
O 	O 	0.11306 0.54810 0.89320 -0.17700
O 	O 	0.04102 0.42560 0.81200 -0.40200
H 	H 	0.01410 0.43910 0.77740 0.20700
C 	C 	0.20580 0.27990 0.65900 -0.18400
H 	H 	0.24100 0.30800 0.65060 0.12400
H 	H 	0.19370 0.24170 0.59770 0.12100
C 	C 	0.20820 0.19120 0.74440 -0.21100
H 	H 	0.17490 0.19170 0.77520 0.13900
H 	H 	0.21270 0.11570 0.71610 0.12800
C 	C 	0.03010 0.50390 0.00090 -0.20200
H 	H 	0.04190 0.56510 0.04570 0.13000
H 	H 	0.04500 0.43290 0.02720 0.13400
U 	U 	0.30714 0.94926 0.55497 0.01200
P 	P 	0.33630 0.90004 0.82221 0.44700
P 	P 	0.24016 0.71468 0.66068 0.44500
P 	P 	0.44522 0.03021 0.62008 0.43400
O 	O 	0.34268 0.97170 0.91450 -0.19000
O 	O 	0.31649 0.96950 0.73300 -0.21100
O 	O 	0.39009 0.83990 0.80290 -0.42400
H 	H 	0.40650 0.87960 0.76530 0.31100
O 	O 	0.18739 0.70020 0.71570 -0.39500
H 	H 	0.18420 0.63320 0.73260 0.29300
O 	O 	0.24478 0.62230 0.58260 -0.17900
O 	O 	0.24051 0.83650 0.62400 -0.16400
O 	O 	0.47293 0.13650 0.66590 -0.18200
O 	O 	0.38694 0.04810 0.60680 -0.17700
O 	O 	0.45898 0.92560 0.68800 -0.40100
H 	H 	0.48590 0.93910 0.72260 0.20700
C 	C 	0.29420 0.77990 0.84100 -0.18400
H 	H 	0.25900 0.80800 0.84940 0.12400
H 	H 	0.30630 0.74170 0.90230 0.12100
C 	C 	0.29180 0.69120 0.75560 -0.21100
H 	H 	0.32510 0.69170 0.72480 0.14000
H 	H 	0.28730 0.61570 0.78390 0.12800
C 	C 	0.46990 0.00390 0.49910 -0.20100
H 	H 	0.45810 0.06510 0.45430 0.13000
H 	H 	0.45500 0.93290 0.47280 0.13400
U 	U 	0.80714 0.44926 0.55497 0.01200
P 	P 	0.83630 0.40004 0.82221 0.44700
P 	P 	0.74016 0.21468 0.66068 0.44400
P 	P 	0.94522 0.53021 0.62008 0.43400
O 	O 	0.84268 0.47170 0.91450 -0.19100
O 	O 	0.81649 0.46950 0.73300 -0.21200
O 	O 	0.89009 0.33990 0.80290 -0.42500
H 	H 	0.90650 0.37960 0.76530 0.31100
O 	O 	0.68739 0.20020 0.71570 -0.39500
H 	H 	0.68420 0.13320 0.73260 0.29300
O 	O 	0.74478 0.12230 0.58260 -0.17900
O 	O 	0.74051 0.33650 0.62400 -0.16400
O 	O 	0.97293 0.63650 0.66590 -0.18200
O 	O 	0.88694 0.54810 0.60680 -0.17700
O 	O 	0.95898 0.42560 0.68800 -0.40200
H 	H 	0.98590 0.43910 0.72260 0.20700
C 	C 	0.79420 0.27990 0.84100 -0.18400
H 	H 	0.75900 0.30800 0.84940 0.12300
H 	H 	0.80630 0.24170 0.90230 0.12100
C 	C 	0.79180 0.19120 0.75560 -0.21100
H 	H 	0.82510 0.19170 0.72480 0.14000
H 	H 	0.78730 0.11570 0.78390 0.12700
C 	C 	0.96990 0.50390 0.49910 -0.20200
H 	H 	0.95810 0.56510 0.45430 0.13000
H 	H 	0.95500 0.43290 0.47280 0.13400
