data_crystal

_cell_length_a 13.19410
_cell_length_b 14.98970
_cell_length_c 27.87460
_cell_angle_alpha 90.00000
_cell_angle_beta  90.00000
_cell_angle_gamma 90.00000

_symmetry_space_group_name_	'P 1'
_symmetry_space_group_name_H-M	'P 1'

loop_
_symmetry_equiv_pos_as_xyz
  x,y,z

loop_
_atom_site_label
_atom_site_type_symbol
_atom_site_fract_x
_atom_site_fract_y
_atom_site_fract_z
_atom_site_charge
Na	Na	0.49374 0.67064 0.31167 0.58700
Na	Na	0.00737 0.66425 0.32647 0.58000
C 	C 	0.53950 0.94030 0.43666 -0.01300
H 	H 	0.55880 0.99670 0.45100 0.03500
H 	H 	0.49380 0.91050 0.45870 0.04200
C 	C 	0.48260 0.95920 0.39012 0.06100
C 	C 	0.44890 0.87210 0.36642 0.00000
H 	H 	0.40130 0.84230 0.38760 0.02700
H 	H 	0.41320 0.88640 0.33700 0.03100
C 	C 	0.54790 0.01430 0.35580 -0.00100
H 	H 	0.50880 0.02640 0.32710 0.03700
H 	H 	0.56280 0.07120 0.37090 0.03300
C 	C 	0.38760 0.01160 0.40130 -0.53400
H 	H 	0.40540 0.06530 0.41820 0.17700
H 	H 	0.34350 0.97620 0.42100 0.17500
H 	H 	0.35360 0.02670 0.37200 0.18300
C 	C 	0.63390 0.57440 0.39616 0.03400
H 	H 	0.63460 0.52550 0.37340 0.01100
H 	H 	0.57340 0.56840 0.41570 0.00700
C 	C 	0.72610 0.56720 0.42810 0.00300
C 	C 	0.82410 0.56920 0.40007 0.04500
H 	H 	0.88000 0.56250 0.42240 0.01500
H 	H 	0.82530 0.51820 0.37870 0.00700
C 	C 	0.72280 0.64160 0.46695 0.03000
H 	H 	0.66200 0.63360 0.48610 0.01700
H 	H 	0.78050 0.63410 0.48810 0.00800
C 	C 	0.72170 0.47570 0.45420 -0.47200
H 	H 	0.65730 0.46930 0.46980 0.15800
H 	H 	0.77490 0.47260 0.47760 0.15700
H 	H 	0.73020 0.42860 0.43120 0.16300
C 	C 	0.95020 0.01200 0.35784 0.06200
C 	C 	0.00400 0.95660 0.39579 -0.01000
C 	C 	0.04220 0.86790 0.37619 0.05800
C 	C 	0.93730 0.94800 0.44180 0.05700
C 	C 	0.09910 0.00970 0.41090 -0.45000
H 	H 	0.13510 0.97730 0.43520 0.14900
H 	H 	0.07900 0.06680 0.42330 0.15000
H 	H 	0.14230 0.01810 0.38360 0.15300
C 	C 	0.76400 0.86400 0.21626 0.00900
H 	H 	0.82310 0.88920 0.20070 0.02600
H 	H 	0.70450 0.88810 0.20040 0.02400
C 	C 	0.76530 0.76320 0.20890 0.03300
C 	C 	0.85830 0.72170 0.23228 0.01300
H 	H 	0.85790 0.65800 0.22600 0.02100
H 	H 	0.91850 0.74640 0.21740 0.01200
C 	C 	0.66740 0.72280 0.22742 0.01000
H 	H 	0.61110 0.75170 0.21130 0.02900
H 	H 	0.66600 0.66020 0.21860 0.02700
C 	C 	0.77050 0.74250 0.15514 -0.49500
H 	H 	0.82610 0.77450 0.14100 0.16300
H 	H 	0.70840 0.76030 0.14000 0.16200
H 	H 	0.78050 0.67960 0.15060 0.16300
O 	O 	0.07120 0.60740 0.39854 -0.34300
H 	H 	0.09400 0.64150 0.37820 0.14500
C 	C 	0.13570 0.53060 0.40240 -0.01900
H 	H 	0.13010 0.49590 0.37310 0.02800
H 	H 	0.11200 0.49370 0.42870 0.04900
C 	C 	0.24630 0.55360 0.41071 0.12800
C 	C 	0.30920 0.46890 0.40930 -0.62400
H 	H 	0.28730 0.42940 0.43440 0.21300
H 	H 	0.37940 0.48350 0.41400 0.21600
H 	H 	0.30070 0.44020 0.37880 0.21100
C 	C 	0.27980 0.61660 0.37186 0.01800
H 	H 	0.26590 0.58940 0.34100 0.03600
H 	H 	0.23980 0.67070 0.37400 0.03500
O 	O 	0.38330 0.63960 0.37373 -0.44200
H 	H 	0.39930 0.65050 0.40150 0.24500
C 	C 	0.25830 0.59580 0.46046 0.00800
H 	H 	0.23230 0.55510 0.48460 0.04300
H 	H 	0.32970 0.60550 0.46690 0.02700
O 	O 	0.41560 0.68170 0.23805 -0.43300
H 	H 	0.38300 0.63550 0.24110 0.25500
C 	C 	0.36010 0.74310 0.20905 0.01700
H 	H 	0.37310 0.73000 0.17550 0.03500
H 	H 	0.38430 0.80300 0.21540 0.04100
C 	C 	0.24670 0.74010 0.21779 0.10800
C 	C 	0.20600 0.64840 0.20738 0.01300
H 	H 	0.13280 0.64900 0.21030 0.04400
H 	H 	0.22280 0.63200 0.17470 0.02700
O 	O 	0.12180 0.75320 0.28350 -0.43000
H 	H 	0.08920 0.79580 0.27330 0.23300
C 	C 	0.22670 0.76380 0.27084 0.02600
H 	H 	0.26780 0.72580 0.29120 0.03800
H 	H 	0.24690 0.82520 0.27660 0.03300
O 	O 	0.20690 0.67680 0.46371 -0.34100
H 	H 	0.23400 0.70820 0.48410 0.22600
O 	O 	0.24640 0.58430 0.23908 -0.36600
H 	H 	0.26840 0.54200 0.22370 0.22500
C 	C 	0.19670 0.80820 0.18380 -0.61300
H 	H 	0.22020 0.86710 0.19150 0.22100
H 	H 	0.12440 0.80570 0.18740 0.21200
H 	H 	0.21430 0.79430 0.15120 0.21000
N 	N 	0.74550 0.55240 0.29384 -0.21900
N 	N 	0.74700 0.52420 0.25434 -0.03800
N 	N 	0.74810 0.49440 0.21608 -0.09200
N 	N 	0.99850 0.52810 0.28430 -0.12900
N 	N 	0.00670 0.39720 0.23951 -0.20400
N 	N 	0.00260 0.46410 0.26236 -0.03100
N 	N 	0.46470 0.38880 0.24011 -0.22400
N 	N 	0.46950 0.45440 0.26452 -0.03600
N 	N 	0.48250 0.51590 0.28810 -0.12200
N 	N 	0.99310 0.77670 0.54703 -0.19200
N 	N 	0.97600 0.75270 0.50755 -0.03600
N 	N 	0.95960 0.72750 0.46808 -0.19600
O 	O 	0.26190 0.31590 0.14584 -0.90100
O 	O 	0.62850 0.88660 0.43124 -0.51600
O 	O 	0.53000 0.81090 0.35528 -0.56100
O 	O 	0.64150 0.97340 0.34206 -0.54300
O 	O 	0.62890 0.65790 0.37013 -0.58300
O 	O 	0.84070 0.64760 0.37249 -0.58700
O 	O 	0.72370 0.73040 0.44885 -0.53900
O 	O 	0.85860 0.96890 0.34070 -0.53600
O 	O 	0.96000 0.81190 0.35846 -0.58600
O 	O 	0.84370 0.89930 0.43278 -0.55500
O 	O 	0.76310 0.89250 0.26536 -0.52000
O 	O 	0.86460 0.73550 0.28358 -0.57800
O 	O 	0.65130 0.72950 0.27860 -0.57700
Mn	Mn	0.36068 0.35716 0.19358 1.30300
Mn	Mn	0.12565 0.35683 0.19240 1.31200
Mn	Mn	0.74682 0.67626 0.32195 1.29900
Mn	Mn	0.85877 0.76663 0.41230 1.27000
Mn	Mn	0.61772 0.76826 0.40577 1.31400
Mn	Mn	0.74360 0.94881 0.39095 1.30400
N 	N 	0.74350 0.07000 0.42150 -0.22500
N 	N 	0.71970 0.13070 0.42350 -0.01000
N 	N 	0.68550 0.21040 0.41940 -0.09800
N 	N 	0.73590 0.09870 0.44760 0.02500
N 	N 	0.71570 0.13040 0.48820 -0.10400
Na	Na	0.00626 0.32936 0.81167 0.58600
Na	Na	0.49263 0.33575 0.82647 0.57900
C 	C 	0.96050 0.05970 0.93666 -0.01600
H 	H 	0.94120 0.00330 0.95100 0.03400
H 	H 	0.00620 0.08950 0.95870 0.04100
C 	C 	0.01740 0.04080 0.89012 0.06100
C 	C 	0.05110 0.12790 0.86642 -0.00100
H 	H 	0.09870 0.15770 0.88760 0.02600
H 	H 	0.08680 0.11360 0.83700 0.03000
C 	C 	0.95210 0.98570 0.85580 -0.00100
H 	H 	0.99120 0.97360 0.82710 0.03600
H 	H 	0.93720 0.92880 0.87090 0.03200
C 	C 	0.11240 0.98840 0.90130 -0.53700
H 	H 	0.09460 0.93470 0.91820 0.17700
H 	H 	0.15650 0.02380 0.92100 0.17500
H 	H 	0.14640 0.97330 0.87200 0.18300
C 	C 	0.86610 0.42560 0.89616 0.03300
H 	H 	0.86540 0.47450 0.87340 0.01000
H 	H 	0.92660 0.43160 0.91570 0.00600
C 	C 	0.77390 0.43280 0.92810 0.00200
C 	C 	0.67590 0.43080 0.90007 0.04400
H 	H 	0.62000 0.43750 0.92240 0.01400
H 	H 	0.67470 0.48180 0.87870 0.00700
C 	C 	0.77720 0.35840 0.96695 0.03000
H 	H 	0.83800 0.36640 0.98610 0.01600
H 	H 	0.71950 0.36590 0.98810 0.00800
C 	C 	0.77830 0.52430 0.95420 -0.47200
H 	H 	0.84270 0.53070 0.96980 0.15800
H 	H 	0.72510 0.52740 0.97760 0.15700
H 	H 	0.76980 0.57140 0.93120 0.16300
C 	C 	0.54980 0.98800 0.85784 0.06200
C 	C 	0.49600 0.04340 0.89579 -0.00900
C 	C 	0.45780 0.13210 0.87619 0.05900
C 	C 	0.56270 0.05200 0.94180 0.05500
C 	C 	0.40090 0.99030 0.91090 -0.45200
H 	H 	0.36490 0.02270 0.93520 0.15000
H 	H 	0.42100 0.93320 0.92330 0.15100
H 	H 	0.35770 0.98190 0.88360 0.15400
C 	C 	0.73600 0.13600 0.71626 0.00900
H 	H 	0.67690 0.11080 0.70070 0.02600
H 	H 	0.79550 0.11190 0.70040 0.02400
C 	C 	0.73470 0.23680 0.70890 0.03300
C 	C 	0.64170 0.27830 0.73228 0.01300
H 	H 	0.64210 0.34200 0.72600 0.02100
H 	H 	0.58150 0.25360 0.71740 0.01200
C 	C 	0.83260 0.27720 0.72742 0.01000
H 	H 	0.88890 0.24830 0.71130 0.02900
H 	H 	0.83400 0.33980 0.71860 0.02700
C 	C 	0.72950 0.25750 0.65514 -0.49500
H 	H 	0.67390 0.22550 0.64100 0.16300
H 	H 	0.79160 0.23970 0.64000 0.16300
H 	H 	0.71950 0.32040 0.65060 0.16300
O 	O 	0.42880 0.39260 0.89854 -0.34300
H 	H 	0.40600 0.35850 0.87820 0.14500
C 	C 	0.36430 0.46940 0.90240 -0.01900
H 	H 	0.36990 0.50410 0.87310 0.02800
H 	H 	0.38800 0.50630 0.92870 0.04900
C 	C 	0.25370 0.44640 0.91071 0.12800
C 	C 	0.19080 0.53110 0.90930 -0.62400
H 	H 	0.21270 0.57060 0.93440 0.21300
H 	H 	0.12060 0.51650 0.91400 0.21500
H 	H 	0.19930 0.55980 0.87880 0.21100
C 	C 	0.22020 0.38340 0.87186 0.01800
H 	H 	0.23410 0.41060 0.84100 0.03600
H 	H 	0.26020 0.32930 0.87400 0.03500
O 	O 	0.11670 0.36040 0.87373 -0.44200
H 	H 	0.10070 0.34950 0.90150 0.24500
C 	C 	0.24170 0.40420 0.96046 0.00800
H 	H 	0.26770 0.44490 0.98460 0.04300
H 	H 	0.17030 0.39450 0.96690 0.02700
O 	O 	0.08440 0.31830 0.73805 -0.43300
H 	H 	0.11700 0.36450 0.74110 0.25400
C 	C 	0.13990 0.25690 0.70905 0.01600
H 	H 	0.12690 0.27000 0.67550 0.03600
H 	H 	0.11570 0.19700 0.71540 0.04100
C 	C 	0.25330 0.25990 0.71779 0.10900
C 	C 	0.29400 0.35160 0.70738 0.01200
H 	H 	0.36720 0.35100 0.71030 0.04400
H 	H 	0.27720 0.36800 0.67470 0.02700
O 	O 	0.37820 0.24680 0.78350 -0.43000
H 	H 	0.41080 0.20420 0.77330 0.23300
C 	C 	0.27330 0.23620 0.77084 0.02600
H 	H 	0.23220 0.27420 0.79120 0.03800
H 	H 	0.25310 0.17480 0.77660 0.03300
O 	O 	0.29310 0.32320 0.96371 -0.34100
H 	H 	0.26600 0.29180 0.98410 0.22600
O 	O 	0.25360 0.41570 0.73908 -0.36600
H 	H 	0.23160 0.45800 0.72370 0.22400
C 	C 	0.30330 0.19180 0.68380 -0.61400
H 	H 	0.27980 0.13290 0.69150 0.22200
H 	H 	0.37560 0.19430 0.68740 0.21300
H 	H 	0.28570 0.20570 0.65120 0.21100
N 	N 	0.75450 0.44760 0.79384 -0.21900
N 	N 	0.75300 0.47580 0.75434 -0.03800
N 	N 	0.75190 0.50560 0.71608 -0.09200
N 	N 	0.50150 0.47190 0.78430 -0.12900
N 	N 	0.49330 0.60280 0.73951 -0.20400
N 	N 	0.49740 0.53590 0.76236 -0.03100
N 	N 	0.03530 0.61120 0.74011 -0.22400
N 	N 	0.03050 0.54560 0.76452 -0.03600
N 	N 	0.01750 0.48410 0.78810 -0.12200
N 	N 	0.50690 0.22330 0.04703 -0.19200
N 	N 	0.52400 0.24730 0.00755 -0.03600
N 	N 	0.54040 0.27250 0.96808 -0.19600
O 	O 	0.23810 0.68410 0.64584 -0.90100
O 	O 	0.87150 0.11340 0.93124 -0.51600
O 	O 	0.97000 0.18910 0.85528 -0.56100
O 	O 	0.85850 0.02660 0.84206 -0.54400
O 	O 	0.87110 0.34210 0.87013 -0.58300
O 	O 	0.65930 0.35240 0.87249 -0.58700
O 	O 	0.77630 0.26960 0.94885 -0.53900
O 	O 	0.64140 0.03110 0.84070 -0.53700
O 	O 	0.54000 0.18810 0.85846 -0.58700
O 	O 	0.65630 0.10070 0.93278 -0.55500
O 	O 	0.73690 0.10750 0.76536 -0.52000
O 	O 	0.63540 0.26450 0.78358 -0.57800
O 	O 	0.84870 0.27050 0.77860 -0.57700
Mn	Mn	0.13932 0.64284 0.69358 1.30300
Mn	Mn	0.37435 0.64317 0.69240 1.31200
Mn	Mn	0.75318 0.32374 0.82195 1.29900
Mn	Mn	0.64123 0.23337 0.91230 1.27000
Mn	Mn	0.88228 0.23174 0.90577 1.31400
Mn	Mn	0.75640 0.05119 0.89095 1.30400
N 	N 	0.75650 0.93000 0.92150 -0.22400
N 	N 	0.78030 0.86930 0.92350 -0.01100
N 	N 	0.81450 0.78960 0.91940 -0.09800
N 	N 	0.76410 0.90130 0.94760 0.02500
N 	N 	0.78430 0.86960 0.98820 -0.10400
Na	Na	0.50626 0.17064 0.18833 0.58600
Na	Na	0.99263 0.16425 0.17353 0.57900
C 	C 	0.46050 0.44030 0.06334 -0.01500
H 	H 	0.44120 0.49670 0.04900 0.03500
H 	H 	0.50620 0.41050 0.04130 0.04100
C 	C 	0.51740 0.45920 0.10988 0.06200
C 	C 	0.55110 0.37210 0.13358 -0.00200
H 	H 	0.59870 0.34230 0.11240 0.02600
H 	H 	0.58680 0.38640 0.16300 0.03000
C 	C 	0.45210 0.51430 0.14420 -0.00400
H 	H 	0.49120 0.52640 0.17290 0.03600
H 	H 	0.43720 0.57120 0.12910 0.03300
C 	C 	0.61240 0.51160 0.09870 -0.53900
H 	H 	0.59460 0.56530 0.08180 0.17800
H 	H 	0.65650 0.47620 0.07900 0.17600
H 	H 	0.64640 0.52670 0.12800 0.18300
C 	C 	0.36610 0.07440 0.10384 0.03300
H 	H 	0.36540 0.02550 0.12660 0.01000
H 	H 	0.42660 0.06840 0.08430 0.00600
C 	C 	0.27390 0.06720 0.07190 0.00300
C 	C 	0.17590 0.06920 0.09993 0.04400
H 	H 	0.12000 0.06250 0.07760 0.01500
H 	H 	0.17470 0.01820 0.12130 0.00700
C 	C 	0.27720 0.14160 0.03305 0.02900
H 	H 	0.33800 0.13360 0.01390 0.01700
H 	H 	0.21950 0.13410 0.01190 0.00800
C 	C 	0.27830 0.97570 0.04580 -0.47400
H 	H 	0.34270 0.96930 0.03020 0.15800
H 	H 	0.22510 0.97260 0.02240 0.15700
H 	H 	0.26980 0.92860 0.06880 0.16300
C 	C 	0.04980 0.51200 0.14216 0.06100
C 	C 	0.99600 0.45660 0.10421 -0.00800
C 	C 	0.95780 0.36790 0.12381 0.05800
C 	C 	0.06270 0.44800 0.05820 0.05600
C 	C 	0.90090 0.50970 0.08910 -0.45600
H 	H 	0.86490 0.47730 0.06480 0.15200
H 	H 	0.92100 0.56680 0.07670 0.15200
H 	H 	0.85770 0.51810 0.11640 0.15500
C 	C 	0.23600 0.36400 0.28374 0.00900
H 	H 	0.17690 0.38920 0.29930 0.02600
H 	H 	0.29550 0.38810 0.29960 0.02400
C 	C 	0.23470 0.26320 0.29110 0.03300
C 	C 	0.14170 0.22170 0.26772 0.01200
H 	H 	0.14210 0.15800 0.27400 0.02200
H 	H 	0.08150 0.24640 0.28260 0.01200
C 	C 	0.33260 0.22280 0.27258 0.01000
H 	H 	0.38890 0.25170 0.28870 0.02900
H 	H 	0.33400 0.16020 0.28140 0.02800
C 	C 	0.22950 0.24250 0.34486 -0.49600
H 	H 	0.17390 0.27450 0.35900 0.16300
H 	H 	0.29160 0.26030 0.36000 0.16300
H 	H 	0.21950 0.17960 0.34940 0.16400
O 	O 	0.92880 0.10740 0.10146 -0.34300
H 	H 	0.90600 0.14150 0.12180 0.14500
C 	C 	0.86430 0.03060 0.09760 -0.01900
H 	H 	0.86990 0.99590 0.12690 0.02800
H 	H 	0.88800 0.99370 0.07130 0.04900
C 	C 	0.75370 0.05360 0.08929 0.12800
C 	C 	0.69080 0.96890 0.09070 -0.62400
H 	H 	0.71270 0.92940 0.06560 0.21300
H 	H 	0.62060 0.98350 0.08600 0.21500
H 	H 	0.69930 0.94020 0.12120 0.21100
C 	C 	0.72020 0.11660 0.12814 0.01800
H 	H 	0.73410 0.08940 0.15900 0.03600
H 	H 	0.76020 0.17070 0.12600 0.03500
O 	O 	0.61670 0.13960 0.12627 -0.44200
H 	H 	0.60070 0.15050 0.09850 0.24500
C 	C 	0.74170 0.09580 0.03954 0.00800
H 	H 	0.76770 0.05510 0.01540 0.04300
H 	H 	0.67030 0.10550 0.03310 0.02700
O 	O 	0.58440 0.18170 0.26195 -0.43300
H 	H 	0.61700 0.13550 0.25890 0.25500
C 	C 	0.63990 0.24310 0.29095 0.01700
H 	H 	0.62690 0.23000 0.32450 0.03500
H 	H 	0.61570 0.30300 0.28460 0.04100
C 	C 	0.75330 0.24010 0.28221 0.10800
C 	C 	0.79400 0.14840 0.29262 0.01300
H 	H 	0.86720 0.14900 0.28970 0.04400
H 	H 	0.77720 0.13200 0.32530 0.02700
O 	O 	0.87820 0.25320 0.21650 -0.43000
H 	H 	0.91080 0.29580 0.22670 0.23300
C 	C 	0.77330 0.26380 0.22916 0.02600
H 	H 	0.73220 0.22580 0.20880 0.03800
H 	H 	0.75310 0.32520 0.22340 0.03300
O 	O 	0.79310 0.17680 0.03629 -0.34100
H 	H 	0.76600 0.20820 0.01590 0.22600
O 	O 	0.75360 0.08430 0.26092 -0.36600
H 	H 	0.73160 0.04200 0.27630 0.22500
C 	C 	0.80330 0.30820 0.31620 -0.61300
H 	H 	0.77980 0.36710 0.30850 0.22200
H 	H 	0.87560 0.30570 0.31260 0.21300
H 	H 	0.78570 0.29430 0.34880 0.21100
N 	N 	0.25450 0.05240 0.20616 -0.21900
N 	N 	0.25300 0.02420 0.24566 -0.03700
N 	N 	0.25190 0.99440 0.28392 -0.09300
N 	N 	0.00150 0.02810 0.21570 -0.12800
N 	N 	0.99330 0.89720 0.26049 -0.20400
N 	N 	0.99740 0.96410 0.23764 -0.03200
N 	N 	0.53530 0.88880 0.25989 -0.22400
N 	N 	0.53050 0.95440 0.23548 -0.03700
N 	N 	0.51750 0.01590 0.21190 -0.12100
N 	N 	0.00690 0.27670 0.95297 -0.19200
N 	N 	0.02400 0.25270 0.99245 -0.03600
N 	N 	0.04040 0.22750 0.03192 -0.19500
O 	O 	0.73810 0.81590 0.35416 -0.90100
O 	O 	0.37150 0.38660 0.06876 -0.51600
O 	O 	0.47000 0.31090 0.14472 -0.56100
O 	O 	0.35850 0.47340 0.15794 -0.54200
O 	O 	0.37110 0.15790 0.12987 -0.58300
O 	O 	0.15930 0.14760 0.12751 -0.58600
O 	O 	0.27630 0.23040 0.05115 -0.53800
O 	O 	0.14140 0.46890 0.15930 -0.53600
O 	O 	0.04000 0.31190 0.14154 -0.58600
O 	O 	0.15630 0.39930 0.06722 -0.55500
O 	O 	0.23690 0.39250 0.23464 -0.52000
O 	O 	0.13540 0.23550 0.21642 -0.57700
O 	O 	0.34870 0.22950 0.22140 -0.57700
Mn	Mn	0.63932 0.85716 0.30642 1.30300
Mn	Mn	0.87435 0.85683 0.30760 1.31200
Mn	Mn	0.25318 0.17626 0.17805 1.29900
Mn	Mn	0.14123 0.26663 0.08770 1.27000
Mn	Mn	0.38228 0.26826 0.09423 1.31400
Mn	Mn	0.25640 0.44881 0.10905 1.30400
N 	N 	0.25650 0.57000 0.07850 -0.22500
N 	N 	0.28030 0.63070 0.07650 -0.01100
N 	N 	0.31450 0.71040 0.08060 -0.09800
N 	N 	0.26410 0.59870 0.05240 0.02500
N 	N 	0.28430 0.63040 0.01180 -0.10400
Na	Na	0.99374 0.82936 0.68833 0.58600
Na	Na	0.50737 0.83575 0.67353 0.57900
C 	C 	0.03950 0.55970 0.56334 -0.01600
H 	H 	0.05880 0.50330 0.54900 0.03500
H 	H 	0.99380 0.58950 0.54130 0.04200
C 	C 	0.98260 0.54080 0.60988 0.06300
C 	C 	0.94890 0.62790 0.63358 -0.00200
H 	H 	0.90130 0.65770 0.61240 0.02600
H 	H 	0.91320 0.61360 0.66300 0.03000
C 	C 	0.04790 0.48570 0.64420 -0.00400
H 	H 	0.00880 0.47360 0.67290 0.03600
H 	H 	0.06280 0.42880 0.62910 0.03300
C 	C 	0.88760 0.48840 0.59870 -0.54000
H 	H 	0.90540 0.43470 0.58180 0.17800
H 	H 	0.84350 0.52380 0.57900 0.17600
H 	H 	0.85360 0.47330 0.62800 0.18400
C 	C 	0.13390 0.92560 0.60384 0.03400
H 	H 	0.13460 0.97450 0.62660 0.01000
H 	H 	0.07340 0.93160 0.58430 0.00500
C 	C 	0.22610 0.93280 0.57190 0.00100
C 	C 	0.32410 0.93080 0.59993 0.04500
H 	H 	0.38000 0.93750 0.57760 0.01400
H 	H 	0.32530 0.98180 0.62130 0.00700
C 	C 	0.22280 0.85840 0.53305 0.03100
H 	H 	0.16200 0.86640 0.51390 0.01600
H 	H 	0.28050 0.86590 0.51190 0.00700
C 	C 	0.22170 0.02430 0.54580 -0.47100
H 	H 	0.15730 0.03070 0.53020 0.15700
H 	H 	0.27490 0.02740 0.52240 0.15700
H 	H 	0.23020 0.07140 0.56880 0.16300
C 	C 	0.45020 0.48800 0.64216 0.06100
C 	C 	0.50400 0.54340 0.60421 -0.00700
C 	C 	0.54220 0.63210 0.62381 0.05800
C 	C 	0.43730 0.55200 0.55820 0.05600
C 	C 	0.59910 0.49030 0.58910 -0.45600
H 	H 	0.63510 0.52270 0.56480 0.15200
H 	H 	0.57900 0.43320 0.57670 0.15200
H 	H 	0.64230 0.48190 0.61640 0.15500
C 	C 	0.26400 0.63600 0.78374 0.00900
H 	H 	0.32310 0.61080 0.79930 0.02600
H 	H 	0.20450 0.61190 0.79960 0.02400
C 	C 	0.26530 0.73680 0.79110 0.03300
C 	C 	0.35830 0.77830 0.76772 0.01300
H 	H 	0.35790 0.84200 0.77400 0.02100
H 	H 	0.41850 0.75360 0.78260 0.01200
C 	C 	0.16740 0.77720 0.77258 0.01000
H 	H 	0.11110 0.74830 0.78870 0.02900
H 	H 	0.16600 0.83980 0.78140 0.02700
C 	C 	0.27050 0.75750 0.84486 -0.49500
H 	H 	0.32610 0.72550 0.85900 0.16300
H 	H 	0.20840 0.73970 0.86000 0.16300
H 	H 	0.28050 0.82040 0.84940 0.16400
O 	O 	0.57120 0.89260 0.60146 -0.34300
H 	H 	0.59400 0.85850 0.62180 0.14500
C 	C 	0.63570 0.96940 0.59760 -0.01800
H 	H 	0.63010 0.00410 0.62690 0.02800
H 	H 	0.61200 0.00630 0.57130 0.04900
C 	C 	0.74630 0.94640 0.58929 0.12800
C 	C 	0.80920 0.03110 0.59070 -0.62500
H 	H 	0.78730 0.07060 0.56560 0.21300
H 	H 	0.87940 0.01650 0.58600 0.21500
H 	H 	0.80070 0.05980 0.62120 0.21100
C 	C 	0.77980 0.88340 0.62814 0.01800
H 	H 	0.76590 0.91060 0.65900 0.03600
H 	H 	0.73980 0.82930 0.62600 0.03500
O 	O 	0.88330 0.86040 0.62627 -0.44100
H 	H 	0.89930 0.84950 0.59850 0.24500
C 	C 	0.75830 0.90420 0.53954 0.00800
H 	H 	0.73230 0.94490 0.51540 0.04300
H 	H 	0.82970 0.89450 0.53310 0.02700
O 	O 	0.91560 0.81830 0.76195 -0.43200
H 	H 	0.88300 0.86450 0.75890 0.25500
C 	C 	0.86010 0.75690 0.79095 0.01600
H 	H 	0.87310 0.77000 0.82450 0.03600
H 	H 	0.88430 0.69700 0.78460 0.04100
C 	C 	0.74670 0.75990 0.78221 0.10900
C 	C 	0.70600 0.85160 0.79262 0.01200
H 	H 	0.63280 0.85100 0.78970 0.04400
H 	H 	0.72280 0.86800 0.82530 0.02700
O 	O 	0.62180 0.74680 0.71650 -0.43000
H 	H 	0.58920 0.70420 0.72670 0.23300
C 	C 	0.72670 0.73620 0.72916 0.02600
H 	H 	0.76780 0.77420 0.70880 0.03800
H 	H 	0.74690 0.67480 0.72340 0.03300
O 	O 	0.70690 0.82320 0.53629 -0.34100
H 	H 	0.73400 0.79180 0.51590 0.22600
O 	O 	0.74640 0.91570 0.76092 -0.36600
H 	H 	0.76840 0.95800 0.77630 0.22500
C 	C 	0.69670 0.69180 0.81620 -0.61400
H 	H 	0.72020 0.63290 0.80850 0.22200
H 	H 	0.62440 0.69430 0.81260 0.21300
H 	H 	0.71430 0.70570 0.84880 0.21100
N 	N 	0.24550 0.94760 0.70616 -0.21900
N 	N 	0.24700 0.97580 0.74566 -0.03800
N 	N 	0.24810 0.00560 0.78392 -0.09200
N 	N 	0.49850 0.97190 0.71570 -0.12800
N 	N 	0.50670 0.10280 0.76049 -0.20400
N 	N 	0.50260 0.03590 0.73764 -0.03200
N 	N 	0.96470 0.11120 0.75989 -0.22400
N 	N 	0.96950 0.04560 0.73548 -0.03700
N 	N 	0.98250 0.98410 0.71190 -0.12100
N 	N 	0.49310 0.72330 0.45297 -0.19200
N 	N 	0.47600 0.74730 0.49245 -0.03600
N 	N 	0.45960 0.77250 0.53192 -0.19600
O 	O 	0.76190 0.18410 0.85416 -0.90100
O 	O 	0.12850 0.61340 0.56876 -0.51600
O 	O 	0.03000 0.68910 0.64472 -0.56100
O 	O 	0.14150 0.52660 0.65794 -0.54200
O 	O 	0.12890 0.84210 0.62987 -0.58300
O 	O 	0.34070 0.85240 0.62751 -0.58700
O 	O 	0.22370 0.76960 0.55115 -0.53900
O 	O 	0.35860 0.53110 0.65930 -0.53600
O 	O 	0.46000 0.68810 0.64154 -0.58700
O 	O 	0.34370 0.60070 0.56722 -0.55500
O 	O 	0.26310 0.60750 0.73464 -0.52000
O 	O 	0.36460 0.76450 0.71642 -0.57800
O 	O 	0.15130 0.77050 0.72140 -0.57700
Mn	Mn	0.86068 0.14284 0.80642 1.30300
Mn	Mn	0.62565 0.14317 0.80760 1.31200
Mn	Mn	0.24682 0.82374 0.67805 1.29900
Mn	Mn	0.35877 0.73337 0.58770 1.27000
Mn	Mn	0.11772 0.73174 0.59423 1.31400
Mn	Mn	0.24360 0.55119 0.60905 1.30400
N 	N 	0.24350 0.43000 0.57850 -0.22500
N 	N 	0.21970 0.36930 0.57650 -0.01100
N 	N 	0.18550 0.28960 0.58060 -0.09800
N 	N 	0.23590 0.40130 0.55240 0.02500
N 	N 	0.21570 0.36960 0.51180 -0.10400
