data_crystal

_cell_length_a 17.00760
_cell_length_b 17.00760
_cell_length_c 7.85910
_cell_angle_alpha 90.00000
_cell_angle_beta  90.00000
_cell_angle_gamma 90.00000

_symmetry_space_group_name_	'P 1'
_symmetry_space_group_name_H-M	'P 1'

loop_
_symmetry_equiv_pos_as_xyz
  x,y,z

loop_
_atom_site_label
_atom_site_type_symbol
_atom_site_fract_x
_atom_site_fract_y
_atom_site_fract_z
_atom_site_charge
N 	N 	0.67510 0.18619 0.41240 -0.13100
N 	N 	0.75562 0.91647 0.41260 -0.13600
C 	C 	0.69030 0.12130 0.33090 0.01100
H 	H 	0.68790 0.12190 0.21140 0.01700
C 	C 	0.71020 0.05045 0.41190 -0.00700
C 	C 	0.73340 0.97980 0.33140 0.00900
H 	H 	0.73290 0.97830 0.21180 0.02000
N 	N 	0.32490 0.81381 0.41240 -0.13100
N 	N 	0.24438 0.08353 0.41260 -0.13600
C 	C 	0.30970 0.87870 0.33090 0.01100
H 	H 	0.31210 0.87810 0.21140 0.01600
C 	C 	0.28980 0.94955 0.41190 -0.00800
C 	C 	0.26660 0.02020 0.33140 0.01200
H 	H 	0.26710 0.02170 0.21180 0.02100
N 	N 	0.18619 0.67510 0.58760 -0.13000
N 	N 	0.91647 0.75562 0.58740 -0.13500
C 	C 	0.12130 0.69030 0.66910 0.01200
H 	H 	0.12190 0.68790 0.78860 0.01800
C 	C 	0.05045 0.71020 0.58810 -0.00600
C 	C 	0.97980 0.73340 0.66860 0.01000
H 	H 	0.97830 0.73290 0.78820 0.02100
N 	N 	0.81381 0.32490 0.58760 -0.13000
N 	N 	0.08353 0.24438 0.58740 -0.13500
C 	C 	0.87870 0.30970 0.66910 0.01200
H 	H 	0.87810 0.31210 0.78860 0.01700
C 	C 	0.94955 0.28980 0.58810 -0.00700
C 	C 	0.02020 0.26660 0.66860 0.01200
H 	H 	0.02170 0.26710 0.78820 0.02100
N 	N 	0.32490 0.81381 0.58760 -0.13000
N 	N 	0.24438 0.08353 0.58740 -0.13500
C 	C 	0.30970 0.87870 0.66910 0.01200
H 	H 	0.31210 0.87810 0.78860 0.01700
C 	C 	0.28980 0.94955 0.58810 -0.00700
C 	C 	0.26660 0.02020 0.66860 0.01200
H 	H 	0.26710 0.02170 0.78820 0.02100
N 	N 	0.67510 0.18619 0.58760 -0.13000
N 	N 	0.75562 0.91647 0.58740 -0.13500
C 	C 	0.69030 0.12130 0.66910 0.01200
H 	H 	0.68790 0.12190 0.78860 0.01800
C 	C 	0.71020 0.05045 0.58810 -0.00600
C 	C 	0.73340 0.97980 0.66860 0.01000
H 	H 	0.73290 0.97830 0.78820 0.02100
N 	N 	0.81381 0.32490 0.41240 -0.13000
N 	N 	0.08353 0.24438 0.41260 -0.13500
C 	C 	0.87870 0.30970 0.33090 0.01200
H 	H 	0.87810 0.31210 0.21140 0.01700
C 	C 	0.94955 0.28980 0.41190 -0.00700
C 	C 	0.02020 0.26660 0.33140 0.01200
H 	H 	0.02170 0.26710 0.21180 0.02100
N 	N 	0.18619 0.67510 0.41240 -0.13000
N 	N 	0.91647 0.75562 0.41260 -0.13500
C 	C 	0.12130 0.69030 0.33090 0.01200
H 	H 	0.12190 0.68790 0.21140 0.01800
C 	C 	0.05045 0.71020 0.41190 -0.00600
C 	C 	0.97980 0.73340 0.33140 0.01000
H 	H 	0.97830 0.73290 0.21180 0.02100
Ag	Ag	0.18735 0.18735 0.75893 0.52900
N 	N 	0.09964 0.09964 0.91350 -0.13400
C 	C 	0.05220 0.05220 0.83260 0.01100
H 	H 	0.05300 0.05300 0.71300 0.01900
Ag	Ag	0.81265 0.81265 0.75893 0.52900
N 	N 	0.90036 0.90036 0.91350 -0.13400
C 	C 	0.94780 0.94780 0.83260 0.01000
H 	H 	0.94700 0.94700 0.71300 0.01900
Ag	Ag	0.81265 0.81265 0.24107 0.52900
N 	N 	0.90036 0.90036 0.08650 -0.13400
C 	C 	0.94780 0.94780 0.16740 0.01000
H 	H 	0.94700 0.94700 0.28700 0.01900
Ag	Ag	0.18735 0.18735 0.24107 0.52900
N 	N 	0.09964 0.09964 0.08650 -0.13400
C 	C 	0.05220 0.05220 0.16740 0.01100
H 	H 	0.05300 0.05300 0.28700 0.01900
C 	C 	0.00000 0.00000 0.91340 -0.00700
C 	C 	-0.00000 -0.00000 0.08660 -0.00700
N 	N 	0.31381 0.17510 0.91240 -0.13000
N 	N 	0.58353 0.25562 0.91260 -0.13500
C 	C 	0.37870 0.19030 0.83090 0.01200
H 	H 	0.37810 0.18790 0.71140 0.01800
C 	C 	0.44955 0.21020 0.91190 -0.00600
C 	C 	0.52020 0.23340 0.83140 0.01100
H 	H 	0.52170 0.23290 0.71180 0.02100
N 	N 	0.68619 0.82490 0.91240 -0.13000
N 	N 	0.41647 0.74438 0.91260 -0.13500
C 	C 	0.62130 0.80970 0.83090 0.01200
H 	H 	0.62190 0.81210 0.71140 0.01800
C 	C 	0.55045 0.78980 0.91190 -0.00600
C 	C 	0.47980 0.76660 0.83140 0.01100
H 	H 	0.47830 0.76710 0.71180 0.02100
N 	N 	0.82490 0.68619 0.08760 -0.13000
N 	N 	0.74438 0.41647 0.08740 -0.13500
C 	C 	0.80970 0.62130 0.16910 0.01200
H 	H 	0.81210 0.62190 0.28860 0.01800
C 	C 	0.78980 0.55045 0.08810 -0.00600
C 	C 	0.76660 0.47980 0.16860 0.01100
H 	H 	0.76710 0.47830 0.28820 0.02100
N 	N 	0.17510 0.31381 0.08760 -0.13000
N 	N 	0.25562 0.58353 0.08740 -0.13500
C 	C 	0.19030 0.37870 0.16910 0.01200
H 	H 	0.18790 0.37810 0.28860 0.01800
C 	C 	0.21020 0.44955 0.08810 -0.00600
C 	C 	0.23340 0.52020 0.16860 0.01100
H 	H 	0.23290 0.52170 0.28820 0.02100
N 	N 	0.68619 0.82490 0.08760 -0.13000
N 	N 	0.41647 0.74438 0.08740 -0.13500
C 	C 	0.62130 0.80970 0.16910 0.01200
H 	H 	0.62190 0.81210 0.28860 0.01800
C 	C 	0.55045 0.78980 0.08810 -0.00600
C 	C 	0.47980 0.76660 0.16860 0.01100
H 	H 	0.47830 0.76710 0.28820 0.02100
N 	N 	0.31381 0.17510 0.08760 -0.13000
N 	N 	0.58353 0.25562 0.08740 -0.13500
C 	C 	0.37870 0.19030 0.16910 0.01200
H 	H 	0.37810 0.18790 0.28860 0.01800
C 	C 	0.44955 0.21020 0.08810 -0.00600
C 	C 	0.52020 0.23340 0.16860 0.01100
H 	H 	0.52170 0.23290 0.28820 0.02100
N 	N 	0.17510 0.31381 0.91240 -0.13000
N 	N 	0.25562 0.58353 0.91260 -0.13500
C 	C 	0.19030 0.37870 0.83090 0.01200
H 	H 	0.18790 0.37810 0.71140 0.01800
C 	C 	0.21020 0.44955 0.91190 -0.00600
C 	C 	0.23340 0.52020 0.83140 0.01100
H 	H 	0.23290 0.52170 0.71180 0.02100
N 	N 	0.82490 0.68619 0.91240 -0.13000
N 	N 	0.74438 0.41647 0.91260 -0.13500
C 	C 	0.80970 0.62130 0.83090 0.01200
H 	H 	0.81210 0.62190 0.71140 0.01800
C 	C 	0.78980 0.55045 0.91190 -0.00600
C 	C 	0.76660 0.47980 0.83140 0.01100
H 	H 	0.76710 0.47830 0.71180 0.02100
Ag	Ag	0.68735 0.31265 0.25893 0.52900
N 	N 	0.59964 0.40036 0.41350 -0.13400
C 	C 	0.55220 0.44780 0.33260 0.01100
H 	H 	0.55300 0.44700 0.21300 0.01800
Ag	Ag	0.31265 0.68735 0.25893 0.52900
N 	N 	0.40036 0.59964 0.41350 -0.13400
C 	C 	0.44780 0.55220 0.33260 0.01100
H 	H 	0.44700 0.55300 0.21300 0.01800
Ag	Ag	0.31265 0.68735 0.74107 0.52900
N 	N 	0.40036 0.59964 0.58650 -0.13400
C 	C 	0.44780 0.55220 0.66740 0.01100
H 	H 	0.44700 0.55300 0.78700 0.01800
Ag	Ag	0.68735 0.31265 0.74107 0.52900
N 	N 	0.59964 0.40036 0.58650 -0.13400
C 	C 	0.55220 0.44780 0.66740 0.01100
H 	H 	0.55300 0.44700 0.78700 0.01800
C 	C 	0.50000 0.50000 0.41340 -0.00800
C 	C 	0.50000 0.50000 0.58660 -0.00800
