data_crystal

_cell_length_a 15.68870
_cell_length_b 15.68870
_cell_length_c 24.48050
_cell_angle_alpha 90.00000
_cell_angle_beta  90.00000
_cell_angle_gamma 120.00000

_symmetry_space_group_name_	'P 1'
_symmetry_space_group_name_H-M	'P 1'

loop_
_symmetry_equiv_pos_as_xyz
  x,y,z

loop_
_atom_site_label
_atom_site_type_symbol
_atom_site_fract_x
_atom_site_fract_y
_atom_site_fract_z
_atom_site_charge
N 	N 	0.40970 0.82530 0.44780 -0.14400
N 	N 	0.41200 0.82430 0.39120 -0.08900
N 	N 	0.60020 0.17690 0.44780 -0.08600
N 	N 	0.60230 0.17680 0.39090 -0.14000
C 	C 	0.45410 0.90730 0.47420 0.06900
H 	H 	0.45170 0.90550 0.51340 -0.00100
C 	C 	0.50650 0.00050 0.44830 -0.05200
C 	C 	0.55500 0.09350 0.47530 0.02200
H 	H 	0.55460 0.09570 0.51450 0.02600
C 	C 	0.45920 0.90820 0.36540 0.06300
H 	H 	0.46010 0.90730 0.32620 0.03100
C 	C 	0.50920 0.00070 0.39170 -0.05000
C 	C 	0.56030 0.09290 0.36380 0.01600
H 	H 	0.56540 0.09380 0.32470 -0.00700
N 	N 	0.17470 0.58440 0.44780 -0.13400
N 	N 	0.17570 0.58770 0.39120 -0.07900
N 	N 	0.82310 0.42330 0.44780 -0.08100
N 	N 	0.82320 0.42550 0.39090 -0.13400
C 	C 	0.09270 0.54680 0.47420 -0.04400
H 	H 	0.09450 0.54620 0.51340 0.00900
C 	C 	0.99950 0.50600 0.44830 0.03500
C 	C 	0.90650 0.46150 0.47530 -0.00300
H 	H 	0.90430 0.45890 0.51450 0.05000
C 	C 	0.09180 0.55100 0.36540 -0.04700
H 	H 	0.09270 0.55280 0.32620 0.04400
C 	C 	0.99930 0.50850 0.39170 0.04100
C 	C 	0.90710 0.46740 0.36380 -0.00600
H 	H 	0.90620 0.47160 0.32470 0.02000
N 	N 	0.41560 0.59030 0.44780 -0.13900
N 	N 	0.41230 0.58800 0.39120 -0.08500
N 	N 	0.57670 0.39980 0.44780 -0.08400
N 	N 	0.57450 0.39770 0.39090 -0.13800
C 	C 	0.45320 0.54590 0.47420 0.01300
H 	H 	0.45380 0.54830 0.51340 0.00300
C 	C 	0.49400 0.49350 0.44830 -0.01000
C 	C 	0.53850 0.44500 0.47530 0.00900
H 	H 	0.54110 0.44540 0.51450 0.03700
C 	C 	0.44900 0.54080 0.36540 0.00900
H 	H 	0.44720 0.53990 0.32620 0.03700
C 	C 	0.49150 0.49080 0.39170 -0.00600
C 	C 	0.53260 0.43970 0.36380 0.00500
H 	H 	0.52840 0.43460 0.32470 0.00600
Ag	Ag	0.33333 0.66667 0.48445 0.51300
Ag	Ag	0.66667 0.33333 0.35406 0.51500
N 	N 	0.07637 0.15863 0.78113 -0.15000
N 	N 	0.07867 0.15763 0.72453 -0.09900
N 	N 	0.26687 0.51023 0.78113 -0.08500
N 	N 	0.26897 0.51013 0.72423 -0.13900
C 	C 	0.12077 0.24063 0.80753 0.00800
H 	H 	0.11837 0.23883 0.84673 -0.00500
C 	C 	0.17317 0.33383 0.78163 -0.01500
C 	C 	0.22167 0.42683 0.80863 0.00700
H 	H 	0.22127 0.42903 0.84783 0.03400
C 	C 	0.12587 0.24153 0.69873 0.00500
H 	H 	0.12677 0.24063 0.65953 0.02900
C 	C 	0.17587 0.33403 0.72503 -0.01000
C 	C 	0.22697 0.42623 0.69713 0.00200
H 	H 	0.23207 0.42713 0.65803 0.00300
N 	N 	0.84137 0.91773 0.78113 -0.11900
N 	N 	0.84237 0.92103 0.72453 -0.06900
N 	N 	0.48977 0.75663 0.78113 -0.08300
N 	N 	0.48987 0.75883 0.72423 -0.13600
C 	C 	0.75937 0.88013 0.80753 0.01800
H 	H 	0.76117 0.87953 0.84673 0.01600
C 	C 	0.66617 0.83933 0.78163 -0.00500
C 	C 	0.57317 0.79483 0.80863 0.01100
H 	H 	0.57097 0.79223 0.84783 0.04100
C 	C 	0.75847 0.88433 0.69873 0.01300
H 	H 	0.75937 0.88613 0.65953 0.04600
C 	C 	0.66597 0.84183 0.72503 -0.00200
C 	C 	0.57377 0.80073 0.69713 0.00700
H 	H 	0.57287 0.80493 0.65803 0.01100
N 	N 	0.08227 0.92363 0.78113 -0.13200
N 	N 	0.07897 0.92133 0.72453 -0.08200
N 	N 	0.24337 0.73313 0.78113 -0.08400
N 	N 	0.24117 0.73103 0.72423 -0.13800
C 	C 	0.11987 0.87923 0.80753 0.01300
H 	H 	0.12047 0.88163 0.84673 0.00600
C 	C 	0.16067 0.82683 0.78163 -0.01000
C 	C 	0.20517 0.77833 0.80863 0.00900
H 	H 	0.20777 0.77873 0.84783 0.03800
C 	C 	0.11567 0.87413 0.69873 0.00900
H 	H 	0.11387 0.87323 0.65953 0.03800
C 	C 	0.15817 0.82413 0.72503 -0.00600
C 	C 	0.19927 0.77303 0.69713 0.00500
H 	H 	0.19507 0.76793 0.65803 0.00500
Ag	Ag	0.33333 0.66667 0.68739 0.51400
Ag	Ag	0.00000 0.00000 0.81779 0.47100
N 	N 	0.74303 0.49197 0.11447 -0.13800
N 	N 	0.74533 0.49097 0.05787 -0.08400
N 	N 	0.93353 0.84357 0.11447 -0.06700
N 	N 	0.93563 0.84347 0.05757 -0.11600
C 	C 	0.78743 0.57397 0.14087 0.01500
H 	H 	0.78503 0.57217 0.18007 0.00700
C 	C 	0.83983 0.66717 0.11497 -0.00600
C 	C 	0.88833 0.76017 0.14197 0.01300
H 	H 	0.88793 0.76237 0.18117 0.04700
C 	C 	0.79253 0.57487 0.03207 0.01300
H 	H 	0.79343 0.57397 0.99287 0.03900
C 	C 	0.84253 0.66737 0.05837 -0.00200
C 	C 	0.89363 0.75957 0.03047 0.01200
H 	H 	0.89873 0.76047 0.99137 0.01800
N 	N 	0.50803 0.25107 0.11447 -0.14100
N 	N 	0.50903 0.25437 0.05787 -0.08600
N 	N 	0.15643 0.08997 0.11447 -0.09700
N 	N 	0.15653 0.09217 0.05757 -0.14800
C 	C 	0.42603 0.21347 0.14087 0.01100
H 	H 	0.42783 0.21287 0.18007 -0.00000
C 	C 	0.33283 0.17267 0.11497 -0.01400
C 	C 	0.23983 0.12817 0.14197 0.00400
H 	H 	0.23763 0.12557 0.18117 0.03000
C 	C 	0.42513 0.21767 0.03207 0.00800
H 	H 	0.42603 0.21947 0.99287 0.03400
C 	C 	0.33263 0.17517 0.05837 -0.01000
C 	C 	0.24043 0.13407 0.03047 0.00000
H 	H 	0.23953 0.13827 0.99137 -0.00100
N 	N 	0.74893 0.25697 0.11447 -0.13900
N 	N 	0.74563 0.25467 0.05787 -0.08500
N 	N 	0.91003 0.06647 0.11447 -0.08200
N 	N 	0.90783 0.06437 0.05757 -0.13200
C 	C 	0.78653 0.21257 0.14087 0.01300
H 	H 	0.78713 0.21497 0.18007 0.00400
C 	C 	0.82733 0.16017 0.11497 -0.00900
C 	C 	0.87183 0.11167 0.14197 0.00900
H 	H 	0.87443 0.11207 0.18117 0.03900
C 	C 	0.78233 0.20747 0.03207 0.01200
H 	H 	0.78053 0.20657 0.99287 0.03600
C 	C 	0.82483 0.15747 0.05837 -0.00700
C 	C 	0.86593 0.10637 0.03047 0.00800
H 	H 	0.86173 0.10127 0.99137 0.00700
Ag	Ag	0.00000 0.00000 0.02072 0.47100
Ag	Ag	0.66667 0.33333 0.15112 0.51400
N 	N 	0.17470 0.59030 0.94780 -0.13300
N 	N 	0.17570 0.58800 0.89120 -0.07900
N 	N 	0.82310 0.39980 0.94780 -0.08100
N 	N 	0.82320 0.39770 0.89090 -0.13400
C 	C 	0.09270 0.54590 0.97420 -0.04300
H 	H 	0.09450 0.54830 0.01340 0.00900
C 	C 	0.99950 0.49350 0.94830 0.03500
C 	C 	0.90650 0.44500 0.97530 -0.00500
H 	H 	0.90430 0.44540 0.01450 0.05100
C 	C 	0.09180 0.54080 0.86540 -0.04700
H 	H 	0.09270 0.53990 0.82620 0.04400
C 	C 	0.99930 0.49080 0.89170 0.04000
C 	C 	0.90710 0.43970 0.86380 -0.00600
H 	H 	0.90620 0.43460 0.82470 0.02000
N 	N 	0.41560 0.82530 0.94780 -0.14400
N 	N 	0.41230 0.82430 0.89120 -0.09000
N 	N 	0.57670 0.17690 0.94780 -0.08700
N 	N 	0.57450 0.17680 0.89090 -0.14100
C 	C 	0.45320 0.90730 0.97420 0.06600
H 	H 	0.45380 0.90550 0.01340 -0.00100
C 	C 	0.49400 0.00050 0.94830 -0.05200
C 	C 	0.53850 0.09350 0.97530 0.02000
H 	H 	0.54110 0.09570 0.01450 0.02600
C 	C 	0.44900 0.90820 0.86540 0.06300
H 	H 	0.44720 0.90730 0.82620 0.03100
C 	C 	0.49150 0.00070 0.89170 -0.05000
C 	C 	0.53260 0.09290 0.86380 0.01600
H 	H 	0.52840 0.09380 0.82470 -0.00700
N 	N 	0.40970 0.58440 0.94780 -0.13900
N 	N 	0.41200 0.58770 0.89120 -0.08500
N 	N 	0.60020 0.42330 0.94780 -0.08400
N 	N 	0.60230 0.42550 0.89090 -0.13700
C 	C 	0.45410 0.54680 0.97420 0.01200
H 	H 	0.45170 0.54620 0.01340 0.00400
C 	C 	0.50650 0.50600 0.94830 -0.00900
C 	C 	0.55500 0.46150 0.97530 0.00800
H 	H 	0.55460 0.45890 0.01450 0.03800
C 	C 	0.45920 0.55100 0.86540 0.01000
H 	H 	0.46010 0.55280 0.82620 0.03700
C 	C 	0.50920 0.50850 0.89170 -0.00600
C 	C 	0.56030 0.46740 0.86380 0.00500
H 	H 	0.56540 0.47160 0.82470 0.00700
Ag	Ag	0.33333 0.66667 0.98445 0.51300
Ag	Ag	0.66667 0.33333 0.85406 0.51500
N 	N 	0.84137 0.92363 0.28113 -0.11800
N 	N 	0.84237 0.92133 0.22453 -0.06800
N 	N 	0.48977 0.73313 0.28113 -0.08300
N 	N 	0.48987 0.73103 0.22423 -0.13600
C 	C 	0.75937 0.87923 0.30753 0.01700
H 	H 	0.76117 0.88163 0.34673 0.01700
C 	C 	0.66617 0.82683 0.28163 -0.00500
C 	C 	0.57317 0.77833 0.30863 0.01100
H 	H 	0.57097 0.77873 0.34783 0.04100
C 	C 	0.75847 0.87413 0.19873 0.01300
H 	H 	0.75937 0.87323 0.15953 0.04600
C 	C 	0.66597 0.82413 0.22503 -0.00200
C 	C 	0.57377 0.77303 0.19713 0.00700
H 	H 	0.57287 0.76793 0.15803 0.00900
N 	N 	0.08227 0.15863 0.28113 -0.14900
N 	N 	0.07897 0.15763 0.22453 -0.09800
N 	N 	0.24337 0.51023 0.28113 -0.08500
N 	N 	0.24117 0.51013 0.22423 -0.14000
C 	C 	0.11987 0.24063 0.30753 0.00800
H 	H 	0.12047 0.23883 0.34673 -0.00500
C 	C 	0.16067 0.33383 0.28163 -0.01500
C 	C 	0.20517 0.42683 0.30863 0.00700
H 	H 	0.20777 0.42903 0.34783 0.03400
C 	C 	0.11567 0.24153 0.19873 0.00500
H 	H 	0.11387 0.24063 0.15953 0.02900
C 	C 	0.15817 0.33403 0.22503 -0.01000
C 	C 	0.19927 0.42623 0.19713 0.00200
H 	H 	0.19507 0.42713 0.15803 0.00200
N 	N 	0.07637 0.91773 0.28113 -0.13400
N 	N 	0.07867 0.92103 0.22453 -0.08300
N 	N 	0.26687 0.75663 0.28113 -0.08400
N 	N 	0.26897 0.75883 0.22423 -0.13700
C 	C 	0.12077 0.88013 0.30753 0.01300
H 	H 	0.11837 0.87953 0.34673 0.00600
C 	C 	0.17317 0.83933 0.28163 -0.01000
C 	C 	0.22167 0.79483 0.30863 0.00900
H 	H 	0.22127 0.79223 0.34783 0.03800
C 	C 	0.12587 0.88433 0.19873 0.00900
H 	H 	0.12677 0.88613 0.15953 0.03800
C 	C 	0.17587 0.84183 0.22503 -0.00500
C 	C 	0.22697 0.80073 0.19713 0.00500
H 	H 	0.23207 0.80493 0.15803 0.00800
Ag	Ag	0.33333 0.66667 0.18739 0.51400
Ag	Ag	0.00000 0.00000 0.31779 0.47000
N 	N 	0.50803 0.25697 0.61447 -0.14100
N 	N 	0.50903 0.25467 0.55787 -0.08600
N 	N 	0.15643 0.06647 0.61447 -0.09800
N 	N 	0.15653 0.06437 0.55757 -0.14900
C 	C 	0.42603 0.21257 0.64087 0.01100
H 	H 	0.42783 0.21497 0.68007 -0.00000
C 	C 	0.33283 0.16017 0.61497 -0.01400
C 	C 	0.23983 0.11167 0.64197 0.00400
H 	H 	0.23763 0.11207 0.68117 0.02900
C 	C 	0.42513 0.20747 0.53207 0.00700
H 	H 	0.42603 0.20657 0.49287 0.03500
C 	C 	0.33263 0.15747 0.55837 -0.01000
C 	C 	0.24043 0.10637 0.53047 -0.00000
H 	H 	0.23953 0.10127 0.49137 -0.00200
N 	N 	0.74893 0.49197 0.61447 -0.13800
N 	N 	0.74563 0.49097 0.55787 -0.08400
N 	N 	0.91003 0.84357 0.61447 -0.06800
N 	N 	0.90783 0.84347 0.55757 -0.11700
C 	C 	0.78653 0.57397 0.64087 0.01600
H 	H 	0.78713 0.57217 0.68007 0.00700
C 	C 	0.82733 0.66717 0.61497 -0.00600
C 	C 	0.87183 0.76017 0.64197 0.01300
H 	H 	0.87443 0.76237 0.68117 0.04600
C 	C 	0.78233 0.57487 0.53207 0.01100
H 	H 	0.78053 0.57397 0.49287 0.04000
C 	C 	0.82483 0.66737 0.55837 -0.00200
C 	C 	0.86593 0.75957 0.53047 0.01000
H 	H 	0.86173 0.76047 0.49137 0.01800
N 	N 	0.74303 0.25107 0.61447 -0.14000
N 	N 	0.74533 0.25437 0.55787 -0.08500
N 	N 	0.93353 0.08997 0.61447 -0.08000
N 	N 	0.93563 0.09217 0.55757 -0.13000
C 	C 	0.78743 0.21347 0.64087 0.01300
H 	H 	0.78503 0.21287 0.68007 0.00300
C 	C 	0.83983 0.17267 0.61497 -0.01000
C 	C 	0.88833 0.12817 0.64197 0.01000
H 	H 	0.88793 0.12557 0.68117 0.04000
C 	C 	0.79253 0.21767 0.53207 0.00900
H 	H 	0.79343 0.21947 0.49287 0.03800
C 	C 	0.84253 0.17517 0.55837 -0.00500
C 	C 	0.89363 0.13407 0.53047 0.00500
H 	H 	0.89873 0.13827 0.49137 0.01100
Ag	Ag	0.00000 -0.00000 0.52072 0.47100
Ag	Ag	0.66667 0.33333 0.65112 0.51300
