data_crystal

_cell_length_a 17.08010
_cell_length_b 17.07820
_cell_length_c 7.59200
_cell_angle_alpha 90.00000
_cell_angle_beta  90.00000
_cell_angle_gamma 90.00000

_symmetry_space_group_name_	'P 1'
_symmetry_space_group_name_H-M	'P 1'

loop_
_symmetry_equiv_pos_as_xyz
  x,y,z

loop_
_atom_site_label
_atom_site_type_symbol
_atom_site_fract_x
_atom_site_fract_y
_atom_site_fract_z
_atom_site_charge
Ag	Ag	0.81416 0.18978 0.24346 0.52700
N 	N 	0.90310 0.10050 0.09040 -0.13500
N 	N 	0.69320 0.19310 0.09130 -0.13800
N 	N 	0.42140 0.26270 0.09290 -0.14200
N 	N 	0.84080 0.32080 0.09090 -0.12300
N 	N 	0.74990 0.58580 0.08740 -0.12900
C 	C 	0.94870 0.05300 0.17570 0.01200
H 	H 	0.94780 0.05370 0.29950 0.01900
C 	C 	0.62690 0.20490 0.17470 0.01400
H 	H 	0.62760 0.20140 0.29830 0.01600
C 	C 	0.55540 0.22200 0.09430 -0.00900
C 	C 	0.48520 0.24310 0.17310 0.02000
H 	H 	0.48390 0.24320 0.29690 0.02000
C 	C 	0.82410 0.38640 0.17780 0.00300
H 	H 	0.82630 0.38640 0.30150 0.02200
C 	C 	0.80270 0.45680 0.08750 0.00200
C 	C 	0.77550 0.52380 0.18200 -0.00200
H 	H 	0.77540 0.52470 0.30580 0.02400
Ag	Ag	0.18584 0.81022 0.24346 0.52800
N 	N 	0.09690 0.89950 0.09040 -0.13400
N 	N 	0.30680 0.80690 0.09130 -0.13700
N 	N 	0.57860 0.73730 0.09290 -0.14200
N 	N 	0.15920 0.67920 0.09090 -0.12300
N 	N 	0.25010 0.41420 0.08740 -0.12900
C 	C 	0.05130 0.94700 0.17570 0.01200
H 	H 	0.05220 0.94630 0.29950 0.01900
C 	C 	0.37310 0.79510 0.17470 0.01400
H 	H 	0.37240 0.79860 0.29830 0.01600
C 	C 	0.44460 0.77800 0.09430 -0.00900
C 	C 	0.51480 0.75690 0.17310 0.02000
H 	H 	0.51610 0.75680 0.29690 0.02000
C 	C 	0.17590 0.61360 0.17780 0.00300
H 	H 	0.17370 0.61360 0.30150 0.02200
C 	C 	0.19730 0.54320 0.08750 0.00200
C 	C 	0.22450 0.47620 0.18200 -0.00200
H 	H 	0.22460 0.47530 0.30580 0.02400
Ag	Ag	0.68584 0.68978 0.25654 0.52800
N 	N 	0.59690 0.60050 0.40960 -0.13400
N 	N 	0.80680 0.69310 0.40870 -0.13700
N 	N 	0.07860 0.76270 0.40710 -0.14200
N 	N 	0.65920 0.82080 0.40910 -0.12300
N 	N 	0.75010 0.08580 0.41260 -0.12900
C 	C 	0.55130 0.55300 0.32430 0.01300
H 	H 	0.55220 0.55370 0.20050 0.01900
C 	C 	0.87310 0.70490 0.32530 0.01400
H 	H 	0.87240 0.70140 0.20170 0.01600
C 	C 	0.94460 0.72200 0.40570 -0.01000
C 	C 	0.01480 0.74310 0.32690 0.02000
H 	H 	0.01610 0.74320 0.20310 0.02000
C 	C 	0.67590 0.88640 0.32220 0.00300
H 	H 	0.67370 0.88640 0.19850 0.02200
C 	C 	0.69730 0.95680 0.41250 0.00100
C 	C 	0.72450 0.02380 0.31800 -0.00100
H 	H 	0.72460 0.02470 0.19420 0.02400
Ag	Ag	0.31416 0.31022 0.25654 0.52800
N 	N 	0.40310 0.39950 0.40960 -0.13400
N 	N 	0.19320 0.30690 0.40870 -0.13700
N 	N 	0.92140 0.23730 0.40710 -0.14100
N 	N 	0.34080 0.17920 0.40910 -0.12300
N 	N 	0.24990 0.91420 0.41260 -0.12900
C 	C 	0.44870 0.44700 0.32430 0.01300
H 	H 	0.44780 0.44630 0.20050 0.01900
C 	C 	0.12690 0.29510 0.32530 0.01400
H 	H 	0.12760 0.29860 0.20170 0.01600
C 	C 	0.05540 0.27800 0.40570 -0.00900
C 	C 	0.98520 0.25690 0.32690 0.01900
H 	H 	0.98390 0.25680 0.20310 0.02100
C 	C 	0.32410 0.11360 0.32220 0.00200
H 	H 	0.32630 0.11360 0.19850 0.02200
C 	C 	0.30270 0.04320 0.41250 0.00200
C 	C 	0.27550 0.97620 0.31800 -0.00300
H 	H 	0.27540 0.97530 0.19420 0.02400
Ag	Ag	0.18584 0.81022 0.75654 0.52800
N 	N 	0.09690 0.89950 0.90960 -0.13400
N 	N 	0.30680 0.80690 0.90870 -0.13700
N 	N 	0.57860 0.73730 0.90710 -0.14200
N 	N 	0.15920 0.67920 0.90910 -0.12300
N 	N 	0.25010 0.41420 0.91260 -0.12900
C 	C 	0.05130 0.94700 0.82430 0.01200
H 	H 	0.05220 0.94630 0.70050 0.01900
C 	C 	0.37310 0.79510 0.82530 0.01400
H 	H 	0.37240 0.79860 0.70170 0.01600
C 	C 	0.44460 0.77800 0.90570 -0.00900
C 	C 	0.51480 0.75690 0.82690 0.02000
H 	H 	0.51610 0.75680 0.70310 0.02000
C 	C 	0.17590 0.61360 0.82220 0.00300
H 	H 	0.17370 0.61360 0.69850 0.02200
C 	C 	0.19730 0.54320 0.91250 0.00200
C 	C 	0.22450 0.47620 0.81800 -0.00200
H 	H 	0.22460 0.47530 0.69420 0.02400
Ag	Ag	0.81416 0.18978 0.75654 0.52800
N 	N 	0.90310 0.10050 0.90960 -0.13400
N 	N 	0.69320 0.19310 0.90870 -0.13700
N 	N 	0.42140 0.26270 0.90710 -0.14100
N 	N 	0.84080 0.32080 0.90910 -0.12300
N 	N 	0.74990 0.58580 0.91260 -0.12900
C 	C 	0.94870 0.05300 0.82430 0.01200
H 	H 	0.94780 0.05370 0.70050 0.01900
C 	C 	0.62690 0.20490 0.82530 0.01400
H 	H 	0.62760 0.20140 0.70170 0.01600
C 	C 	0.55540 0.22200 0.90570 -0.00900
C 	C 	0.48520 0.24310 0.82690 0.02000
H 	H 	0.48390 0.24320 0.70310 0.02000
C 	C 	0.82410 0.38640 0.82220 0.00300
H 	H 	0.82630 0.38640 0.69850 0.02200
C 	C 	0.80270 0.45680 0.91250 0.00200
C 	C 	0.77550 0.52380 0.81800 -0.00200
H 	H 	0.77540 0.52470 0.69420 0.02400
Ag	Ag	0.31416 0.31022 0.74346 0.52800
N 	N 	0.40310 0.39950 0.59040 -0.13400
N 	N 	0.19320 0.30690 0.59130 -0.13700
N 	N 	0.92140 0.23730 0.59290 -0.14100
N 	N 	0.34080 0.17920 0.59090 -0.12300
N 	N 	0.24990 0.91420 0.58740 -0.12900
C 	C 	0.44870 0.44700 0.67570 0.01300
H 	H 	0.44780 0.44630 0.79950 0.01900
C 	C 	0.12690 0.29510 0.67470 0.01400
H 	H 	0.12760 0.29860 0.79830 0.01600
C 	C 	0.05540 0.27800 0.59430 -0.00900
C 	C 	0.98520 0.25690 0.67310 0.01900
H 	H 	0.98390 0.25680 0.79690 0.02100
C 	C 	0.32410 0.11360 0.67780 0.00200
H 	H 	0.32630 0.11360 0.80150 0.02200
C 	C 	0.30270 0.04320 0.58750 0.00200
C 	C 	0.27550 0.97620 0.68200 -0.00300
H 	H 	0.27540 0.97530 0.80580 0.02400
Ag	Ag	0.68584 0.68978 0.74346 0.52800
N 	N 	0.59690 0.60050 0.59040 -0.13400
N 	N 	0.80680 0.69310 0.59130 -0.13700
N 	N 	0.07860 0.76270 0.59290 -0.14200
N 	N 	0.65920 0.82080 0.59090 -0.12300
N 	N 	0.75010 0.08580 0.58740 -0.12900
C 	C 	0.55130 0.55300 0.67570 0.01300
H 	H 	0.55220 0.55370 0.79950 0.01900
C 	C 	0.87310 0.70490 0.67470 0.01400
H 	H 	0.87240 0.70140 0.79830 0.01600
C 	C 	0.94460 0.72200 0.59430 -0.01000
C 	C 	0.01480 0.74310 0.67310 0.02000
H 	H 	0.01610 0.74320 0.79690 0.02000
C 	C 	0.67590 0.88640 0.67780 0.00300
H 	H 	0.67370 0.88640 0.80150 0.02200
C 	C 	0.69730 0.95680 0.58750 0.00100
C 	C 	0.72450 0.02380 0.68200 -0.00100
H 	H 	0.72460 0.02470 0.80580 0.02400
C 	C 	0.00000 -0.00000 0.08830 -0.00700
C 	C 	0.50000 0.50000 0.41170 -0.00800
C 	C 	0.00000 -0.00000 0.91170 -0.00700
C 	C 	0.50000 0.50000 0.58830 -0.00800
