data_crystal

_cell_length_a 8.76520
_cell_length_b 22.10040
_cell_length_c 10.44170
_cell_angle_alpha 90.00000
_cell_angle_beta  91.87400
_cell_angle_gamma 90.00000

_symmetry_space_group_name_	'P 1'
_symmetry_space_group_name_H-M	'P 1'

loop_
_symmetry_equiv_pos_as_xyz
  x,y,z

loop_
_atom_site_label
_atom_site_type_symbol
_atom_site_fract_x
_atom_site_fract_y
_atom_site_fract_z
_atom_site_charge
Ag	Ag	0.34332 0.80347 0.51196 0.50800
Ag	Ag	0.25102 0.70781 0.75673 0.51100
Ag	Ag	0.17730 0.79584 0.01653 0.50500
N 	N 	0.37310 0.70413 0.47930 -0.16500
N 	N 	0.37320 0.66854 0.58470 -0.14600
N 	N 	0.55450 0.39579 0.46290 -0.15000
N 	N 	0.60420 0.43221 0.36940 -0.08400
N 	N 	0.11410 0.82542 0.62240 -0.14800
N 	N 	0.06310 0.77886 0.69220 -0.14500
N 	N 	0.45060 0.77395 0.82600 -0.14500
N 	N 	0.39920 0.81906 0.90180 -0.15100
N 	N 	0.12490 0.66478 0.92210 -0.14600
N 	N 	0.12260 0.69635 0.03310 -0.16400
N 	N 	0.93570 0.38783 0.00620 -0.14700
N 	N 	0.88940 0.42100 0.10590 -0.08600
C 	C 	0.40290 0.61020 0.57510 -0.00600
H 	H 	0.40440 0.58680 0.65030 0.01400
C 	C 	0.43250 0.58104 0.45870 0.01100
C 	C 	0.42710 0.61687 0.35130 -0.10200
H 	H 	0.44160 0.60020 0.26970 0.06000
C 	C 	0.39950 0.67893 0.36640 0.04800
H 	H 	0.39950 0.70390 0.29340 -0.01900
C 	C 	0.56170 0.48944 0.36820 -0.00400
H 	H 	0.59650 0.51430 0.30220 0.03400
C 	C 	0.46790 0.51562 0.45930 0.01300
C 	C 	0.41510 0.47784 0.55200 -0.10200
H 	H 	0.34890 0.49180 0.61450 0.05500
C 	C 	0.46380 0.41756 0.54980 0.04600
H 	H 	0.42990 0.39120 0.61360 -0.01300
C 	C 	0.02850 0.87444 0.60850 0.05300
H 	H 	0.06680 0.90700 0.56130 0.00500
C 	C 	0.88480 0.88040 0.65970 -0.10000
H 	H 	0.82780 0.91620 0.64860 0.06800
C 	C 	0.82860 0.83226 0.72720 0.01400
C 	C 	0.92630 0.78222 0.74180 -0.01700
H 	H 	0.89250 0.74910 0.78970 0.01800
C 	C 	0.58330 0.77984 0.77100 -0.02100
H 	H 	0.61670 0.74810 0.71900 0.01800
C 	C 	0.67760 0.83111 0.78610 0.01300
C 	C 	0.62140 0.87780 0.85690 -0.09900
H 	H 	0.67580 0.91420 0.86710 0.06800
C 	C 	0.48060 0.86948 0.91340 0.05100
H 	H 	0.44160 0.90130 0.96220 0.00600
C 	C 	0.09020 0.60634 0.92150 -0.00500
H 	H 	0.08950 0.58560 0.84290 0.01400
C 	C 	0.05470 0.57376 0.03200 0.01200
C 	C 	0.05540 0.60556 0.14480 -0.10300
H 	H 	0.03530 0.58640 0.22280 0.06000
C 	C 	0.08710 0.66761 0.13990 0.04800
H 	H 	0.08310 0.69010 0.21620 -0.01300
C 	C 	0.02070 0.41280 0.91870 0.04300
H 	H 	0.05190 0.38860 0.85030 -0.01000
C 	C 	0.06690 0.47331 0.92230 -0.09500
H 	H 	0.12930 0.48950 0.85930 0.05200
C 	C 	0.01740 0.50830 0.02190 0.00500
C 	C 	0.93000 0.47845 0.11240 0.00300
H 	H 	0.89790 0.50100 0.18300 0.03300
Ag	Ag	0.65668 0.30347 0.48804 0.50800
Ag	Ag	0.74898 0.20781 0.24327 0.51100
Ag	Ag	0.82270 0.29584 0.98347 0.50500
N 	N 	0.62690 0.20413 0.52070 -0.16600
N 	N 	0.62680 0.16854 0.41530 -0.14600
N 	N 	0.44550 0.89579 0.53710 -0.14800
N 	N 	0.39580 0.93221 0.63060 -0.08800
N 	N 	0.88590 0.32542 0.37760 -0.14800
N 	N 	0.93690 0.27886 0.30780 -0.14400
N 	N 	0.54940 0.27395 0.17400 -0.14500
N 	N 	0.60080 0.31906 0.09820 -0.15100
N 	N 	0.87510 0.16478 0.07790 -0.14500
N 	N 	0.87740 0.19635 0.96690 -0.16400
N 	N 	0.06430 0.88783 0.99380 -0.14600
N 	N 	0.11060 0.92100 0.89410 -0.08900
C 	C 	0.59710 0.11020 0.42490 -0.01000
H 	H 	0.59560 0.08680 0.34970 0.01500
C 	C 	0.56750 0.08104 0.54130 0.01900
C 	C 	0.57290 0.11687 0.64870 -0.10700
H 	H 	0.55840 0.10020 0.73030 0.06100
C 	C 	0.60050 0.17893 0.63360 0.05000
H 	H 	0.60050 0.20390 0.70660 -0.01900
C 	C 	0.43830 0.98944 0.63180 0.01900
H 	H 	0.40350 0.01430 0.69780 0.02300
C 	C 	0.53210 0.01562 0.54070 -0.00900
C 	C 	0.58490 0.97784 0.44800 -0.08400
H 	H 	0.65110 0.99180 0.38550 0.05000
C 	C 	0.53620 0.91756 0.45020 0.03800
H 	H 	0.57010 0.89120 0.38640 -0.01000
C 	C 	0.97150 0.37444 0.39150 0.05600
H 	H 	0.93320 0.40700 0.43870 0.00300
C 	C 	0.11520 0.38040 0.34030 -0.10300
H 	H 	0.17220 0.41620 0.35140 0.06800
C 	C 	0.17140 0.33226 0.27280 0.01500
C 	C 	0.07370 0.28222 0.25820 -0.02000
H 	H 	0.10750 0.24910 0.21030 0.01800
C 	C 	0.41670 0.27984 0.22900 -0.02100
H 	H 	0.38330 0.24810 0.28100 0.01800
C 	C 	0.32240 0.33111 0.21390 0.01200
C 	C 	0.37860 0.37780 0.14310 -0.09800
H 	H 	0.32420 0.41420 0.13290 0.06700
C 	C 	0.51940 0.36948 0.08660 0.05100
H 	H 	0.55840 0.40130 0.03780 0.00500
C 	C 	0.90980 0.10634 0.07850 -0.00900
H 	H 	0.91050 0.08560 0.15710 0.01400
C 	C 	0.94530 0.07376 0.96800 0.01900
C 	C 	0.94460 0.10556 0.85520 -0.10700
H 	H 	0.96470 0.08640 0.77720 0.06200
C 	C 	0.91290 0.16761 0.86010 0.05000
H 	H 	0.91690 0.19010 0.78380 -0.01300
C 	C 	0.97930 0.91280 0.08130 0.03600
H 	H 	0.94810 0.88860 0.14970 -0.00700
C 	C 	0.93310 0.97331 0.07770 -0.08000
H 	H 	0.87070 0.98950 0.14070 0.04900
C 	C 	0.98260 0.00830 0.97810 -0.01400
C 	C 	0.07000 0.97845 0.88760 0.02400
H 	H 	0.10210 0.00100 0.81700 0.02200
