data_crystal

_cell_length_a 13.90230
_cell_length_b 14.44050
_cell_length_c 18.26660
_cell_angle_alpha 107.07900
_cell_angle_beta  111.59200
_cell_angle_gamma 94.23200

_symmetry_space_group_name_	'P 1'
_symmetry_space_group_name_H-M	'P 1'

loop_
_symmetry_equiv_pos_as_xyz
  x,y,z

loop_
_atom_site_label
_atom_site_type_symbol
_atom_site_fract_x
_atom_site_fract_y
_atom_site_fract_z
_atom_site_charge
Ag	Ag	0.22634 0.44372 0.10576 0.50900
Ag	Ag	0.34498 0.31955 0.00331 0.46700
Ag	Ag	0.69077 0.90576 0.13086 0.47700
Ag	Ag	0.78700 0.03912 0.32774 0.46000
Ag	Ag	0.72954 0.11909 0.47751 0.49200
Ag	Ag	0.68231 0.31862 0.57877 0.54200
Ag	Ag	0.19522 0.48311 0.27896 0.53500
O 	O 	0.12250 0.29810 0.06860 -0.23900
O 	O 	0.13120 0.31350 0.19590 -0.19800
O 	O 	0.69170 0.09440 0.58650 -0.23900
O 	O 	0.65440 0.22840 0.65850 -0.24000
O 	O 	0.45290 0.60033 0.40326 -0.21800
O 	O 	0.36420 0.44610 0.32130 -0.23300
N 	N 	0.39980 0.51600 0.16375 -0.13600
N 	N 	0.44960 0.46810 0.11720 -0.15100
N 	N 	0.34600 0.19760 0.05895 -0.12900
N 	N 	0.34290 0.10700 0.00735 -0.14400
N 	N 	0.85600 0.88900 0.20061 -0.14300
N 	N 	0.90060 0.95330 0.28018 -0.15000
N 	N 	0.14270 0.60120 0.21860 -0.14200
N 	N 	0.14360 0.57570 0.14160 -0.15300
N 	N 	0.69040 0.91472 0.34108 -0.15000
N 	N 	0.68170 0.94280 0.41504 -0.13000
N 	N 	0.58160 0.16080 0.39289 -0.12900
N 	N 	0.54150 0.22220 0.44033 -0.10800
N 	N 	0.80140 0.39070 0.54332 -0.14800
N 	N 	0.87990 0.46470 0.60440 -0.11200
C 	C 	0.44710 0.60330 0.22210 0.01600
H 	H 	0.41110 0.63500 0.25290 0.04600
C 	C 	0.54870 0.65090 0.24030 0.05200
C 	C 	0.59810 0.60320 0.19220 -0.10600
H 	H 	0.66520 0.63130 0.20020 0.05500
C 	C 	0.54430 0.51120 0.13100 0.07200
H 	H 	0.57740 0.47840 0.09810 -0.01500
C 	C 	0.37560 0.21290 0.13940 0.01700
H 	H 	0.37610 0.27490 0.17400 0.05600
C 	C 	0.40640 0.14140 0.17620 0.07300
C 	C 	0.40450 0.05040 0.12370 -0.10400
H 	H 	0.42520 0.99980 0.14390 0.10200
C 	C 	0.37030 0.03750 0.03890 0.10900
H 	H 	0.36670 0.97560 0.00230 -0.00200
C 	C 	0.90840 0.82390 0.17410 0.03600
H 	H 	0.87730 0.78160 0.11850 0.00400
C 	C 	0.00810 0.81520 0.22520 0.02700
C 	C 	0.05330 0.88180 0.30540 -0.08300
H 	H 	0.12030 0.88130 0.34250 0.07100
C 	C 	0.99620 0.95000 0.32970 0.07300
H 	H 	0.02700 0.99600 0.38390 -0.01000
C 	C 	0.10230 0.67850 0.24350 -0.00300
H 	H 	0.10380 0.69700 0.29720 0.00300
C 	C 	0.05770 0.73380 0.19360 0.06000
C 	C 	0.05620 0.70570 0.11500 -0.12500
H 	H 	0.02590 0.73870 0.07810 0.14400
C 	C 	0.10210 0.62570 0.09240 0.09200
H 	H 	0.10340 0.60660 0.03960 0.00000
C 	C 	0.65050 0.82200 0.28880 0.03600
H 	H 	0.65870 0.80360 0.23850 -0.02400
C 	C 	0.59710 0.75080 0.30560 0.03600
C 	C 	0.58890 0.77940 0.38110 -0.06600
H 	H 	0.55460 0.73550 0.39630 0.10500
C 	C 	0.63420 0.87750 0.43430 0.07700
H 	H 	0.63040 0.89760 0.48620 0.05800
C 	C 	0.53480 0.13360 0.31060 0.06900
H 	H 	0.56230 0.08960 0.27900 -0.00600
C 	C 	0.44630 0.16700 0.26790 0.05100
C 	C 	0.40490 0.22750 0.31650 -0.04100
H 	H 	0.34490 0.25120 0.29250 0.10900
C 	C 	0.45590 0.25220 0.40330 0.11200
H 	H 	0.42760 0.29210 0.43680 0.05500
C 	C 	0.80080 0.36060 0.46760 0.08100
H 	H 	0.74620 0.30960 0.42550 -0.00100
C 	C 	0.87680 0.40090 0.44720 -0.09900
H 	H 	0.87310 0.37680 0.39280 0.07500
C 	C 	0.95730 0.47620 0.50780 0.03100
C 	C 	0.95320 0.50480 0.58680 0.00800
H 	H 	0.00640 0.55600 0.63020 0.04200
C 	C 	0.10570 0.27110 0.12130 0.07700
C 	C 	0.04410 0.16260 0.08470 1.17100
C 	C 	0.66380 0.14200 0.63940 0.11800
C 	C 	0.64410 0.08320 0.69160 0.88300
C 	C 	0.44380 0.51180 0.36540 0.11900
C 	C 	0.54980 0.48110 0.37610 0.85500
F 	F 	0.99010 0.14660 0.12680 -0.31200
F 	F 	0.11450 0.10300 0.09160 -0.29500
F 	F 	0.97820 0.13440 0.00580 -0.26600
F 	F 	0.05900 0.11350 0.01810 -0.30600
F 	F 	0.06800 0.11670 0.13780 -0.29800
F 	F 	0.94390 0.17030 0.06100 -0.34800
F 	F 	0.62110 0.98750 0.65080 -0.48300
F 	F 	0.56780 0.10050 0.71430 -0.51800
F 	F 	0.73020 0.09550 0.75780 -0.46400
F 	F 	0.62270 0.55130 0.38290 -0.48900
F 	F 	0.54220 0.40260 0.31410 -0.50800
F 	F 	0.58910 0.45830 0.44470 -0.49400
Ag	Ag	0.77366 0.55628 0.89424 0.50900
Ag	Ag	0.65502 0.68044 0.99669 0.46700
Ag	Ag	0.30923 0.09424 0.86914 0.47700
Ag	Ag	0.21300 0.96088 0.67226 0.46000
Ag	Ag	0.27046 0.88091 0.52249 0.49200
Ag	Ag	0.31769 0.68138 0.42123 0.54200
Ag	Ag	0.80478 0.51689 0.72104 0.53500
O 	O 	0.87750 0.70190 0.93140 -0.23900
O 	O 	0.86880 0.68650 0.80410 -0.19800
O 	O 	0.30830 0.90560 0.41350 -0.23900
O 	O 	0.34560 0.77160 0.34150 -0.24000
O 	O 	0.54710 0.39967 0.59674 -0.21800
O 	O 	0.63580 0.55390 0.67870 -0.23300
N 	N 	0.60020 0.48400 0.83625 -0.13600
N 	N 	0.55040 0.53190 0.88280 -0.15100
N 	N 	0.65400 0.80240 0.94105 -0.12900
N 	N 	0.65710 0.89300 0.99265 -0.14400
N 	N 	0.14400 0.11100 0.79939 -0.14300
N 	N 	0.09940 0.04670 0.71982 -0.15000
N 	N 	0.85730 0.39880 0.78140 -0.14200
N 	N 	0.85640 0.42430 0.85840 -0.15300
N 	N 	0.30960 0.08528 0.65892 -0.15000
N 	N 	0.31830 0.05720 0.58496 -0.13000
N 	N 	0.41840 0.83920 0.60711 -0.12900
N 	N 	0.45850 0.77780 0.55967 -0.10800
N 	N 	0.19860 0.60930 0.45668 -0.14800
N 	N 	0.12010 0.53530 0.39560 -0.11200
C 	C 	0.55290 0.39670 0.77790 0.01600
H 	H 	0.58890 0.36500 0.74710 0.04600
C 	C 	0.45130 0.34910 0.75970 0.05200
C 	C 	0.40190 0.39680 0.80780 -0.10600
H 	H 	0.33480 0.36870 0.79980 0.05500
C 	C 	0.45570 0.48880 0.86900 0.07200
H 	H 	0.42260 0.52160 0.90190 -0.01500
C 	C 	0.62440 0.78710 0.86060 0.01700
H 	H 	0.62390 0.72510 0.82600 0.05600
C 	C 	0.59360 0.85860 0.82380 0.07300
C 	C 	0.59550 0.94960 0.87630 -0.10400
H 	H 	0.57480 0.00020 0.85610 0.10200
C 	C 	0.62970 0.96250 0.96110 0.10900
H 	H 	0.63330 0.02440 0.99770 -0.00200
C 	C 	0.09160 0.17610 0.82590 0.03600
H 	H 	0.12270 0.21840 0.88150 0.00400
C 	C 	0.99190 0.18480 0.77480 0.02700
C 	C 	0.94670 0.11820 0.69460 -0.08300
H 	H 	0.87970 0.11870 0.65750 0.07100
C 	C 	0.00380 0.05000 0.67030 0.07300
H 	H 	0.97300 0.00400 0.61610 -0.01000
C 	C 	0.89770 0.32150 0.75650 -0.00300
H 	H 	0.89620 0.30300 0.70280 0.00300
C 	C 	0.94230 0.26620 0.80640 0.06000
C 	C 	0.94380 0.29430 0.88500 -0.12500
H 	H 	0.97410 0.26130 0.92190 0.14400
C 	C 	0.89790 0.37430 0.90760 0.09200
H 	H 	0.89660 0.39340 0.96040 0.00000
C 	C 	0.34950 0.17800 0.71120 0.03600
H 	H 	0.34130 0.19640 0.76150 -0.02400
C 	C 	0.40290 0.24920 0.69440 0.03600
C 	C 	0.41110 0.22060 0.61890 -0.06600
H 	H 	0.44540 0.26450 0.60370 0.10500
C 	C 	0.36580 0.12250 0.56570 0.07700
H 	H 	0.36960 0.10240 0.51380 0.05800
C 	C 	0.46520 0.86640 0.68940 0.06900
H 	H 	0.43770 0.91040 0.72100 -0.00600
C 	C 	0.55370 0.83300 0.73210 0.05100
C 	C 	0.59510 0.77250 0.68350 -0.04100
H 	H 	0.65510 0.74880 0.70750 0.10900
C 	C 	0.54410 0.74780 0.59670 0.11200
H 	H 	0.57240 0.70790 0.56320 0.05500
C 	C 	0.19920 0.63940 0.53240 0.08100
H 	H 	0.25380 0.69040 0.57450 -0.00100
C 	C 	0.12320 0.59910 0.55280 -0.09900
H 	H 	0.12690 0.62320 0.60720 0.07500
C 	C 	0.04270 0.52380 0.49220 0.03100
C 	C 	0.04680 0.49520 0.41320 0.00800
H 	H 	0.99360 0.44400 0.36980 0.04200
C 	C 	0.89430 0.72890 0.87870 0.07700
C 	C 	0.95590 0.83740 0.91530 1.17100
C 	C 	0.33620 0.85800 0.36060 0.11800
C 	C 	0.35590 0.91680 0.30840 0.88300
C 	C 	0.55620 0.48820 0.63460 0.11900
C 	C 	0.45020 0.51890 0.62390 0.85500
F 	F 	0.00990 0.85340 0.87320 -0.31200
F 	F 	0.88550 0.89700 0.90840 -0.29500
F 	F 	0.02180 0.86560 0.99420 -0.26600
F 	F 	0.94100 0.88650 0.98190 -0.30600
F 	F 	0.93200 0.88330 0.86220 -0.29800
F 	F 	0.05610 0.82970 0.93900 -0.34800
F 	F 	0.37890 0.01250 0.34920 -0.48300
F 	F 	0.43220 0.89950 0.28570 -0.51800
F 	F 	0.26980 0.90450 0.24220 -0.46400
F 	F 	0.37730 0.44870 0.61710 -0.48900
F 	F 	0.45780 0.59740 0.68590 -0.50800
F 	F 	0.41090 0.54170 0.55530 -0.49400
