data_crystal

_cell_length_a 15.76200
_cell_length_b 15.76200
_cell_length_c 15.76200
_cell_angle_alpha 90.00000
_cell_angle_beta  90.00000
_cell_angle_gamma 90.00000

_symmetry_space_group_name_	'P 1'
_symmetry_space_group_name_H-M	'P 1'

loop_
_symmetry_equiv_pos_as_xyz
  x,y,z

loop_
_atom_site_label
_atom_site_type_symbol
_atom_site_fract_x
_atom_site_fract_y
_atom_site_fract_z
_atom_site_charge
N 	N 	0.23850 0.37580 0.08260 -0.26900
C 	C 	0.23010 0.31900 0.12380 -0.38500
N 	N 	0.76150 0.62420 0.08260 -0.25400
C 	C 	0.76990 0.68100 0.12380 -0.32400
N 	N 	0.76150 0.37580 0.91740 -0.19300
C 	C 	0.76990 0.31900 0.87620 -0.27500
N 	N 	0.23850 0.62420 0.91740 -0.20500
C 	C 	0.23010 0.68100 0.87620 -0.29600
N 	N 	0.08260 0.23850 0.37580 -0.27000
C 	C 	0.12380 0.23010 0.31900 -0.38500
N 	N 	0.08260 0.76150 0.62420 -0.25400
C 	C 	0.12380 0.76990 0.68100 -0.32400
N 	N 	0.91740 0.76150 0.37580 -0.19300
C 	C 	0.87620 0.76990 0.31900 -0.27500
N 	N 	0.91740 0.23850 0.62420 -0.20500
C 	C 	0.87620 0.23010 0.68100 -0.29600
N 	N 	0.37580 0.08260 0.23850 -0.27000
C 	C 	0.31900 0.12380 0.23010 -0.38500
N 	N 	0.62420 0.08260 0.76150 -0.25400
C 	C 	0.68100 0.12380 0.76990 -0.32400
N 	N 	0.37580 0.91740 0.76150 -0.19300
C 	C 	0.31900 0.87620 0.76990 -0.27500
N 	N 	0.62420 0.91740 0.23850 -0.20500
C 	C 	0.68100 0.87620 0.23010 -0.29600
N 	N 	0.87580 0.73850 0.58260 -0.19400
C 	C 	0.81900 0.73010 0.62380 -0.26800
N 	N 	0.12420 0.26150 0.58260 -0.26600
C 	C 	0.18100 0.26990 0.62380 -0.35900
N 	N 	0.87580 0.26150 0.41740 -0.20800
C 	C 	0.81900 0.26990 0.37620 -0.32000
N 	N 	0.12420 0.73850 0.41740 -0.25300
C 	C 	0.18100 0.73010 0.37620 -0.33700
N 	N 	0.73850 0.58260 0.87580 -0.19400
C 	C 	0.73010 0.62380 0.81900 -0.26800
N 	N 	0.26150 0.58260 0.12420 -0.26600
C 	C 	0.26990 0.62380 0.18100 -0.35900
N 	N 	0.26150 0.41740 0.87580 -0.20800
C 	C 	0.26990 0.37620 0.81900 -0.32000
N 	N 	0.73850 0.41740 0.12420 -0.25300
C 	C 	0.73010 0.37620 0.18100 -0.33700
N 	N 	0.58260 0.87580 0.73850 -0.19400
C 	C 	0.62380 0.81900 0.73010 -0.26800
N 	N 	0.58260 0.12420 0.26150 -0.26600
C 	C 	0.62380 0.18100 0.26990 -0.35900
N 	N 	0.41740 0.87580 0.26150 -0.20800
C 	C 	0.37620 0.81900 0.26990 -0.32000
N 	N 	0.41740 0.12420 0.73850 -0.25300
C 	C 	0.37620 0.18100 0.73010 -0.33700
Cd	Cd	0.25000 0.50000 -0.00000 1.05300
Cd	Cd	0.75000 0.50000 -0.00000 1.07000
Cd	Cd	0.00000 0.25000 0.50000 1.05300
Cd	Cd	0.00000 0.75000 0.50000 1.07000
Cd	Cd	0.50000 0.00000 0.25000 1.05300
Cd	Cd	0.50000 0.00000 0.75000 1.07000
Cd	Cd	-0.00000 0.00000 -0.00000 0.99800
Cd	Cd	0.50000 0.50000 0.50000 1.13900
Cd	Cd	0.20687 0.20687 0.20687 1.12400
C 	C 	0.08250 0.08250 0.08250 -0.47000
C 	C 	0.12380 0.12380 0.12380 -0.31100
Cd	Cd	0.79313 0.79313 0.20687 1.14800
C 	C 	0.91750 0.91750 0.08250 -0.18200
C 	C 	0.87620 0.87620 0.12380 -0.27600
Cd	Cd	0.79313 0.20687 0.79313 1.14800
C 	C 	0.91750 0.08250 0.91750 -0.18200
C 	C 	0.87620 0.12380 0.87620 -0.27600
Cd	Cd	0.20687 0.79313 0.79313 1.14800
C 	C 	0.08250 0.91750 0.91750 -0.18200
C 	C 	0.12380 0.87620 0.87620 -0.27600
Cd	Cd	0.70687 0.70687 0.70687 1.15200
C 	C 	0.58250 0.58250 0.58250 -0.28800
C 	C 	0.62380 0.62380 0.62380 -0.25500
Cd	Cd	0.29313 0.29313 0.70687 1.13700
C 	C 	0.41750 0.41750 0.58250 -0.29500
C 	C 	0.37620 0.37620 0.62380 -0.27800
Cd	Cd	0.70687 0.29313 0.29313 1.13700
C 	C 	0.58250 0.41750 0.41750 -0.29500
C 	C 	0.62380 0.37620 0.37620 -0.27800
Cd	Cd	0.29313 0.70687 0.29313 1.13700
C 	C 	0.41750 0.58250 0.41750 -0.29500
C 	C 	0.37620 0.62380 0.37620 -0.27800
