data_crystal

_cell_length_a 15.66100
_cell_length_b 15.66100
_cell_length_c 15.66100
_cell_angle_alpha 90.00000
_cell_angle_beta  90.00000
_cell_angle_gamma 90.00000

_symmetry_space_group_name_	'P 1'
_symmetry_space_group_name_H-M	'P 1'

loop_
_symmetry_equiv_pos_as_xyz
  x,y,z

loop_
_atom_site_label
_atom_site_type_symbol
_atom_site_fract_x
_atom_site_fract_y
_atom_site_fract_z
_atom_site_charge
N 	N 	0.24010 0.37840 0.08440 -0.27000
C 	C 	0.23170 0.32330 0.12370 -0.37700
N 	N 	0.75990 0.62160 0.08440 -0.25700
C 	C 	0.76830 0.67670 0.12370 -0.31500
N 	N 	0.75990 0.37840 0.91560 -0.19600
C 	C 	0.76830 0.32330 0.87630 -0.26500
N 	N 	0.24010 0.62160 0.91560 -0.20700
C 	C 	0.23170 0.67670 0.87630 -0.28600
N 	N 	0.08440 0.24010 0.37840 -0.26900
C 	C 	0.12370 0.23170 0.32330 -0.37600
N 	N 	0.08440 0.75990 0.62160 -0.25600
C 	C 	0.12370 0.76830 0.67670 -0.31400
N 	N 	0.91560 0.75990 0.37840 -0.19500
C 	C 	0.87630 0.76830 0.32330 -0.26400
N 	N 	0.91560 0.24010 0.62160 -0.20700
C 	C 	0.87630 0.23170 0.67670 -0.28600
N 	N 	0.37840 0.08440 0.24010 -0.26900
C 	C 	0.32330 0.12370 0.23170 -0.37600
N 	N 	0.62160 0.08440 0.75990 -0.25600
C 	C 	0.67670 0.12370 0.76830 -0.31400
N 	N 	0.37840 0.91560 0.75990 -0.19500
C 	C 	0.32330 0.87630 0.76830 -0.26400
N 	N 	0.62160 0.91560 0.24010 -0.20700
C 	C 	0.67670 0.87630 0.23170 -0.28600
N 	N 	0.87840 0.74010 0.58440 -0.19600
C 	C 	0.82330 0.73170 0.62370 -0.25600
N 	N 	0.12160 0.25990 0.58440 -0.26800
C 	C 	0.17670 0.26830 0.62370 -0.34900
N 	N 	0.87840 0.25990 0.41560 -0.20800
C 	C 	0.82330 0.26830 0.37630 -0.31000
N 	N 	0.12160 0.74010 0.41560 -0.25500
C 	C 	0.17670 0.73170 0.37630 -0.32700
N 	N 	0.74010 0.58440 0.87840 -0.19600
C 	C 	0.73170 0.62370 0.82330 -0.25600
N 	N 	0.25990 0.58440 0.12160 -0.26800
C 	C 	0.26830 0.62370 0.17670 -0.34900
N 	N 	0.25990 0.41560 0.87840 -0.20800
C 	C 	0.26830 0.37630 0.82330 -0.31000
N 	N 	0.74010 0.41560 0.12160 -0.25500
C 	C 	0.73170 0.37630 0.17670 -0.32700
N 	N 	0.58440 0.87840 0.74010 -0.19600
C 	C 	0.62370 0.82330 0.73170 -0.25600
N 	N 	0.58440 0.12160 0.25990 -0.26800
C 	C 	0.62370 0.17670 0.26830 -0.34900
N 	N 	0.41560 0.87840 0.25990 -0.20800
C 	C 	0.37630 0.82330 0.26830 -0.31000
N 	N 	0.41560 0.12160 0.74010 -0.25500
C 	C 	0.37630 0.17670 0.73170 -0.32700
Cd	Cd	0.25000 0.50000 -0.00000 1.05500
Cd	Cd	0.75000 0.50000 -0.00000 1.07200
Cd	Cd	-0.00000 0.25000 0.50000 1.05500
Cd	Cd	-0.00000 0.75000 0.50000 1.07200
Cd	Cd	0.50000 0.00000 0.25000 1.05500
Cd	Cd	0.50000 -0.00000 0.75000 1.07200
Cd	Cd	-0.00000 0.00000 -0.00000 1.00400
Cd	Cd	0.50000 0.50000 0.50000 1.14700
Cd	Cd	0.20754 0.20754 0.20754 1.11800
C 	C 	0.08127 0.08127 0.08127 -0.47900
C 	C 	0.12520 0.12520 0.12520 -0.33600
Cd	Cd	0.79246 0.79246 0.20754 1.14300
C 	C 	0.91873 0.91873 0.08127 -0.19000
C 	C 	0.87480 0.87480 0.12520 -0.28800
Cd	Cd	0.79246 0.20754 0.79246 1.14300
C 	C 	0.91873 0.08127 0.91873 -0.19000
C 	C 	0.87480 0.12520 0.87480 -0.28800
Cd	Cd	0.20754 0.79246 0.79246 1.14300
C 	C 	0.08127 0.91873 0.91873 -0.19000
C 	C 	0.12520 0.87480 0.87480 -0.28800
Cd	Cd	0.70754 0.70754 0.70754 1.14800
C 	C 	0.58127 0.58127 0.58127 -0.29500
C 	C 	0.62520 0.62520 0.62520 -0.27100
Cd	Cd	0.29246 0.29246 0.70754 1.13200
C 	C 	0.41873 0.41873 0.58127 -0.30300
C 	C 	0.37480 0.37480 0.62520 -0.29500
Cd	Cd	0.70754 0.29246 0.29246 1.13200
C 	C 	0.58127 0.41873 0.41873 -0.30300
C 	C 	0.62520 0.37480 0.37480 -0.29500
Cd	Cd	0.29246 0.70754 0.29246 1.13200
C 	C 	0.41873 0.58127 0.41873 -0.30300
C 	C 	0.37480 0.62520 0.37480 -0.29500
