data_crystal

_cell_length_a 14.04400
_cell_length_b 18.03400
_cell_length_c 12.93100
_cell_angle_alpha 90.00000
_cell_angle_beta  111.47000
_cell_angle_gamma 90.00000

_symmetry_space_group_name_	'P 1'
_symmetry_space_group_name_H-M	'P 1'

loop_
_symmetry_equiv_pos_as_xyz
  x,y,z

loop_
_atom_site_label
_atom_site_type_symbol
_atom_site_fract_x
_atom_site_fract_y
_atom_site_fract_z
_atom_site_charge
Cd	Cd	0.42565 0.36008 0.42064 1.14900
N 	N 	0.17210 0.36880 0.31090 -0.26000
C 	C 	0.25870 0.36810 0.34470 -0.32800
N 	N 	0.00860 0.26900 0.38460 -0.24700
C 	C 	0.47370 0.27430 0.54880 -0.32400
C 	C 	0.48480 0.47010 0.48460 -0.29300
C 	C 	0.48790 0.34470 0.28710 -0.28600
Cd	Cd	0.92565 0.86008 0.42064 1.14600
N 	N 	0.67210 0.86880 0.31090 -0.24900
C 	C 	0.75870 0.86810 0.34470 -0.31100
N 	N 	0.50860 0.76900 0.38460 -0.23200
C 	C 	0.97370 0.77430 0.54880 -0.30300
C 	C 	0.98480 0.97010 0.48460 -0.17000
C 	C 	0.98790 0.84470 0.28710 -0.14100
Cd	Cd	0.57435 0.36008 0.07936 1.15200
N 	N 	0.82790 0.36880 0.18910 -0.23100
C 	C 	0.74130 0.36810 0.15530 -0.30400
N 	N 	0.99140 0.26900 0.11540 -0.20800
C 	C 	0.52630 0.27430 0.95120 -0.33600
C 	C 	0.51520 0.47010 0.01540 -0.26400
C 	C 	0.51210 0.34470 0.21290 -0.28300
Cd	Cd	0.07435 0.86008 0.07936 1.15300
N 	N 	0.32790 0.86880 0.18910 -0.25200
C 	C 	0.24130 0.86810 0.15530 -0.32500
N 	N 	0.49140 0.76900 0.11540 -0.23100
C 	C 	0.02630 0.77430 0.95120 -0.35400
C 	C 	0.01520 0.97010 0.01540 -0.39700
C 	C 	0.01210 0.84470 0.21290 -0.42900
Cd	Cd	0.57435 0.63992 0.57936 1.14900
N 	N 	0.82790 0.63120 0.68910 -0.23300
C 	C 	0.74130 0.63190 0.65530 -0.31100
N 	N 	0.99140 0.73100 0.61540 -0.21000
C 	C 	0.52630 0.72570 0.45120 -0.32400
C 	C 	0.51520 0.52990 0.51540 -0.29200
C 	C 	0.51210 0.65530 0.71290 -0.28700
Cd	Cd	0.07435 0.13992 0.57936 1.15100
N 	N 	0.32790 0.13120 0.68910 -0.25300
C 	C 	0.24130 0.13190 0.65530 -0.32900
N 	N 	0.49140 0.23100 0.61540 -0.23100
C 	C 	0.02630 0.22570 0.45120 -0.34500
C 	C 	0.01520 0.02990 0.51540 -0.41600
C 	C 	0.01210 0.15530 0.71290 -0.42500
Cd	Cd	0.42565 0.63992 0.92064 1.14600
N 	N 	0.17210 0.63120 0.81090 -0.26300
C 	C 	0.25870 0.63190 0.84470 -0.33500
N 	N 	0.00860 0.73100 0.88460 -0.24700
C 	C 	0.47370 0.72570 0.04880 -0.31300
C 	C 	0.48480 0.52990 0.98460 -0.32100
C 	C 	0.48790 0.65530 0.78710 -0.29100
Cd	Cd	0.92565 0.13992 0.92064 1.14300
N 	N 	0.67210 0.13120 0.81090 -0.25000
C 	C 	0.75870 0.13190 0.84470 -0.31600
N 	N 	0.50860 0.23100 0.88460 -0.23200
C 	C 	0.97370 0.22570 0.04880 -0.28800
C 	C 	0.98480 0.02990 0.98460 -0.19100
C 	C 	0.98790 0.15530 0.78710 -0.15100
Cd	Cd	0.00000 0.35448 0.25000 1.09500
Cd	Cd	0.50000 0.85448 0.25000 1.11800
Cd	Cd	0.00000 0.64552 0.75000 1.09400
Cd	Cd	0.50000 0.14552 0.75000 1.11600
