data_crystal

_cell_length_a 3.61540
_cell_length_b 21.21650
_cell_length_c 20.26660
_cell_angle_alpha 90.00000
_cell_angle_beta  90.02800
_cell_angle_gamma 90.00000

_symmetry_space_group_name_	'P 1'
_symmetry_space_group_name_H-M	'P 1'

loop_
_symmetry_equiv_pos_as_xyz
  x,y,z

loop_
_atom_site_label
_atom_site_type_symbol
_atom_site_fract_x
_atom_site_fract_y
_atom_site_fract_z
_atom_site_charge
Cu	Cu	0.49970 0.70741 0.75227 0.76800
N 	N 	0.34650 0.72270 0.84070 -0.29200
N 	N 	0.69400 0.78100 0.16600 -0.29400
C 	C 	0.23100 0.67540 0.87880 0.04900
H 	H 	0.23770 0.63450 0.86230 -0.06100
C 	C 	0.09900 0.68570 0.94280 -0.13100
H 	H 	0.00590 0.65200 0.96700 0.05900
C 	C 	0.91000 0.70930 0.08350 -0.12800
H 	H 	0.95690 0.66770 0.07160 0.05800
C 	C 	0.78200 0.72240 0.14550 0.04700
H 	H 	0.75350 0.68920 0.17500 -0.05100
C 	C 	0.75900 0.82880 0.12210 0.04700
H 	H 	0.72130 0.87010 0.13580 -0.05000
C 	C 	0.87500 0.81830 0.05930 -0.12700
H 	H 	0.89200 0.85210 0.03020 0.05900
C 	C 	0.22700 0.79380 0.92960 -0.12900
H 	H 	0.22420 0.83510 0.94510 0.06000
C 	C 	0.35200 0.78180 0.86660 0.05400
H 	H 	0.44230 0.81490 0.84110 -0.04400
C 	C 	0.97100 0.75770 0.03730 0.04700
C 	C 	0.10440 0.74560 0.97070 0.05200
Cu	Cu	0.49970 0.79259 0.25227 0.76900
N 	N 	0.34650 0.77730 0.34070 -0.29100
N 	N 	0.69400 0.71900 0.66600 -0.29300
C 	C 	0.23100 0.82460 0.37880 0.05000
H 	H 	0.23770 0.86550 0.36230 -0.06000
C 	C 	0.09900 0.81430 0.44280 -0.13000
H 	H 	0.00590 0.84800 0.46700 0.06000
C 	C 	0.91000 0.79070 0.58350 -0.12800
H 	H 	0.95690 0.83230 0.57160 0.05900
C 	C 	0.78200 0.77760 0.64550 0.04800
H 	H 	0.75350 0.81080 0.67500 -0.05100
C 	C 	0.75900 0.67120 0.62210 0.04700
H 	H 	0.72130 0.62990 0.63580 -0.05000
C 	C 	0.87500 0.68170 0.55930 -0.12700
H 	H 	0.89200 0.64790 0.53020 0.05900
C 	C 	0.22700 0.70620 0.42960 -0.12900
H 	H 	0.22420 0.66490 0.44510 0.06000
C 	C 	0.35200 0.71820 0.36660 0.05400
H 	H 	0.44230 0.68510 0.34110 -0.04400
C 	C 	0.97100 0.74230 0.53730 0.04700
C 	C 	0.10440 0.75440 0.47070 0.05200
Cu	Cu	0.50030 0.20741 0.74773 0.76900
N 	N 	0.65350 0.22270 0.65930 -0.29100
N 	N 	0.30600 0.28100 0.33400 -0.29300
C 	C 	0.76900 0.17540 0.62120 0.05000
H 	H 	0.76230 0.13450 0.63770 -0.06000
C 	C 	0.90100 0.18570 0.55720 -0.13000
H 	H 	0.99410 0.15200 0.53300 0.06000
C 	C 	0.09000 0.20930 0.41650 -0.12800
H 	H 	0.04310 0.16770 0.42840 0.05900
C 	C 	0.21800 0.22240 0.35450 0.04800
H 	H 	0.24650 0.18920 0.32500 -0.05100
C 	C 	0.24100 0.32880 0.37790 0.04700
H 	H 	0.27870 0.37010 0.36420 -0.05000
C 	C 	0.12500 0.31830 0.44070 -0.12700
H 	H 	0.10800 0.35210 0.46980 0.05900
C 	C 	0.77300 0.29380 0.57040 -0.12900
H 	H 	0.77580 0.33510 0.55490 0.06000
C 	C 	0.64800 0.28180 0.63340 0.05400
H 	H 	0.55770 0.31490 0.65890 -0.04400
C 	C 	0.02900 0.25770 0.46270 0.04700
C 	C 	0.89560 0.24560 0.52930 0.05200
Cu	Cu	0.50030 0.29259 0.24773 0.76900
N 	N 	0.65350 0.27730 0.15930 -0.29100
N 	N 	0.30600 0.21900 0.83400 -0.29300
C 	C 	0.76900 0.32460 0.12120 0.05000
H 	H 	0.76230 0.36550 0.13770 -0.06000
C 	C 	0.90100 0.31430 0.05720 -0.13000
H 	H 	0.99410 0.34800 0.03300 0.06000
C 	C 	0.09000 0.29070 0.91650 -0.12700
H 	H 	0.04310 0.33230 0.92840 0.05900
C 	C 	0.21800 0.27760 0.85450 0.04800
H 	H 	0.24650 0.31080 0.82500 -0.05100
C 	C 	0.24100 0.17120 0.87790 0.04700
H 	H 	0.27870 0.12990 0.86420 -0.05000
C 	C 	0.12500 0.18170 0.94070 -0.12700
H 	H 	0.10800 0.14790 0.96980 0.05900
C 	C 	0.77300 0.20620 0.07040 -0.12900
H 	H 	0.77580 0.16490 0.05490 0.06000
C 	C 	0.64800 0.21820 0.13340 0.05400
H 	H 	0.55770 0.18510 0.15890 -0.04400
C 	C 	0.02900 0.24230 0.96270 0.04700
C 	C 	0.89560 0.25440 0.02930 0.05200
