data_crystal

_cell_length_a 14.08500
_cell_length_b 14.01900
_cell_length_c 24.13000
_cell_angle_alpha 90.00000
_cell_angle_beta  90.00000
_cell_angle_gamma 90.00000

_symmetry_space_group_name_	'P 1'
_symmetry_space_group_name_H-M	'P 1'

loop_
_symmetry_equiv_pos_as_xyz
  x,y,z

loop_
_atom_site_label
_atom_site_type_symbol
_atom_site_fract_x
_atom_site_fract_y
_atom_site_fract_z
_atom_site_charge
Zn	Zn	0.43961 0.09067 0.37345 1.22700
O 	O 	0.54910 0.16400 0.39410 -0.50000
O 	O 	0.59100 0.11330 0.47780 -0.46200
O 	O 	0.80700 0.32520 0.59170 -0.35200
O 	O 	0.87890 0.44160 0.55040 -0.50600
O 	O 	0.47980 0.95830 0.35570 -0.41300
O 	O 	0.53600 0.91400 0.43830 -0.44400
O 	O 	0.59330 0.61330 0.20370 -0.41500
O 	O 	0.56330 0.76830 0.19310 -0.26000
C 	C 	0.65060 0.25940 0.44600 -0.14600
C 	C 	0.70220 0.27860 0.49370 0.07200
H 	H 	0.70030 0.23520 0.52290 0.03500
C 	C 	0.75660 0.36110 0.49920 -0.12300
C 	C 	0.75590 0.42640 0.45720 0.06000
H 	H 	0.78930 0.48320 0.46100 0.02700
C 	C 	0.70610 0.40860 0.40910 -0.12100
H 	H 	0.70730 0.45300 0.38040 0.08000
C 	C 	0.65470 0.32630 0.40320 0.06400
H 	H 	0.62220 0.31480 0.37030 0.03800
C 	C 	0.59200 0.17160 0.43900 0.42600
C 	C 	0.81720 0.37620 0.55080 0.36400
C 	C 	0.55540 0.80910 0.36380 -0.12500
C 	C 	0.55220 0.79380 0.30690 0.06100
H 	H 	0.52740 0.84110 0.28400 0.05700
C 	C 	0.58480 0.71030 0.28360 -0.10100
C 	C 	0.62090 0.64150 0.31770 0.05100
H 	H 	0.64210 0.58420 0.30280 0.03800
C 	C 	0.62620 0.65640 0.37400 -0.11200
H 	H 	0.65380 0.61040 0.39660 0.07700
C 	C 	0.59080 0.73920 0.39710 0.06300
H 	H 	0.59110 0.74720 0.43540 0.03000
C 	C 	0.52080 0.90080 0.38800 0.41200
C 	C 	0.58040 0.69790 0.22250 0.33700
Zn	Zn	0.06039 0.90933 0.87345 1.24100
O 	O 	0.95090 0.83600 0.89410 -0.43800
O 	O 	0.90900 0.88670 0.97780 -0.36300
O 	O 	0.69300 0.67480 0.09170 -0.34100
O 	O 	0.62110 0.55840 0.05040 -0.52800
O 	O 	0.02020 0.04170 0.85570 -0.55400
O 	O 	0.96400 0.08600 0.93830 -0.46300
O 	O 	0.90670 0.38670 0.70370 -0.40900
O 	O 	0.93670 0.23170 0.69310 -0.26200
C 	C 	0.84940 0.74060 0.94600 -0.13700
C 	C 	0.79780 0.72140 0.99370 0.14100
H 	H 	0.79970 0.76480 0.02290 -0.00200
C 	C 	0.74340 0.63890 0.99920 -0.09100
C 	C 	0.74410 0.57360 0.95720 0.04800
H 	H 	0.71070 0.51680 0.96100 0.04000
C 	C 	0.79390 0.59140 0.90910 -0.10500
H 	H 	0.79270 0.54700 0.88040 0.07800
C 	C 	0.84530 0.67370 0.90320 0.06300
H 	H 	0.87780 0.68520 0.87030 0.05400
C 	C 	0.90800 0.82840 0.93900 0.42200
C 	C 	0.68280 0.62380 0.05080 0.32800
C 	C 	0.94460 0.19090 0.86380 -0.15800
C 	C 	0.94780 0.20620 0.80690 0.08800
H 	H 	0.97260 0.15890 0.78400 0.04600
C 	C 	0.91520 0.28970 0.78360 -0.11700
C 	C 	0.87910 0.35850 0.81770 0.07100
H 	H 	0.85790 0.41580 0.80280 0.03500
C 	C 	0.87380 0.34360 0.87400 -0.12700
H 	H 	0.84620 0.38960 0.89660 0.09000
C 	C 	0.90920 0.26080 0.89710 0.09200
H 	H 	0.90890 0.25280 0.93540 0.03600
C 	C 	0.97920 0.09920 0.88800 0.49400
C 	C 	0.91960 0.30210 0.72250 0.34500
Zn	Zn	0.56039 0.59067 0.12655 1.24000
O 	O 	0.45090 0.66400 0.10590 -0.48300
O 	O 	0.40900 0.61330 0.02220 -0.45200
O 	O 	0.19300 0.82520 0.90830 -0.35400
O 	O 	0.12110 0.94160 0.94960 -0.49700
O 	O 	0.52020 0.45830 0.14430 -0.45600
O 	O 	0.46400 0.41400 0.06170 -0.48300
O 	O 	0.40670 0.11330 0.29630 -0.44400
O 	O 	0.43670 0.26830 0.30690 -0.27600
C 	C 	0.34940 0.75940 0.05400 -0.10300
C 	C 	0.29780 0.77860 0.00630 -0.02400
H 	H 	0.29970 0.73520 0.97710 0.10300
C 	C 	0.24340 0.86110 0.00080 -0.12100
C 	C 	0.24410 0.92640 0.04280 0.04600
H 	H 	0.21070 0.98320 0.03900 0.04500
C 	C 	0.29390 0.90860 0.09090 -0.09400
H 	H 	0.29270 0.95300 0.11960 0.09000
C 	C 	0.34530 0.82630 0.09680 0.04000
H 	H 	0.37780 0.81480 0.12970 0.05300
C 	C 	0.40800 0.67160 0.06100 0.40900
C 	C 	0.18280 0.87620 0.94920 0.39000
C 	C 	0.44460 0.30910 0.13620 -0.14900
C 	C 	0.44780 0.29380 0.19310 0.07600
H 	H 	0.47260 0.34110 0.21600 0.04100
C 	C 	0.41520 0.21030 0.21640 -0.12800
C 	C 	0.37910 0.14150 0.18230 0.06200
H 	H 	0.35790 0.08420 0.19720 0.01000
C 	C 	0.37380 0.15640 0.12600 -0.13600
H 	H 	0.34620 0.11040 0.10340 0.06100
C 	C 	0.40920 0.23920 0.10290 0.07700
H 	H 	0.40890 0.24720 0.06460 0.01200
C 	C 	0.47920 0.40080 0.11200 0.42500
C 	C 	0.41960 0.19790 0.27750 0.34300
Zn	Zn	0.93961 0.40933 0.62655 1.24900
O 	O 	0.04910 0.33600 0.60590 -0.52100
O 	O 	0.09100 0.38670 0.52220 -0.45800
O 	O 	0.30700 0.17480 0.40830 -0.36900
O 	O 	0.37890 0.05840 0.44960 -0.55100
O 	O 	0.97980 0.54170 0.64430 -0.38200
O 	O 	0.03600 0.58600 0.56170 -0.46800
O 	O 	0.09330 0.88670 0.79630 -0.40600
O 	O 	0.06330 0.73170 0.80690 -0.28600
C 	C 	0.15060 0.24060 0.55400 -0.16100
C 	C 	0.20220 0.22140 0.50630 0.07900
H 	H 	0.20030 0.26480 0.47710 0.03000
C 	C 	0.25660 0.13890 0.50080 -0.14600
C 	C 	0.25590 0.07360 0.54280 0.06800
H 	H 	0.28930 0.01680 0.53900 -0.00100
C 	C 	0.20610 0.09140 0.59090 -0.14100
H 	H 	0.20730 0.04700 0.61960 0.06100
C 	C 	0.15470 0.17370 0.59680 0.06800
H 	H 	0.12220 0.18520 0.62970 0.02000
C 	C 	0.09200 0.32840 0.56100 0.42900
C 	C 	0.31720 0.12380 0.44920 0.37100
C 	C 	0.05540 0.69090 0.63620 -0.12000
C 	C 	0.05220 0.70620 0.69310 0.05000
H 	H 	0.02740 0.65890 0.71600 0.03500
C 	C 	0.08480 0.78970 0.71640 -0.10500
C 	C 	0.12090 0.85850 0.68230 0.04900
H 	H 	0.14210 0.91580 0.69720 0.05000
C 	C 	0.12620 0.84360 0.62600 -0.11100
H 	H 	0.15380 0.88960 0.60340 0.09100
C 	C 	0.09080 0.76080 0.60290 0.05500
H 	H 	0.09110 0.75280 0.56460 0.02900
C 	C 	0.02080 0.59920 0.61200 0.34000
C 	C 	0.08040 0.80210 0.77750 0.33300
Zn	Zn	0.56039 0.90933 0.62655 1.25200
O 	O 	0.45090 0.83600 0.60590 -0.47200
O 	O 	0.40900 0.88670 0.52220 -0.40700
O 	O 	0.19300 0.67480 0.40830 -0.35600
O 	O 	0.12110 0.55840 0.44960 -0.53700
O 	O 	0.52020 0.04170 0.64430 -0.49300
O 	O 	0.46400 0.08600 0.56170 -0.48700
O 	O 	0.40670 0.38670 0.79630 -0.42100
O 	O 	0.43670 0.23170 0.80690 -0.28100
C 	C 	0.34940 0.74060 0.55400 -0.12900
C 	C 	0.29780 0.72140 0.50630 0.06400
H 	H 	0.29970 0.76480 0.47710 0.04700
C 	C 	0.24340 0.63890 0.50080 -0.12000
C 	C 	0.24410 0.57360 0.54280 0.05300
H 	H 	0.21070 0.51680 0.53900 0.02700
C 	C 	0.29390 0.59140 0.59090 -0.11100
H 	H 	0.29270 0.54700 0.61960 0.07400
C 	C 	0.34530 0.67370 0.59680 0.05500
H 	H 	0.37780 0.68520 0.62970 0.04400
C 	C 	0.40800 0.82840 0.56100 0.41800
C 	C 	0.18280 0.62380 0.44920 0.36400
C 	C 	0.44460 0.19090 0.63620 -0.15200
C 	C 	0.44780 0.20620 0.69310 0.07700
H 	H 	0.47260 0.15890 0.71600 0.03300
C 	C 	0.41520 0.28970 0.71640 -0.12400
C 	C 	0.37910 0.35850 0.68230 0.06600
H 	H 	0.35790 0.41580 0.69720 0.02900
C 	C 	0.37380 0.34360 0.62600 -0.13200
H 	H 	0.34620 0.38960 0.60340 0.08300
C 	C 	0.40920 0.26080 0.60290 0.08100
H 	H 	0.40890 0.25280 0.56460 0.02400
C 	C 	0.47920 0.09920 0.61200 0.42600
C 	C 	0.41960 0.30210 0.77750 0.34200
Zn	Zn	0.93961 0.09067 0.12655 1.23700
O 	O 	0.04910 0.16400 0.10590 -0.53000
O 	O 	0.09100 0.11330 0.02220 -0.49500
O 	O 	0.30700 0.32520 0.90830 -0.36700
O 	O 	0.37890 0.44160 0.94960 -0.51600
O 	O 	0.97980 0.95830 0.14430 -0.34200
O 	O 	0.03600 0.91400 0.06170 -0.45300
O 	O 	0.09330 0.61330 0.29630 -0.42700
O 	O 	0.06330 0.76830 0.30690 -0.28000
C 	C 	0.15060 0.25940 0.05400 -0.13200
C 	C 	0.20220 0.27860 0.00630 -0.01300
H 	H 	0.20030 0.23520 0.97710 0.09000
C 	C 	0.25660 0.36110 0.00080 -0.14900
C 	C 	0.25590 0.42640 0.04280 0.06100
H 	H 	0.28930 0.48320 0.03900 0.01500
C 	C 	0.20610 0.40860 0.09090 -0.12300
H 	H 	0.20730 0.45300 0.11960 0.07500
C 	C 	0.15470 0.32630 0.09680 0.05200
H 	H 	0.12220 0.31480 0.12970 0.03000
C 	C 	0.09200 0.17160 0.06100 0.41700
C 	C 	0.31720 0.37620 0.94920 0.40100
C 	C 	0.05540 0.80910 0.13620 -0.11400
C 	C 	0.05220 0.79380 0.19310 0.04700
H 	H 	0.02740 0.84110 0.21600 0.04400
C 	C 	0.08480 0.71030 0.21640 -0.10700
C 	C 	0.12090 0.64150 0.18230 0.04400
H 	H 	0.14210 0.58420 0.19720 0.03300
C 	C 	0.12620 0.65640 0.12600 -0.11300
H 	H 	0.15380 0.61040 0.10340 0.06800
C 	C 	0.09080 0.73920 0.10290 0.04800
H 	H 	0.09110 0.74720 0.06460 0.01900
C 	C 	0.02080 0.90080 0.11200 0.33400
C 	C 	0.08040 0.69790 0.27750 0.33300
Zn	Zn	0.43961 0.40933 0.87345 1.24000
O 	O 	0.54910 0.33600 0.89410 -0.48900
O 	O 	0.59100 0.38670 0.97780 -0.41800
O 	O 	0.80700 0.17480 0.09170 -0.35400
O 	O 	0.87890 0.05840 0.05040 -0.53800
O 	O 	0.47980 0.54170 0.85570 -0.45100
O 	O 	0.53600 0.58600 0.93830 -0.45200
O 	O 	0.59330 0.88670 0.70370 -0.39300
O 	O 	0.56330 0.73170 0.69310 -0.26600
C 	C 	0.65060 0.24060 0.94600 -0.17200
C 	C 	0.70220 0.22140 0.99370 0.16200
H 	H 	0.70030 0.26480 0.02290 -0.02300
C 	C 	0.75660 0.13890 0.99920 -0.11700
C 	C 	0.75590 0.07360 0.95720 0.06400
H 	H 	0.78930 0.01680 0.96100 0.01300
C 	C 	0.70610 0.09140 0.90910 -0.13600
H 	H 	0.70730 0.04700 0.88040 0.06400
C 	C 	0.65470 0.17370 0.90320 0.07900
H 	H 	0.62220 0.18520 0.87030 0.02900
C 	C 	0.59200 0.32840 0.93900 0.43600
C 	C 	0.81720 0.12380 0.05080 0.33200
C 	C 	0.55540 0.69090 0.86380 -0.12900
C 	C 	0.55220 0.70620 0.80690 0.06300
H 	H 	0.52740 0.65890 0.78400 0.04800
C 	C 	0.58480 0.78970 0.78360 -0.09800
C 	C 	0.62090 0.85850 0.81770 0.05600
H 	H 	0.64210 0.91580 0.80280 0.05600
C 	C 	0.62620 0.84360 0.87400 -0.10800
H 	H 	0.65380 0.88960 0.89660 0.09900
C 	C 	0.59080 0.76080 0.89710 0.06800
H 	H 	0.59110 0.75280 0.93540 0.04000
C 	C 	0.52080 0.59920 0.88800 0.41500
C 	C 	0.58040 0.80210 0.72250 0.33600
Zn	Zn	0.06039 0.59067 0.37345 1.23000
O 	O 	0.95090 0.66400 0.39410 -0.44900
O 	O 	0.90900 0.61330 0.47780 -0.41200
O 	O 	0.69300 0.82520 0.59170 -0.33900
O 	O 	0.62110 0.94160 0.55040 -0.49000
O 	O 	0.02020 0.45830 0.35570 -0.52300
O 	O 	0.96400 0.41400 0.43830 -0.46500
O 	O 	0.90670 0.11330 0.20370 -0.43200
O 	O 	0.93670 0.26830 0.19310 -0.25600
C 	C 	0.84940 0.75940 0.44600 -0.11300
C 	C 	0.79780 0.77860 0.49370 0.05700
H 	H 	0.79970 0.73520 0.52290 0.05300
C 	C 	0.74340 0.86110 0.49920 -0.09700
C 	C 	0.74410 0.92640 0.45720 0.04500
H 	H 	0.71070 0.98320 0.46100 0.05600
C 	C 	0.79390 0.90860 0.40910 -0.09000
H 	H 	0.79270 0.95300 0.38040 0.09500
C 	C 	0.84530 0.82630 0.40320 0.05100
H 	H 	0.87780 0.81480 0.37030 0.06200
C 	C 	0.90800 0.67160 0.43900 0.41500
C 	C 	0.68280 0.87620 0.55080 0.35700
C 	C 	0.94460 0.30910 0.36380 -0.15800
C 	C 	0.94780 0.29380 0.30690 0.08900
H 	H 	0.97260 0.34110 0.28400 0.05400
C 	C 	0.91520 0.21030 0.28360 -0.12200
C 	C 	0.87910 0.14150 0.31770 0.06800
H 	H 	0.85790 0.08420 0.30280 0.01500
C 	C 	0.87380 0.15640 0.37400 -0.13300
H 	H 	0.84620 0.11040 0.39660 0.06800
C 	C 	0.90920 0.23920 0.39710 0.09000
H 	H 	0.90890 0.24720 0.43540 0.02400
C 	C 	0.97920 0.40080 0.38800 0.49900
C 	C 	0.91960 0.19790 0.22250 0.34600
Zn	Zn	0.50000 0.00000 0.50000 1.22100
Zn	Zn	-0.00000 0.00000 -0.00000 1.18900
Zn	Zn	0.50000 0.50000 -0.00000 1.23000
Zn	Zn	-0.00000 0.50000 0.50000 1.22500
