data_crystal

_cell_length_a 13.93350
_cell_length_b 14.10200
_cell_length_c 24.57220
_cell_angle_alpha 90.00000
_cell_angle_beta  90.00000
_cell_angle_gamma 90.00000

_symmetry_space_group_name_	'P 1'
_symmetry_space_group_name_H-M	'P 1'

loop_
_symmetry_equiv_pos_as_xyz
  x,y,z

loop_
_atom_site_label
_atom_site_type_symbol
_atom_site_fract_x
_atom_site_fract_y
_atom_site_fract_z
_atom_site_charge
Co	Co	0.43012 0.09594 0.62672 1.17600
O 	O 	0.30390 0.15730 0.59249 -0.39600
O 	O 	0.38110 0.05380 0.54455 -0.51400
O 	O 	0.08600 0.38210 0.48295 -0.43400
O 	O 	0.03840 0.33150 0.40122 -0.49100
O 	O 	0.46750 0.96310 0.64380 -0.39300
O 	O 	0.54110 0.92550 0.56599 -0.41400
O 	O 	0.55890 0.77550 0.80657 -0.25900
O 	O 	0.58540 0.62210 0.79436 -0.39900
C 	C 	0.25070 0.13250 0.50050 -0.14100
C 	C 	0.19690 0.21530 0.49686 0.06700
H 	H 	0.19680 0.25820 0.52560 0.03100
C 	C 	0.14340 0.23440 0.45045 -0.14200
C 	C 	0.14290 0.16880 0.40796 0.05000
H 	H 	0.10750 0.18120 0.37660 0.02500
C 	C 	0.19460 0.08600 0.41220 -0.12400
H 	H 	0.19260 0.04210 0.38400 0.05500
C 	C 	0.24940 0.06730 0.45792 0.05300
H 	H 	0.28510 0.01170 0.46020 0.00700
C 	C 	0.31510 0.11460 0.54806 0.36100
C 	C 	0.08470 0.32420 0.44506 0.40400
C 	C 	0.55290 0.81860 0.63812 -0.10600
C 	C 	0.54670 0.80280 0.69384 0.04400
H 	H 	0.51900 0.84850 0.71610 0.06000
C 	C 	0.58150 0.71980 0.71656 -0.08500
C 	C 	0.62220 0.65160 0.68330 0.03100
H 	H 	0.64530 0.59550 0.69820 0.04400
C 	C 	0.62870 0.66730 0.62750 -0.09000
H 	H 	0.65550 0.62110 0.60520 0.06900
C 	C 	0.59550 0.75110 0.60490 0.04000
H 	H 	0.60170 0.76210 0.56780 0.03600
C 	C 	0.51730 0.90940 0.61367 0.39300
C 	C 	0.57480 0.70600 0.77724 0.33600
Co	Co	0.06988 0.90406 0.12672 1.19300
O 	O 	0.19610 0.84270 0.09249 -0.39200
O 	O 	0.11890 0.94620 0.04455 -0.49000
O 	O 	0.41400 0.61790 0.98295 -0.40800
O 	O 	0.46160 0.66850 0.90122 -0.46100
O 	O 	0.03250 0.03690 0.14380 -0.53500
O 	O 	0.95890 0.07450 0.06599 -0.45900
O 	O 	0.94110 0.22450 0.30657 -0.26400
O 	O 	0.91460 0.37790 0.29436 -0.39400
C 	C 	0.24930 0.86750 0.00050 -0.25000
C 	C 	0.30310 0.78470 0.99686 0.22100
H 	H 	0.30320 0.74180 0.02560 -0.03000
C 	C 	0.35660 0.76560 0.95045 -0.19900
C 	C 	0.35710 0.83120 0.90796 0.13600
H 	H 	0.39250 0.81880 0.87660 0.02100
C 	C 	0.30540 0.91400 0.91220 -0.19600
H 	H 	0.30740 0.95790 0.88400 0.12600
C 	C 	0.25060 0.93270 0.95792 0.17400
H 	H 	0.21490 0.98830 0.96020 0.01300
C 	C 	0.18490 0.88540 0.04806 0.39500
C 	C 	0.41530 0.67580 0.94506 0.43000
C 	C 	0.94710 0.18140 0.13812 -0.14500
C 	C 	0.95330 0.19720 0.19384 0.07400
H 	H 	0.98100 0.15150 0.21610 0.04800
C 	C 	0.91850 0.28020 0.21656 -0.10300
C 	C 	0.87780 0.34840 0.18330 0.05100
H 	H 	0.85470 0.40450 0.19820 0.03900
C 	C 	0.87130 0.33270 0.12750 -0.11100
H 	H 	0.84450 0.37890 0.10520 0.07900
C 	C 	0.90450 0.24890 0.10490 0.07300
H 	H 	0.89830 0.23790 0.06780 0.02800
C 	C 	0.98270 0.09060 0.11367 0.48000
C 	C 	0.92520 0.29400 0.27724 0.34400
Co	Co	0.56988 0.59594 0.87328 1.19300
O 	O 	0.69610 0.65730 0.90751 -0.35700
O 	O 	0.61890 0.55380 0.95545 -0.46700
O 	O 	0.91400 0.88210 0.01705 -0.36300
O 	O 	0.96160 0.83150 0.09878 -0.40200
O 	O 	0.53250 0.46310 0.85620 -0.43100
O 	O 	0.45890 0.42550 0.93401 -0.43200
O 	O 	0.44110 0.27550 0.69343 -0.27800
O 	O 	0.41460 0.12210 0.70564 -0.42600
C 	C 	0.74930 0.63250 0.99950 0.03000
C 	C 	0.80310 0.71530 0.00314 -0.11000
H 	H 	0.80320 0.75820 0.97440 0.12600
C 	C 	0.85660 0.73440 0.04955 -0.01500
C 	C 	0.85710 0.66880 0.09204 -0.05700
H 	H 	0.89250 0.68120 0.12340 0.09300
C 	C 	0.80540 0.58600 0.08780 0.01600
H 	H 	0.80740 0.54210 0.11600 0.03500
C 	C 	0.75060 0.56730 0.04208 -0.09100
H 	H 	0.71490 0.51170 0.03980 0.07400
C 	C 	0.68490 0.61460 0.95194 0.30900
C 	C 	0.91530 0.82420 0.05494 0.35800
C 	C 	0.44710 0.31860 0.86188 -0.11800
C 	C 	0.45330 0.30280 0.80616 0.05000
H 	H 	0.48100 0.34850 0.78390 0.04700
C 	C 	0.41850 0.21980 0.78344 -0.10500
C 	C 	0.37780 0.15160 0.81670 0.03300
H 	H 	0.35470 0.09550 0.80180 0.02000
C 	C 	0.37130 0.16730 0.87250 -0.10200
H 	H 	0.34450 0.12110 0.89480 0.05400
C 	C 	0.40450 0.25110 0.89510 0.04200
H 	H 	0.39830 0.26210 0.93220 0.03700
C 	C 	0.48270 0.40940 0.88633 0.39700
C 	C 	0.42520 0.20600 0.72276 0.34100
Co	Co	0.93012 0.40406 0.37328 1.20400
O 	O 	0.80390 0.34270 0.40751 -0.37800
O 	O 	0.88110 0.44620 0.45545 -0.47000
O 	O 	0.58600 0.11790 0.51705 -0.43700
O 	O 	0.53840 0.16850 0.59878 -0.46800
O 	O 	0.96750 0.53690 0.35620 -0.36500
O 	O 	0.04110 0.57450 0.43401 -0.43800
O 	O 	0.05890 0.72450 0.19343 -0.29500
O 	O 	0.08540 0.87790 0.20564 -0.39500
C 	C 	0.75070 0.36750 0.49950 -0.11800
C 	C 	0.69690 0.28470 0.50314 0.06000
H 	H 	0.69680 0.24180 0.47440 0.03700
C 	C 	0.64340 0.26560 0.54955 -0.12700
C 	C 	0.64290 0.33120 0.59204 0.04600
H 	H 	0.60750 0.31880 0.62340 0.04300
C 	C 	0.69460 0.41400 0.58780 -0.10400
H 	H 	0.69260 0.45790 0.61600 0.07400
C 	C 	0.74940 0.43270 0.54208 0.04600
H 	H 	0.78510 0.48830 0.53980 0.03300
C 	C 	0.81510 0.38540 0.45194 0.35400
C 	C 	0.58470 0.17580 0.55494 0.40100
C 	C 	0.05290 0.68140 0.36188 -0.10300
C 	C 	0.04670 0.69720 0.30616 0.03500
H 	H 	0.01900 0.65150 0.28390 0.03600
C 	C 	0.08150 0.78020 0.28344 -0.09300
C 	C 	0.12220 0.84840 0.31670 0.03100
H 	H 	0.14530 0.90450 0.30180 0.05300
C 	C 	0.12870 0.83270 0.37250 -0.09300
H 	H 	0.15550 0.87890 0.39480 0.08200
C 	C 	0.09550 0.74890 0.39510 0.03400
H 	H 	0.10170 0.73790 0.43220 0.03500
C 	C 	0.01730 0.59060 0.38633 0.32100
C 	C 	0.07480 0.79400 0.22276 0.33400
Co	Co	0.56988 0.90406 0.37328 1.20800
O 	O 	0.69610 0.84270 0.40751 -0.36400
O 	O 	0.61890 0.94620 0.45545 -0.45600
O 	O 	0.91400 0.61790 0.51705 -0.38900
O 	O 	0.96160 0.66850 0.59878 -0.42000
O 	O 	0.53250 0.03690 0.35620 -0.47100
O 	O 	0.45890 0.07450 0.43401 -0.45900
O 	O 	0.44110 0.22450 0.19343 -0.28900
O 	O 	0.41460 0.37790 0.20564 -0.40800
C 	C 	0.74930 0.86750 0.49950 -0.09400
C 	C 	0.80310 0.78470 0.50314 0.04700
H 	H 	0.80320 0.74180 0.47440 0.05300
C 	C 	0.85660 0.76560 0.54955 -0.09700
C 	C 	0.85710 0.83120 0.59204 0.03500
H 	H 	0.89250 0.81880 0.62340 0.06700
C 	C 	0.80540 0.91400 0.58780 -0.07700
H 	H 	0.80740 0.95790 0.61600 0.09000
C 	C 	0.75060 0.93270 0.54208 0.03500
H 	H 	0.71490 0.98830 0.53980 0.05900
C 	C 	0.68490 0.88540 0.45194 0.34700
C 	C 	0.91530 0.67580 0.55494 0.39200
C 	C 	0.44710 0.18140 0.36188 -0.13100
C 	C 	0.45330 0.19720 0.30616 0.05800
H 	H 	0.48100 0.15150 0.28390 0.03600
C 	C 	0.41850 0.28020 0.28344 -0.10800
C 	C 	0.37780 0.34840 0.31670 0.04300
H 	H 	0.35470 0.40450 0.30180 0.03400
C 	C 	0.37130 0.33270 0.37250 -0.10800
H 	H 	0.34450 0.37890 0.39480 0.07300
C 	C 	0.40450 0.24890 0.39510 0.05500
H 	H 	0.39830 0.23790 0.43220 0.03200
C 	C 	0.48270 0.09060 0.38633 0.40500
C 	C 	0.42520 0.29400 0.22276 0.34200
Co	Co	0.93012 0.09594 0.87328 1.18900
O 	O 	0.80390 0.15730 0.90751 -0.37000
O 	O 	0.88110 0.05380 0.95545 -0.47300
O 	O 	0.58600 0.38210 0.01705 -0.42100
O 	O 	0.53840 0.33150 0.09878 -0.45300
O 	O 	0.96750 0.96310 0.85620 -0.32500
O 	O 	0.04110 0.92550 0.93401 -0.40100
O 	O 	0.05890 0.77550 0.69343 -0.28400
O 	O 	0.08540 0.62210 0.70564 -0.41300
C 	C 	0.75070 0.13250 0.99950 0.01100
C 	C 	0.69690 0.21530 0.00314 -0.10200
H 	H 	0.69680 0.25820 0.97440 0.11200
C 	C 	0.64340 0.23440 0.04955 -0.04300
C 	C 	0.64290 0.16880 0.09204 -0.04800
H 	H 	0.60750 0.18120 0.12340 0.07000
C 	C 	0.69460 0.08600 0.08780 -0.00900
H 	H 	0.69260 0.04210 0.11600 0.01900
C 	C 	0.74940 0.06730 0.04208 -0.08400
H 	H 	0.78510 0.01170 0.03980 0.05100
C 	C 	0.81510 0.11460 0.95194 0.31200
C 	C 	0.58470 0.32420 0.05494 0.36800
C 	C 	0.05290 0.81860 0.86188 -0.08800
C 	C 	0.04670 0.80280 0.80616 0.02600
H 	H 	0.01900 0.84850 0.78390 0.04800
C 	C 	0.08150 0.71980 0.78344 -0.08900
C 	C 	0.12220 0.65160 0.81670 0.02100
H 	H 	0.14530 0.59550 0.80180 0.03900
C 	C 	0.12870 0.66730 0.87250 -0.08500
H 	H 	0.15550 0.62110 0.89480 0.06300
C 	C 	0.09550 0.75110 0.89510 0.02000
H 	H 	0.10170 0.76210 0.93220 0.04100
C 	C 	0.01730 0.90940 0.88633 0.31100
C 	C 	0.07480 0.70600 0.72276 0.33300
Co	Co	0.43012 0.40406 0.12672 1.19000
O 	O 	0.30390 0.34270 0.09249 -0.40700
O 	O 	0.38110 0.44620 0.04455 -0.51200
O 	O 	0.08600 0.11790 0.98295 -0.44500
O 	O 	0.03840 0.16850 0.90122 -0.50500
O 	O 	0.46750 0.53690 0.14380 -0.43500
O 	O 	0.54110 0.57450 0.06599 -0.44800
O 	O 	0.55890 0.72450 0.30657 -0.27000
O 	O 	0.58540 0.87790 0.29436 -0.38100
C 	C 	0.25070 0.36750 0.00050 -0.27900
C 	C 	0.19690 0.28470 0.99686 0.23900
H 	H 	0.19680 0.24180 0.02560 -0.04800
C 	C 	0.14340 0.26560 0.95045 -0.23000
C 	C 	0.14290 0.33120 0.90796 0.14900
H 	H 	0.10750 0.31880 0.87660 -0.00300
C 	C 	0.19460 0.41400 0.91220 -0.22600
H 	H 	0.19260 0.45790 0.88400 0.11200
C 	C 	0.24940 0.43270 0.95792 0.19000
H 	H 	0.28510 0.48830 0.96020 -0.01400
C 	C 	0.31510 0.38540 0.04806 0.40500
C 	C 	0.08470 0.17580 0.94506 0.43700
C 	C 	0.55290 0.68140 0.13812 -0.12000
C 	C 	0.54670 0.69720 0.19384 0.05200
H 	H 	0.51900 0.65150 0.21610 0.04800
C 	C 	0.58150 0.78020 0.21656 -0.08900
C 	C 	0.62220 0.84840 0.18330 0.04100
H 	H 	0.64530 0.90450 0.19820 0.05800
C 	C 	0.62870 0.83270 0.12750 -0.09700
H 	H 	0.65550 0.87890 0.10520 0.08900
C 	C 	0.59550 0.74890 0.10490 0.05400
H 	H 	0.60170 0.73790 0.06780 0.03100
C 	C 	0.51730 0.59060 0.11367 0.40300
C 	C 	0.57480 0.79400 0.27724 0.33700
Co	Co	0.06988 0.59594 0.62672 1.17800
O 	O 	0.19610 0.65730 0.59249 -0.38400
O 	O 	0.11890 0.55380 0.54455 -0.50300
O 	O 	0.41400 0.88210 0.48295 -0.38700
O 	O 	0.46160 0.83150 0.40122 -0.44400
O 	O 	0.03250 0.46310 0.64380 -0.49800
O 	O 	0.95890 0.42550 0.56599 -0.43700
O 	O 	0.94110 0.27550 0.80657 -0.25500
O 	O 	0.91460 0.12210 0.79436 -0.41400
C 	C 	0.24930 0.63250 0.50050 -0.11800
C 	C 	0.30310 0.71530 0.49686 0.05400
H 	H 	0.30320 0.75820 0.52560 0.04600
C 	C 	0.35660 0.73440 0.45045 -0.11300
C 	C 	0.35710 0.66880 0.40796 0.03900
H 	H 	0.39250 0.68120 0.37660 0.04800
C 	C 	0.30540 0.58600 0.41220 -0.09800
H 	H 	0.30740 0.54210 0.38400 0.07000
C 	C 	0.25060 0.56730 0.45792 0.04200
H 	H 	0.21490 0.51170 0.46020 0.03100
C 	C 	0.18490 0.61460 0.54806 0.35500
C 	C 	0.41530 0.82420 0.44506 0.39500
C 	C 	0.94710 0.31860 0.63812 -0.13300
C 	C 	0.95330 0.30280 0.69384 0.06700
H 	H 	0.98100 0.34850 0.71610 0.05900
C 	C 	0.91850 0.21980 0.71656 -0.10100
C 	C 	0.87780 0.15160 0.68330 0.04200
H 	H 	0.85470 0.09550 0.69820 0.02400
C 	C 	0.87130 0.16730 0.62750 -0.10600
H 	H 	0.84450 0.12110 0.60520 0.05900
C 	C 	0.90450 0.25110 0.60490 0.06100
H 	H 	0.89830 0.26210 0.56780 0.03300
C 	C 	0.98270 0.40940 0.61367 0.47500
C 	C 	0.92520 0.20600 0.77724 0.34400
Co	Co	0.50000 0.00000 0.50000 1.17700
Co	Co	-0.00000 0.00000 -0.00000 1.14100
Co	Co	0.50000 0.50000 -0.00000 1.19800
Co	Co	0.00000 0.50000 0.50000 1.18300
