data_crystal

_cell_length_a 16.40110
_cell_length_b 7.17860
_cell_length_c 14.25860
_cell_angle_alpha 90.00000
_cell_angle_beta  90.00000
_cell_angle_gamma 90.00000

_symmetry_space_group_name_	'P 1'
_symmetry_space_group_name_H-M	'P 1'

loop_
_symmetry_equiv_pos_as_xyz
  x,y,z

loop_
_atom_site_label
_atom_site_type_symbol
_atom_site_fract_x
_atom_site_fract_y
_atom_site_fract_z
_atom_site_charge
O 	O 	0.59187 0.56111 0.73336 -0.39200
O 	O 	0.54019 0.80989 0.65830 -0.19500
O 	O 	0.56026 0.63816 0.46344 -0.22500
O 	O 	0.58410 0.94104 0.43363 -0.31700
C 	C 	0.67589 0.71908 0.62452 -0.03000
C 	C 	0.67626 0.77558 0.53074 -0.01700
C 	C 	0.59580 0.69471 0.67606 0.31900
C 	C 	0.59980 0.78639 0.47228 0.31300
O 	O 	0.09187 0.06111 0.23336 -0.44200
O 	O 	0.04019 0.30989 0.15830 -0.28600
O 	O 	0.06026 0.13816 0.96344 -0.31100
O 	O 	0.08410 0.44104 0.93363 -0.39100
C 	C 	0.17589 0.21908 0.12452 -0.05800
C 	C 	0.17626 0.27558 0.03074 -0.01000
C 	C 	0.09580 0.19471 0.17606 0.33100
C 	C 	0.09980 0.28639 0.97228 0.31500
O 	O 	0.40813 0.43889 0.73336 -0.38200
O 	O 	0.45981 0.19011 0.65830 -0.26400
O 	O 	0.43974 0.36184 0.46344 -0.23000
O 	O 	0.41590 0.05896 0.43363 -0.40500
C 	C 	0.32411 0.28092 0.62452 -0.03600
C 	C 	0.32374 0.22442 0.53074 -0.03900
C 	C 	0.40420 0.30529 0.67606 0.32100
C 	C 	0.40020 0.21361 0.47228 0.32400
O 	O 	0.90813 0.93889 0.23336 -0.29600
O 	O 	0.95981 0.69011 0.15830 -0.15900
O 	O 	0.93974 0.86184 0.96344 -0.14100
O 	O 	0.91590 0.55896 0.93363 -0.32600
C 	C 	0.82411 0.78092 0.12452 -0.02600
C 	C 	0.82374 0.72442 0.03074 0.00800
C 	C 	0.90420 0.80529 0.17606 0.31100
C 	C 	0.90020 0.71361 0.97228 0.29300
O 	O 	0.09187 0.43889 0.73336 -0.40600
O 	O 	0.04019 0.19011 0.65830 -0.31100
O 	O 	0.06026 0.36184 0.46344 -0.27200
O 	O 	0.08410 0.05896 0.43363 -0.43200
C 	C 	0.17589 0.28092 0.62452 -0.04200
C 	C 	0.17626 0.22442 0.53074 -0.04500
C 	C 	0.09580 0.30529 0.67606 0.32500
C 	C 	0.09980 0.21361 0.47228 0.33000
O 	O 	0.59187 0.93889 0.23336 -0.33700
O 	O 	0.54019 0.69011 0.15830 -0.21200
O 	O 	0.56026 0.86184 0.96344 -0.18900
O 	O 	0.58410 0.55896 0.93363 -0.37200
C 	C 	0.67589 0.78092 0.12452 -0.03300
C 	C 	0.67626 0.72442 0.03074 0.00200
C 	C 	0.59580 0.80529 0.17606 0.31900
C 	C 	0.59980 0.71361 0.97228 0.30200
O 	O 	0.90813 0.56111 0.73336 -0.34900
O 	O 	0.95981 0.80989 0.65830 -0.14000
O 	O 	0.93974 0.63816 0.46344 -0.17600
O 	O 	0.91590 0.94104 0.43363 -0.27100
C 	C 	0.82411 0.71908 0.62452 -0.02200
C 	C 	0.82374 0.77558 0.53074 -0.01000
C 	C 	0.90420 0.69471 0.67606 0.31100
C 	C 	0.90020 0.78639 0.47228 0.30400
O 	O 	0.40813 0.06111 0.23336 -0.41900
O 	O 	0.45981 0.30989 0.15830 -0.23900
O 	O 	0.43974 0.13816 0.96344 -0.27000
O 	O 	0.41590 0.44104 0.93363 -0.36300
C 	C 	0.32411 0.21908 0.12452 -0.05200
C 	C 	0.32374 0.27558 0.03074 -0.00500
C 	C 	0.40420 0.19471 0.17606 0.32700
C 	C 	0.40020 0.28639 0.97228 0.31000
Co	Co	0.50000 0.50000 0.82749 1.16700
Co	Co	0.00000 -0.00000 0.32749 1.07700
Co	Co	0.00000 0.50000 0.82749 1.12000
Co	Co	0.50000 -0.00000 0.32749 1.12300
C 	C 	0.75000 0.69080 0.67061 0.00000
H 	H 	0.75000 0.65170 0.73430 0.06000
C 	C 	0.75000 0.80560 0.48435 -0.01200
H 	H 	0.75000 0.84650 0.42100 0.06700
C 	C 	0.25000 0.19080 0.17061 0.01300
H 	H 	0.25000 0.15170 0.23430 0.04700
C 	C 	0.25000 0.30560 0.98435 -0.04200
H 	H 	0.25000 0.34650 0.92100 0.06500
C 	C 	0.25000 0.30920 0.67061 -0.00300
H 	H 	0.25000 0.34830 0.73430 0.05600
C 	C 	0.25000 0.19440 0.48435 -0.00200
H 	H 	0.25000 0.15350 0.42100 0.04700
C 	C 	0.75000 0.80920 0.17061 0.00600
H 	H 	0.75000 0.84830 0.23430 0.06500
C 	C 	0.75000 0.69440 0.98435 -0.04300
H 	H 	0.75000 0.65350 0.92100 0.06900
