data_crystal

_cell_length_a 16.76670
_cell_length_b 16.76670
_cell_length_c 16.76670
_cell_angle_alpha 90.00000
_cell_angle_beta  90.00000
_cell_angle_gamma 90.00000

_symmetry_space_group_name_	'P 1'
_symmetry_space_group_name_H-M	'P 1'

loop_
_symmetry_equiv_pos_as_xyz
  x,y,z

loop_
_atom_site_label
_atom_site_type_symbol
_atom_site_fract_x
_atom_site_fract_y
_atom_site_fract_z
_atom_site_charge
O 	O 	0.09225 0.52284 0.19480 -0.61000
O 	O 	0.59225 0.02284 0.69480 -0.62200
O 	O 	0.90775 0.47716 0.19480 -0.39200
O 	O 	0.40775 0.97716 0.69480 -0.32000
O 	O 	0.90775 0.52284 0.80520 -0.35800
O 	O 	0.40775 0.02284 0.30520 -0.66200
O 	O 	0.09225 0.47716 0.80520 -0.57200
O 	O 	0.59225 0.97716 0.30520 -0.32900
O 	O 	0.19480 0.09225 0.52284 -0.60900
O 	O 	0.69480 0.59225 0.02284 -0.62100
O 	O 	0.19480 0.90775 0.47716 -0.39100
O 	O 	0.69480 0.40775 0.97716 -0.32000
O 	O 	0.80520 0.90775 0.52284 -0.35800
O 	O 	0.30520 0.40775 0.02284 -0.66200
O 	O 	0.80520 0.09225 0.47716 -0.57200
O 	O 	0.30520 0.59225 0.97716 -0.32900
O 	O 	0.52284 0.19480 0.09225 -0.60900
O 	O 	0.02284 0.69480 0.59225 -0.62100
O 	O 	0.47716 0.19480 0.90775 -0.39100
O 	O 	0.97716 0.69480 0.40775 -0.32000
O 	O 	0.52284 0.80520 0.90775 -0.35800
O 	O 	0.02284 0.30520 0.40775 -0.66200
O 	O 	0.47716 0.80520 0.09225 -0.57200
O 	O 	0.97716 0.30520 0.59225 -0.32900
O 	O 	0.52284 0.09225 0.19480 -0.60900
O 	O 	0.02284 0.59225 0.69480 -0.62100
O 	O 	0.47716 0.90775 0.19480 -0.39100
O 	O 	0.97716 0.40775 0.69480 -0.32000
O 	O 	0.52284 0.90775 0.80520 -0.35800
O 	O 	0.02284 0.40775 0.30520 -0.66200
O 	O 	0.47716 0.09225 0.80520 -0.57200
O 	O 	0.97716 0.59225 0.30520 -0.32900
O 	O 	0.09225 0.19480 0.52284 -0.60900
O 	O 	0.59225 0.69480 0.02284 -0.62100
O 	O 	0.90775 0.19480 0.47716 -0.39100
O 	O 	0.40775 0.69480 0.97716 -0.32000
O 	O 	0.90775 0.80520 0.52284 -0.35800
O 	O 	0.40775 0.30520 0.02284 -0.66200
O 	O 	0.09225 0.80520 0.47716 -0.57200
O 	O 	0.59225 0.30520 0.97716 -0.32900
O 	O 	0.19480 0.52284 0.09225 -0.60900
O 	O 	0.69480 0.02284 0.59225 -0.62100
O 	O 	0.19480 0.47716 0.90775 -0.39100
O 	O 	0.69480 0.97716 0.40775 -0.32000
O 	O 	0.80520 0.52284 0.90775 -0.35800
O 	O 	0.30520 0.02284 0.40775 -0.66200
O 	O 	0.80520 0.47716 0.09225 -0.57200
O 	O 	0.30520 0.97716 0.59225 -0.32900
Mg	Mg	-0.00000 0.50000 0.25000 1.45300
Mg	Mg	0.00000 0.50000 0.75000 1.45400
Mg	Mg	0.50000 0.00000 0.25000 1.45300
Mg	Mg	0.25000 0.00000 0.50000 1.45300
Mg	Mg	0.75000 0.00000 0.50000 1.45400
Mg	Mg	0.25000 0.50000 -0.00000 1.45300
Mg	Mg	0.50000 0.25000 -0.00000 1.45300
Mg	Mg	0.50000 0.75000 -0.00000 1.45400
Mg	Mg	-0.00000 0.25000 0.50000 1.45300
Mg	Mg	0.50000 0.00000 0.75000 1.45400
Mg	Mg	0.00000 0.75000 0.50000 1.45400
Mg	Mg	0.75000 0.50000 -0.00000 1.45400
Mg	Mg	-0.00000 0.50000 -0.00000 1.43200
Mg	Mg	0.50000 0.00000 0.50000 1.46200
Mg	Mg	0.00000 0.00000 0.50000 1.43200
Mg	Mg	0.50000 0.50000 -0.00000 1.46200
Mg	Mg	0.50000 0.00000 -0.00000 1.43200
Mg	Mg	0.00000 0.50000 0.50000 1.46200
P 	P 	0.12193 0.56890 0.12193 0.61000
O 	O 	0.14294 0.65380 0.14294 -0.31200
O 	O 	0.05710 0.56580 0.05710 -0.81700
P 	P 	0.62193 0.06890 0.62193 0.61800
O 	O 	0.64294 0.15380 0.64294 -0.20200
O 	O 	0.55710 0.06580 0.55710 -0.66300
P 	P 	0.87807 0.43110 0.12193 0.60900
O 	O 	0.85706 0.34620 0.14294 -0.21900
O 	O 	0.94290 0.43420 0.05710 -0.54100
P 	P 	0.37807 0.93110 0.62193 0.60300
O 	O 	0.35706 0.84620 0.64294 -0.16300
O 	O 	0.44290 0.93420 0.55710 -0.41700
P 	P 	0.87807 0.56890 0.87807 0.60800
O 	O 	0.85706 0.65380 0.85706 -0.03200
O 	O 	0.94290 0.56580 0.94290 -0.23300
P 	P 	0.37807 0.06890 0.37807 0.61600
O 	O 	0.35706 0.15380 0.35706 -0.25500
O 	O 	0.44290 0.06580 0.44290 -0.66500
P 	P 	0.12193 0.43110 0.87807 0.60900
O 	O 	0.14294 0.34620 0.85706 -0.21900
O 	O 	0.05710 0.43420 0.94290 -0.54100
P 	P 	0.62193 0.93110 0.37807 0.60300
O 	O 	0.64294 0.84620 0.35706 -0.16300
O 	O 	0.55710 0.93420 0.44290 -0.41700
P 	P 	0.12193 0.12193 0.56890 0.61000
O 	O 	0.14294 0.14294 0.65380 -0.31200
O 	O 	0.05710 0.05710 0.56580 -0.81700
P 	P 	0.62193 0.62193 0.06890 0.61800
O 	O 	0.64294 0.64294 0.15380 -0.20200
O 	O 	0.55710 0.55710 0.06580 -0.66300
P 	P 	0.12193 0.87807 0.43110 0.60900
O 	O 	0.14294 0.85706 0.34620 -0.21900
O 	O 	0.05710 0.94290 0.43420 -0.54100
P 	P 	0.62193 0.37807 0.93110 0.60300
O 	O 	0.64294 0.35706 0.84620 -0.16300
O 	O 	0.55710 0.44290 0.93420 -0.41700
P 	P 	0.87807 0.87807 0.56890 0.60800
O 	O 	0.85706 0.85706 0.65380 -0.03200
O 	O 	0.94290 0.94290 0.56580 -0.23300
P 	P 	0.37807 0.37807 0.06890 0.61600
O 	O 	0.35706 0.35706 0.15380 -0.25500
O 	O 	0.44290 0.44290 0.06580 -0.66500
P 	P 	0.87807 0.12193 0.43110 0.60900
O 	O 	0.85706 0.14294 0.34620 -0.21900
O 	O 	0.94290 0.05710 0.43420 -0.54100
P 	P 	0.37807 0.62193 0.93110 0.60300
O 	O 	0.35706 0.64294 0.84620 -0.16300
O 	O 	0.44290 0.55710 0.93420 -0.41700
P 	P 	0.56890 0.12193 0.12193 0.61000
O 	O 	0.65380 0.14294 0.14294 -0.31200
O 	O 	0.56580 0.05710 0.05710 -0.81700
P 	P 	0.06890 0.62193 0.62193 0.61800
O 	O 	0.15380 0.64294 0.64294 -0.20200
O 	O 	0.06580 0.55710 0.55710 -0.66300
P 	P 	0.43110 0.12193 0.87807 0.60900
O 	O 	0.34620 0.14294 0.85706 -0.21900
O 	O 	0.43420 0.05710 0.94290 -0.54100
P 	P 	0.93110 0.62193 0.37807 0.60300
O 	O 	0.84620 0.64294 0.35706 -0.16300
O 	O 	0.93420 0.55710 0.44290 -0.41700
P 	P 	0.56890 0.87807 0.87807 0.60800
O 	O 	0.65380 0.85706 0.85706 -0.03200
O 	O 	0.56580 0.94290 0.94290 -0.23300
P 	P 	0.06890 0.37807 0.37807 0.61600
O 	O 	0.15380 0.35706 0.35706 -0.25500
O 	O 	0.06580 0.44290 0.44290 -0.66500
P 	P 	0.43110 0.87807 0.12193 0.60900
O 	O 	0.34620 0.85706 0.14294 -0.21900
O 	O 	0.43420 0.94290 0.05710 -0.54100
P 	P 	0.93110 0.37807 0.62193 0.60300
O 	O 	0.84620 0.35706 0.64294 -0.16300
O 	O 	0.93420 0.44290 0.55710 -0.41700
