data_crystal

_cell_length_a 29.11480
_cell_length_b 16.01200
_cell_length_c 16.70970
_cell_angle_alpha 90.00000
_cell_angle_beta  90.00000
_cell_angle_gamma 90.00000

_symmetry_space_group_name_	'P 1'
_symmetry_space_group_name_H-M	'P 1'

loop_
_symmetry_equiv_pos_as_xyz
  x,y,z

loop_
_atom_site_label
_atom_site_type_symbol
_atom_site_fract_x
_atom_site_fract_y
_atom_site_fract_z
_atom_site_charge
Cd	Cd	0.45574 0.79545 0.16173 1.22700
C 	C 	0.63430 0.78260 0.14280 0.05600
H 	H 	0.62980 0.79300 0.19760 0.02800
N 	N 	0.45672 0.64850 0.16690 -0.23500
O 	O 	0.54076 0.79560 0.19600 -0.49100
C 	C 	0.54901 0.78960 0.12260 0.37100
N 	N 	0.45506 0.94000 0.16700 -0.24000
O 	O 	0.87564 0.70860 0.83580 -0.39400
O 	O 	0.51724 0.79250 0.07220 -0.40100
C 	C 	0.45380 0.47510 0.17000 0.09900
C 	C 	0.45260 0.11380 0.17100 0.11500
O 	O 	0.90465 0.71210 0.95340 -0.37700
C 	C 	0.87150 0.71300 0.90910 0.35400
C 	C 	0.68690 0.75730 0.03620 0.05500
C 	C 	0.43870 0.60780 0.22870 0.09200
H 	H 	0.42740 0.63950 0.27170 -0.00800
C 	C 	0.45200 0.38410 0.17200 -0.02400
C 	C 	0.45210 0.20770 0.17210 -0.03200
C 	C 	0.43990 0.98190 0.23110 0.10100
H 	H 	0.43000 0.95140 0.27590 -0.01100
C 	C 	0.41500 0.33840 0.20350 -0.01900
C 	C 	0.73470 0.74530 0.00390 0.04800
C 	C 	0.82360 0.72450 0.94340 -0.11100
C 	C 	0.41470 0.25130 0.20240 -0.00500
C 	C 	0.47020 0.98630 0.10630 0.10500
H 	H 	0.48300 0.95880 0.06190 -0.01500
C 	C 	0.59748 0.77810 0.09380 -0.13700
C 	C 	0.43550 0.52220 0.23360 -0.15500
H 	H 	0.42170 0.49620 0.27790 0.08900
C 	C 	0.47290 0.51780 0.10690 -0.16000
H 	H 	0.48540 0.48890 0.06300 0.08400
C 	C 	0.47320 0.60560 0.10910 0.10200
H 	H 	0.48640 0.63440 0.06570 -0.01100
C 	C 	0.43830 0.06620 0.23400 -0.17200
H 	H 	0.42710 0.09260 0.28030 0.09500
C 	C 	0.46830 0.07120 0.10510 -0.17700
H 	H 	0.47780 0.10060 0.05930 0.10300
C 	C 	0.78670 0.73060 0.89290 0.04600
H 	H 	0.79130 0.72800 0.83730 0.03500
C 	C 	0.48960 0.25160 0.14090 -0.03400
H 	H 	0.51490 0.22250 0.11980 0.05300
C 	C 	0.67880 0.77220 0.11440 -0.11600
H 	H 	0.70370 0.77570 0.15020 0.07800
C 	C 	0.48940 0.33730 0.14130 -0.03900
H 	H 	0.51490 0.36600 0.12050 0.04800
C 	C 	0.81560 0.72780 0.02240 0.04600
H 	H 	0.84040 0.72190 0.05790 0.04000
C 	C 	0.64960 0.74990 0.98640 -0.11400
H 	H 	0.65430 0.73750 0.93210 0.07700
C 	C 	0.74280 0.74060 0.92300 -0.10700
H 	H 	0.71800 0.74430 0.88720 0.08000
C 	C 	0.60500 0.76020 0.01460 0.05100
H 	H 	0.58010 0.75490 0.97930 0.03100
C 	C 	0.77150 0.73960 0.05360 -0.10600
H 	H 	0.76730 0.74360 0.10930 0.08100
O 	O 	0.33660 0.25160 0.25870 -0.13800
C 	C 	0.36980 0.21260 0.22960 0.06500
H 	H 	0.36670 0.15450 0.22410 0.02100
C 	C 	0.36910 0.36950 0.23060 0.09000
H 	H 	0.36500 0.42720 0.22300 0.01600
O 	O 	0.33600 0.33560 0.26000 -0.14500
Cd	Cd	0.04426 0.70455 0.66173 1.22600
C 	C 	0.86570 0.71740 0.64280 0.05800
H 	H 	0.87020 0.70700 0.69760 0.02600
N 	N 	0.04328 0.85150 0.66690 -0.23600
O 	O 	0.95924 0.70440 0.69600 -0.49300
C 	C 	0.95099 0.71040 0.62260 0.37200
N 	N 	0.04494 0.56000 0.66700 -0.24200
O 	O 	0.62436 0.79140 0.33580 -0.39500
O 	O 	0.98276 0.70750 0.57220 -0.40200
C 	C 	0.04620 0.02490 0.67000 0.09500
C 	C 	0.04740 0.38620 0.67100 0.11700
O 	O 	0.59535 0.78790 0.45340 -0.37700
C 	C 	0.62850 0.78700 0.40910 0.35400
C 	C 	0.81310 0.74270 0.53620 0.05800
C 	C 	0.06130 0.89220 0.72870 0.09000
H 	H 	0.07260 0.86050 0.77170 -0.00800
C 	C 	0.04800 0.11590 0.67200 -0.02200
C 	C 	0.04790 0.29230 0.67210 -0.03300
C 	C 	0.06010 0.51810 0.73110 0.10400
H 	H 	0.07000 0.54860 0.77590 -0.01100
C 	C 	0.08500 0.16160 0.70350 -0.02000
C 	C 	0.76530 0.75470 0.50390 0.04900
C 	C 	0.67640 0.77550 0.44340 -0.11300
C 	C 	0.08530 0.24870 0.70240 -0.00400
C 	C 	0.02980 0.51370 0.60630 0.10800
H 	H 	0.01700 0.54120 0.56190 -0.01500
C 	C 	0.90252 0.72190 0.59380 -0.13900
C 	C 	0.06450 0.97780 0.73360 -0.15100
H 	H 	0.07830 0.00380 0.77790 0.08700
C 	C 	0.02710 0.98220 0.60690 -0.15700
H 	H 	0.01460 0.01110 0.56300 0.08300
C 	C 	0.02680 0.89440 0.60910 0.10000
H 	H 	0.01360 0.86560 0.56570 -0.01000
C 	C 	0.06170 0.43380 0.73400 -0.17500
H 	H 	0.07290 0.40740 0.78030 0.09600
C 	C 	0.03170 0.42880 0.60510 -0.18000
H 	H 	0.02220 0.39940 0.55930 0.10400
C 	C 	0.71330 0.76940 0.39290 0.04700
H 	H 	0.70870 0.77200 0.33730 0.03500
C 	C 	0.01040 0.24840 0.64090 -0.03300
H 	H 	0.98510 0.27750 0.61980 0.05200
C 	C 	0.82120 0.72780 0.61440 -0.11800
H 	H 	0.79630 0.72430 0.65020 0.07900
C 	C 	0.01060 0.16270 0.64130 -0.04000
H 	H 	0.98510 0.13400 0.62050 0.04900
C 	C 	0.68440 0.77220 0.52240 0.04900
H 	H 	0.65960 0.77810 0.55790 0.03900
C 	C 	0.85040 0.75010 0.48640 -0.11900
H 	H 	0.84570 0.76250 0.43210 0.07800
C 	C 	0.75720 0.75940 0.42300 -0.10900
H 	H 	0.78200 0.75570 0.38720 0.08000
C 	C 	0.89500 0.73980 0.51460 0.05700
H 	H 	0.91990 0.74510 0.47930 0.02800
C 	C 	0.72850 0.76040 0.55360 -0.10700
H 	H 	0.73270 0.75640 0.60930 0.08100
O 	O 	0.16340 0.24840 0.75870 -0.13800
C 	C 	0.13020 0.28740 0.72960 0.06400
H 	H 	0.13330 0.34550 0.72410 0.02100
C 	C 	0.13090 0.13050 0.73060 0.09000
H 	H 	0.13500 0.07280 0.72300 0.01600
O 	O 	0.16400 0.16440 0.76000 -0.14500
Cd	Cd	0.54426 0.79545 0.33827 1.22600
C 	C 	0.36570 0.78260 0.35720 0.05800
H 	H 	0.37020 0.79300 0.30240 0.02600
N 	N 	0.54328 0.64850 0.33310 -0.23600
O 	O 	0.45924 0.79560 0.30400 -0.49300
C 	C 	0.45099 0.78960 0.37740 0.37200
N 	N 	0.54494 0.94000 0.33300 -0.24100
O 	O 	0.12436 0.70860 0.66420 -0.39500
O 	O 	0.48276 0.79250 0.42780 -0.40200
C 	C 	0.54620 0.47510 0.33000 0.09800
C 	C 	0.54740 0.11380 0.32900 0.11600
O 	O 	0.09535 0.71210 0.54660 -0.37700
C 	C 	0.12850 0.71300 0.59090 0.35400
C 	C 	0.31310 0.75730 0.46380 0.05800
C 	C 	0.56130 0.60780 0.27130 0.09200
H 	H 	0.57260 0.63950 0.22830 -0.00800
C 	C 	0.54800 0.38410 0.32800 -0.02400
C 	C 	0.54790 0.20770 0.32790 -0.03200
C 	C 	0.56010 0.98190 0.26890 0.10200
H 	H 	0.57000 0.95140 0.22410 -0.01100
C 	C 	0.58500 0.33840 0.29650 -0.01900
C 	C 	0.26530 0.74530 0.49610 0.04900
C 	C 	0.17640 0.72450 0.55660 -0.11300
C 	C 	0.58530 0.25130 0.29760 -0.00500
C 	C 	0.52980 0.98630 0.39370 0.10700
H 	H 	0.51700 0.95880 0.43810 -0.01500
C 	C 	0.40252 0.77810 0.40620 -0.13900
C 	C 	0.56450 0.52220 0.26640 -0.15500
H 	H 	0.57830 0.49620 0.22210 0.08900
C 	C 	0.52710 0.51780 0.39310 -0.16000
H 	H 	0.51460 0.48890 0.43700 0.08400
C 	C 	0.52680 0.60560 0.39090 0.10200
H 	H 	0.51360 0.63440 0.43430 -0.01100
C 	C 	0.56170 0.06620 0.26600 -0.17300
H 	H 	0.57290 0.09260 0.21970 0.09500
C 	C 	0.53170 0.07120 0.39490 -0.17900
H 	H 	0.52220 0.10060 0.44070 0.10300
C 	C 	0.21330 0.73060 0.60710 0.04700
H 	H 	0.20870 0.72800 0.66270 0.03500
C 	C 	0.51040 0.25160 0.35910 -0.03400
H 	H 	0.48510 0.22250 0.38020 0.05300
C 	C 	0.32120 0.77220 0.38560 -0.11800
H 	H 	0.29630 0.77570 0.34980 0.07900
C 	C 	0.51060 0.33730 0.35870 -0.03900
H 	H 	0.48510 0.36600 0.37950 0.04800
C 	C 	0.18440 0.72780 0.47760 0.04900
H 	H 	0.15960 0.72190 0.44210 0.03900
C 	C 	0.35040 0.74990 0.51360 -0.11900
H 	H 	0.34570 0.73750 0.56790 0.07800
C 	C 	0.25720 0.74060 0.57700 -0.10900
H 	H 	0.28200 0.74430 0.61280 0.08000
C 	C 	0.39500 0.76020 0.48540 0.05700
H 	H 	0.41990 0.75490 0.52070 0.02800
C 	C 	0.22850 0.73960 0.44640 -0.10700
H 	H 	0.23270 0.74360 0.39070 0.08100
O 	O 	0.66340 0.25160 0.24130 -0.13800
C 	C 	0.63020 0.21260 0.27040 0.06400
H 	H 	0.63330 0.15450 0.27590 0.02100
C 	C 	0.63090 0.36950 0.26940 0.09000
H 	H 	0.63500 0.42720 0.27700 0.01600
O 	O 	0.66400 0.33560 0.24000 -0.14500
Cd	Cd	0.95574 0.70455 0.83827 1.22600
C 	C 	0.13430 0.71740 0.85720 0.06000
H 	H 	0.12980 0.70700 0.80240 0.02500
N 	N 	0.95672 0.85150 0.83310 -0.23500
O 	O 	0.04076 0.70440 0.80400 -0.49300
C 	C 	0.04901 0.71040 0.87740 0.37300
N 	N 	0.95506 0.56000 0.83300 -0.24200
O 	O 	0.37564 0.79140 0.16420 -0.39500
O 	O 	0.01724 0.70750 0.92780 -0.40200
C 	C 	0.95380 0.02490 0.83000 0.09200
C 	C 	0.95260 0.38620 0.82900 0.11700
O 	O 	0.40465 0.78790 0.04660 -0.37800
C 	C 	0.37150 0.78700 0.09090 0.35500
C 	C 	0.18690 0.74270 0.96380 0.06100
C 	C 	0.93870 0.89220 0.77130 0.08900
H 	H 	0.92740 0.86050 0.72830 -0.00700
C 	C 	0.95200 0.11590 0.82800 -0.02100
C 	C 	0.95210 0.29230 0.82790 -0.03300
C 	C 	0.93990 0.51810 0.76890 0.10400
H 	H 	0.93000 0.54860 0.72410 -0.01100
C 	C 	0.91500 0.16160 0.79650 -0.02000
C 	C 	0.23470 0.75470 0.99610 0.04900
C 	C 	0.32360 0.77550 0.05660 -0.11500
C 	C 	0.91470 0.24870 0.79760 -0.00400
C 	C 	0.97020 0.51370 0.89370 0.10800
H 	H 	0.98300 0.54120 0.93810 -0.01500
C 	C 	0.09748 0.72190 0.90620 -0.14200
C 	C 	0.93550 0.97780 0.76640 -0.14900
H 	H 	0.92170 0.00380 0.72210 0.08600
C 	C 	0.97290 0.98220 0.89310 -0.15300
H 	H 	0.98540 0.01110 0.93700 0.08100
C 	C 	0.97320 0.89440 0.89090 0.09800
H 	H 	0.98640 0.86560 0.93430 -0.00900
C 	C 	0.93830 0.43380 0.76600 -0.17600
H 	H 	0.92710 0.40740 0.71970 0.09600
C 	C 	0.96830 0.42880 0.89490 -0.18000
H 	H 	0.97780 0.39940 0.94070 0.10400
C 	C 	0.28670 0.76940 0.10710 0.04900
H 	H 	0.29130 0.77200 0.16270 0.03400
C 	C 	0.98960 0.24840 0.85910 -0.03300
H 	H 	0.01490 0.27750 0.88020 0.05200
C 	C 	0.17880 0.72780 0.88560 -0.12100
H 	H 	0.20370 0.72430 0.84980 0.07900
C 	C 	0.98940 0.16270 0.85870 -0.04100
H 	H 	0.01490 0.13400 0.87950 0.04900
C 	C 	0.31560 0.77220 0.97760 0.05100
H 	H 	0.34040 0.77810 0.94210 0.03900
C 	C 	0.14960 0.75010 0.01360 -0.12400
H 	H 	0.15430 0.76250 0.06790 0.08000
C 	C 	0.24280 0.75940 0.07700 -0.11100
H 	H 	0.21800 0.75570 0.11280 0.08100
C 	C 	0.10500 0.73980 0.98540 0.06200
H 	H 	0.08010 0.74510 0.02070 0.02600
C 	C 	0.27150 0.76040 0.94640 -0.10800
H 	H 	0.26730 0.75640 0.89070 0.08200
O 	O 	0.83660 0.24840 0.74130 -0.13800
C 	C 	0.86980 0.28740 0.77040 0.06400
H 	H 	0.86670 0.34550 0.77590 0.02200
C 	C 	0.86910 0.13050 0.76940 0.09000
H 	H 	0.86500 0.07280 0.77700 0.01600
O 	O 	0.83600 0.16440 0.74000 -0.14600
Cd	Cd	0.54426 0.20455 0.83827 1.22600
C 	C 	0.36570 0.21740 0.85720 0.05500
H 	H 	0.37020 0.20700 0.80240 0.02700
N 	N 	0.54328 0.35150 0.83310 -0.23600
O 	O 	0.45924 0.20440 0.80400 -0.49200
C 	C 	0.45099 0.21040 0.87740 0.37000
N 	N 	0.54494 0.06000 0.83300 -0.24100
O 	O 	0.12436 0.29140 0.16420 -0.39500
O 	O 	0.48276 0.20750 0.92780 -0.40200
C 	C 	0.54620 0.52490 0.83000 0.09800
C 	C 	0.54740 0.88620 0.82900 0.11500
O 	O 	0.09535 0.28790 0.04660 -0.37700
C 	C 	0.12850 0.28700 0.09090 0.35400
C 	C 	0.31310 0.24270 0.96380 0.05500
C 	C 	0.56130 0.39220 0.77130 0.09200
H 	H 	0.57260 0.36050 0.72830 -0.00800
C 	C 	0.54800 0.61590 0.82800 -0.02400
C 	C 	0.54790 0.79230 0.82790 -0.03200
C 	C 	0.56010 0.01810 0.76890 0.10100
H 	H 	0.57000 0.04860 0.72410 -0.01100
C 	C 	0.58500 0.66160 0.79650 -0.01900
C 	C 	0.26530 0.25470 0.99610 0.04800
C 	C 	0.17640 0.27550 0.05660 -0.11100
C 	C 	0.58530 0.74870 0.79760 -0.00500
C 	C 	0.52980 0.01370 0.89370 0.10500
H 	H 	0.51700 0.04120 0.93810 -0.01500
C 	C 	0.40252 0.22190 0.90620 -0.13700
C 	C 	0.56450 0.47780 0.76640 -0.15500
H 	H 	0.57830 0.50380 0.72210 0.08900
C 	C 	0.52710 0.48220 0.89310 -0.16000
H 	H 	0.51460 0.51110 0.93700 0.08400
C 	C 	0.52680 0.39440 0.89090 0.10200
H 	H 	0.51360 0.36560 0.93430 -0.01100
C 	C 	0.56170 0.93380 0.76600 -0.17200
H 	H 	0.57290 0.90740 0.71970 0.09500
C 	C 	0.53170 0.92880 0.89490 -0.17700
H 	H 	0.52220 0.89940 0.94070 0.10300
C 	C 	0.21330 0.26940 0.10710 0.04600
H 	H 	0.20870 0.27200 0.16270 0.03500
C 	C 	0.51040 0.74840 0.85910 -0.03400
H 	H 	0.48510 0.77750 0.88020 0.05300
C 	C 	0.32120 0.22780 0.88560 -0.11600
H 	H 	0.29630 0.22430 0.84980 0.07800
C 	C 	0.51060 0.66270 0.85870 -0.03900
H 	H 	0.48510 0.63400 0.87950 0.04800
C 	C 	0.18440 0.27220 0.97760 0.04600
H 	H 	0.15960 0.27810 0.94210 0.04000
C 	C 	0.35040 0.25010 0.01360 -0.11400
H 	H 	0.34570 0.26250 0.06790 0.07700
C 	C 	0.25720 0.25940 0.07700 -0.10700
H 	H 	0.28200 0.25570 0.11280 0.08000
C 	C 	0.39500 0.23980 0.98540 0.05100
H 	H 	0.41990 0.24510 0.02070 0.03100
C 	C 	0.22850 0.26040 0.94640 -0.10600
H 	H 	0.23270 0.25640 0.89070 0.08100
O 	O 	0.66340 0.74840 0.74130 -0.13800
C 	C 	0.63020 0.78740 0.77040 0.06500
H 	H 	0.63330 0.84550 0.77590 0.02100
C 	C 	0.63090 0.63050 0.76940 0.09000
H 	H 	0.63500 0.57280 0.77700 0.01600
O 	O 	0.66400 0.66440 0.74000 -0.14500
Cd	Cd	0.95574 0.29545 0.33827 1.22600
C 	C 	0.13430 0.28260 0.35720 0.05800
H 	H 	0.12980 0.29300 0.30240 0.02600
N 	N 	0.95672 0.14850 0.33310 -0.23600
O 	O 	0.04076 0.29560 0.30400 -0.49300
C 	C 	0.04901 0.28960 0.37740 0.37200
N 	N 	0.95506 0.44000 0.33300 -0.24200
O 	O 	0.37564 0.20860 0.66420 -0.39500
O 	O 	0.01724 0.29250 0.42780 -0.40200
C 	C 	0.95380 0.97510 0.33000 0.09500
C 	C 	0.95260 0.61380 0.32900 0.11700
O 	O 	0.40465 0.21210 0.54660 -0.37700
C 	C 	0.37150 0.21300 0.59090 0.35400
C 	C 	0.18690 0.25730 0.46380 0.05800
C 	C 	0.93870 0.10780 0.27130 0.09000
H 	H 	0.92740 0.13950 0.22830 -0.00800
C 	C 	0.95200 0.88410 0.32800 -0.02200
C 	C 	0.95210 0.70770 0.32790 -0.03300
C 	C 	0.93990 0.48190 0.26890 0.10400
H 	H 	0.93000 0.45140 0.22410 -0.01100
C 	C 	0.91500 0.83840 0.29650 -0.02000
C 	C 	0.23470 0.24530 0.49610 0.04900
C 	C 	0.32360 0.22450 0.55660 -0.11300
C 	C 	0.91470 0.75130 0.29760 -0.00400
C 	C 	0.97020 0.48630 0.39370 0.10800
H 	H 	0.98300 0.45880 0.43810 -0.01500
C 	C 	0.09748 0.27810 0.40620 -0.13900
C 	C 	0.93550 0.02220 0.26640 -0.15100
H 	H 	0.92170 0.99620 0.22210 0.08700
C 	C 	0.97290 0.01780 0.39310 -0.15700
H 	H 	0.98540 0.98890 0.43700 0.08300
C 	C 	0.97320 0.10560 0.39090 0.10000
H 	H 	0.98640 0.13440 0.43430 -0.01000
C 	C 	0.93830 0.56620 0.26600 -0.17500
H 	H 	0.92710 0.59260 0.21970 0.09600
C 	C 	0.96830 0.57120 0.39490 -0.18000
H 	H 	0.97780 0.60060 0.44070 0.10400
C 	C 	0.28670 0.23060 0.60710 0.04700
H 	H 	0.29130 0.22800 0.66270 0.03500
C 	C 	0.98960 0.75160 0.35910 -0.03300
H 	H 	0.01490 0.72250 0.38020 0.05200
C 	C 	0.17880 0.27220 0.38560 -0.11800
H 	H 	0.20370 0.27570 0.34980 0.07900
C 	C 	0.98940 0.83730 0.35870 -0.04000
H 	H 	0.01490 0.86600 0.37950 0.04900
C 	C 	0.31560 0.22780 0.47760 0.04900
H 	H 	0.34040 0.22190 0.44210 0.03900
C 	C 	0.14960 0.24990 0.51360 -0.11900
H 	H 	0.15430 0.23750 0.56790 0.07800
C 	C 	0.24280 0.24060 0.57700 -0.10900
H 	H 	0.21800 0.24430 0.61280 0.08000
C 	C 	0.10500 0.26020 0.48540 0.05700
H 	H 	0.08010 0.25490 0.52070 0.02800
C 	C 	0.27150 0.23960 0.44640 -0.10700
H 	H 	0.26730 0.24360 0.39070 0.08100
O 	O 	0.83660 0.75160 0.24130 -0.13800
C 	C 	0.86980 0.71260 0.27040 0.06400
H 	H 	0.86670 0.65450 0.27590 0.02100
C 	C 	0.86910 0.86950 0.26940 0.09000
H 	H 	0.86500 0.92720 0.27700 0.01600
O 	O 	0.83600 0.83560 0.24000 -0.14500
Cd	Cd	0.45574 0.20455 0.66173 1.22600
C 	C 	0.63430 0.21740 0.64280 0.05800
H 	H 	0.62980 0.20700 0.69760 0.02600
N 	N 	0.45672 0.35150 0.66690 -0.23600
O 	O 	0.54076 0.20440 0.69600 -0.49300
C 	C 	0.54901 0.21040 0.62260 0.37200
N 	N 	0.45506 0.06000 0.66700 -0.24100
O 	O 	0.87564 0.29140 0.33580 -0.39500
O 	O 	0.51724 0.20750 0.57220 -0.40200
C 	C 	0.45380 0.52490 0.67000 0.09800
C 	C 	0.45260 0.88620 0.67100 0.11600
O 	O 	0.90465 0.28790 0.45340 -0.37700
C 	C 	0.87150 0.28700 0.40910 0.35400
C 	C 	0.68690 0.24270 0.53620 0.05800
C 	C 	0.43870 0.39220 0.72870 0.09200
H 	H 	0.42740 0.36050 0.77170 -0.00800
C 	C 	0.45200 0.61590 0.67200 -0.02400
C 	C 	0.45210 0.79230 0.67210 -0.03200
C 	C 	0.43990 0.01810 0.73110 0.10200
H 	H 	0.43000 0.04860 0.77590 -0.01100
C 	C 	0.41500 0.66160 0.70350 -0.01900
C 	C 	0.73470 0.25470 0.50390 0.04900
C 	C 	0.82360 0.27550 0.44340 -0.11300
C 	C 	0.41470 0.74870 0.70240 -0.00500
C 	C 	0.47020 0.01370 0.60630 0.10700
H 	H 	0.48300 0.04120 0.56190 -0.01500
C 	C 	0.59748 0.22190 0.59380 -0.13900
C 	C 	0.43550 0.47780 0.73360 -0.15500
H 	H 	0.42170 0.50380 0.77790 0.08900
C 	C 	0.47290 0.48220 0.60690 -0.16000
H 	H 	0.48540 0.51110 0.56300 0.08400
C 	C 	0.47320 0.39440 0.60910 0.10200
H 	H 	0.48640 0.36560 0.56570 -0.01100
C 	C 	0.43830 0.93380 0.73400 -0.17300
H 	H 	0.42710 0.90740 0.78030 0.09500
C 	C 	0.46830 0.92880 0.60510 -0.17900
H 	H 	0.47780 0.89940 0.55930 0.10300
C 	C 	0.78670 0.26940 0.39290 0.04700
H 	H 	0.79130 0.27200 0.33730 0.03500
C 	C 	0.48960 0.74840 0.64090 -0.03400
H 	H 	0.51490 0.77750 0.61980 0.05300
C 	C 	0.67880 0.22780 0.61440 -0.11800
H 	H 	0.70370 0.22430 0.65020 0.07900
C 	C 	0.48940 0.66270 0.64130 -0.03900
H 	H 	0.51490 0.63400 0.62050 0.04800
C 	C 	0.81560 0.27220 0.52240 0.04900
H 	H 	0.84040 0.27810 0.55790 0.03900
C 	C 	0.64960 0.25010 0.48640 -0.11900
H 	H 	0.65430 0.26250 0.43210 0.07800
C 	C 	0.74280 0.25940 0.42300 -0.10900
H 	H 	0.71800 0.25570 0.38720 0.08000
C 	C 	0.60500 0.23980 0.51460 0.05700
H 	H 	0.58010 0.24510 0.47930 0.02800
C 	C 	0.77150 0.26040 0.55360 -0.10700
H 	H 	0.76730 0.25640 0.60930 0.08100
O 	O 	0.33660 0.74840 0.75870 -0.13800
C 	C 	0.36980 0.78740 0.72960 0.06400
H 	H 	0.36670 0.84550 0.72410 0.02100
C 	C 	0.36910 0.63050 0.73060 0.09000
H 	H 	0.36500 0.57280 0.72300 0.01600
O 	O 	0.33600 0.66440 0.76000 -0.14500
Cd	Cd	0.04426 0.29545 0.16173 1.22600
C 	C 	0.86570 0.28260 0.14280 0.06000
H 	H 	0.87020 0.29300 0.19760 0.02500
N 	N 	0.04328 0.14850 0.16690 -0.23500
O 	O 	0.95924 0.29560 0.19600 -0.49300
C 	C 	0.95099 0.28960 0.12260 0.37300
N 	N 	0.04494 0.44000 0.16700 -0.24200
O 	O 	0.62436 0.20860 0.83580 -0.39500
O 	O 	0.98276 0.29250 0.07220 -0.40200
C 	C 	0.04620 0.97510 0.17000 0.09200
C 	C 	0.04740 0.61380 0.17100 0.11700
O 	O 	0.59535 0.21210 0.95340 -0.37800
C 	C 	0.62850 0.21300 0.90910 0.35500
C 	C 	0.81310 0.25730 0.03620 0.06100
C 	C 	0.06130 0.10780 0.22870 0.08900
H 	H 	0.07260 0.13950 0.27170 -0.00700
C 	C 	0.04800 0.88410 0.17200 -0.02100
C 	C 	0.04790 0.70770 0.17210 -0.03300
C 	C 	0.06010 0.48190 0.23110 0.10400
H 	H 	0.07000 0.45140 0.27590 -0.01100
C 	C 	0.08500 0.83840 0.20350 -0.02000
C 	C 	0.76530 0.24530 0.00390 0.04900
C 	C 	0.67640 0.22450 0.94340 -0.11500
C 	C 	0.08530 0.75130 0.20240 -0.00400
C 	C 	0.02980 0.48630 0.10630 0.10800
H 	H 	0.01700 0.45880 0.06190 -0.01500
C 	C 	0.90252 0.27810 0.09380 -0.14200
C 	C 	0.06450 0.02220 0.23360 -0.14900
H 	H 	0.07830 0.99620 0.27790 0.08600
C 	C 	0.02710 0.01780 0.10690 -0.15300
H 	H 	0.01460 0.98890 0.06300 0.08100
C 	C 	0.02680 0.10560 0.10910 0.09800
H 	H 	0.01360 0.13440 0.06570 -0.00900
C 	C 	0.06170 0.56620 0.23400 -0.17600
H 	H 	0.07290 0.59260 0.28030 0.09600
C 	C 	0.03170 0.57120 0.10510 -0.18000
H 	H 	0.02220 0.60060 0.05930 0.10400
C 	C 	0.71330 0.23060 0.89290 0.04900
H 	H 	0.70870 0.22800 0.83730 0.03400
C 	C 	0.01040 0.75160 0.14090 -0.03300
H 	H 	0.98510 0.72250 0.11980 0.05200
C 	C 	0.82120 0.27220 0.11440 -0.12100
H 	H 	0.79630 0.27570 0.15020 0.07900
C 	C 	0.01060 0.83730 0.14130 -0.04100
H 	H 	0.98510 0.86600 0.12050 0.04900
C 	C 	0.68440 0.22780 0.02240 0.05100
H 	H 	0.65960 0.22190 0.05790 0.03900
C 	C 	0.85040 0.24990 0.98640 -0.12400
H 	H 	0.84570 0.23750 0.93210 0.08000
C 	C 	0.75720 0.24060 0.92300 -0.11100
H 	H 	0.78200 0.24430 0.88720 0.08100
C 	C 	0.89500 0.26020 0.01460 0.06200
H 	H 	0.91990 0.25490 0.97930 0.02600
C 	C 	0.72850 0.23960 0.05360 -0.10800
H 	H 	0.73270 0.24360 0.10930 0.08200
O 	O 	0.16340 0.75160 0.25870 -0.13800
C 	C 	0.13020 0.71260 0.22960 0.06400
H 	H 	0.13330 0.65450 0.22410 0.02200
C 	C 	0.13090 0.86950 0.23060 0.09000
H 	H 	0.13500 0.92720 0.22300 0.01600
O 	O 	0.16400 0.83560 0.26000 -0.14600
