data_crystal

_cell_length_a 10.75210
_cell_length_b 11.70770
_cell_length_c 12.34390
_cell_angle_alpha 90.00000
_cell_angle_beta  92.14600
_cell_angle_gamma 90.00000

_symmetry_space_group_name_	'P 1'
_symmetry_space_group_name_H-M	'P 1'

loop_
_symmetry_equiv_pos_as_xyz
  x,y,z

loop_
_atom_site_label
_atom_site_type_symbol
_atom_site_fract_x
_atom_site_fract_y
_atom_site_fract_z
_atom_site_charge
N 	N 	0.05920 0.62550 0.82280 -0.25100
C 	C 	0.04090 0.56970 0.91900 0.05400
C 	C 	0.98360 0.57480 0.75030 0.09600
C 	C 	0.09240 0.58770 0.02220 -0.14800
C 	C 	0.95160 0.48360 0.89750 0.04300
H 	H 	0.97780 0.59900 0.67690 -0.05400
N 	N 	0.91710 0.48900 0.78570 -0.25000
H 	H 	0.15350 0.64470 0.03710 0.03600
Cu	Cu	0.81395 0.37909 0.70506 0.90200
N 	N 	0.68540 0.49070 0.65900 -0.24500
C 	C 	0.59910 0.48420 0.57280 0.04600
C 	C 	0.64650 0.57420 0.72320 0.07500
C 	C 	0.59360 0.41400 0.48010 -0.15800
C 	C 	0.50640 0.56790 0.59050 0.04000
N 	N 	0.54030 0.62580 0.68690 -0.24600
H 	H 	0.68970 0.59550 0.78860 -0.03200
H 	H 	0.65510 0.35780 0.46710 0.02200
O 	O 	0.32120 0.64560 0.80550 -0.62300
H 	H 	0.31120 0.58860 0.76340 0.22600
N 	N 	0.94080 0.12550 0.17720 -0.25000
C 	C 	0.95910 0.06970 0.08100 0.05400
C 	C 	0.01640 0.07480 0.24970 0.09400
C 	C 	0.90760 0.08770 0.97780 -0.14700
C 	C 	0.04840 0.98360 0.10250 0.04400
H 	H 	0.02220 0.09900 0.32310 -0.05400
N 	N 	0.08290 0.98900 0.21430 -0.24900
H 	H 	0.84650 0.14470 0.96290 0.03600
Cu	Cu	0.18605 0.87909 0.29494 0.90200
N 	N 	0.31460 0.99070 0.34100 -0.24400
C 	C 	0.40090 0.98420 0.42720 0.04600
C 	C 	0.35350 0.07420 0.27680 0.07400
C 	C 	0.40640 0.91400 0.51990 -0.15800
C 	C 	0.49360 0.06790 0.40950 0.04000
N 	N 	0.45970 0.12580 0.31310 -0.24600
H 	H 	0.31030 0.09550 0.21140 -0.03200
H 	H 	0.34490 0.85780 0.53290 0.02200
O 	O 	0.67880 0.14560 0.19450 -0.62300
H 	H 	0.68880 0.08860 0.23660 0.22500
N 	N 	0.94080 0.37450 0.17720 -0.25000
C 	C 	0.95910 0.43030 0.08100 0.05500
C 	C 	0.01640 0.42520 0.24970 0.09600
C 	C 	0.90760 0.41230 0.97780 -0.14800
C 	C 	0.04840 0.51640 0.10250 0.04300
H 	H 	0.02220 0.40100 0.32310 -0.05400
N 	N 	0.08290 0.51100 0.21430 -0.25000
H 	H 	0.84650 0.35530 0.96290 0.03600
Cu	Cu	0.18605 0.62091 0.29494 0.90200
N 	N 	0.31460 0.50930 0.34100 -0.24500
C 	C 	0.40090 0.51580 0.42720 0.04600
C 	C 	0.35350 0.42580 0.27680 0.07500
C 	C 	0.40640 0.58600 0.51990 -0.15800
C 	C 	0.49360 0.43210 0.40950 0.04000
N 	N 	0.45970 0.37420 0.31310 -0.24600
H 	H 	0.31030 0.40450 0.21140 -0.03200
H 	H 	0.34490 0.64220 0.53290 0.02200
O 	O 	0.67880 0.35440 0.19450 -0.62300
H 	H 	0.68880 0.41140 0.23660 0.22600
N 	N 	0.05920 0.87450 0.82280 -0.25000
C 	C 	0.04090 0.93030 0.91900 0.05400
C 	C 	0.98360 0.92520 0.75030 0.09400
C 	C 	0.09240 0.91230 0.02220 -0.14700
C 	C 	0.95160 0.01640 0.89750 0.04400
H 	H 	0.97780 0.90100 0.67690 -0.05400
N 	N 	0.91710 0.01100 0.78570 -0.24900
H 	H 	0.15350 0.85530 0.03710 0.03600
Cu	Cu	0.81395 0.12091 0.70506 0.90200
N 	N 	0.68540 0.00930 0.65900 -0.24400
C 	C 	0.59910 0.01580 0.57280 0.04600
C 	C 	0.64650 0.92580 0.72320 0.07400
C 	C 	0.59360 0.08600 0.48010 -0.15800
C 	C 	0.50640 0.93210 0.59050 0.04000
N 	N 	0.54030 0.87420 0.68690 -0.24600
H 	H 	0.68970 0.90450 0.78860 -0.03200
H 	H 	0.65510 0.14220 0.46710 0.02200
O 	O 	0.32120 0.85440 0.80550 -0.62300
H 	H 	0.31120 0.91140 0.76340 0.22500
Cu	Cu	0.17950 0.75000 0.80638 0.87700
Cu	Cu	0.44410 0.75000 0.74703 0.87700
Cu	Cu	0.82050 0.25000 0.19362 0.87700
Cu	Cu	0.55590 0.25000 0.25297 0.87700
O 	O 	0.70700 0.25000 0.67200 -0.12700
O 	O 	0.92110 0.25000 0.74140 -0.62800
H 	H 	0.68320 0.25000 0.60530 0.53600
H 	H 	0.98960 0.25000 0.77820 0.25500
O 	O 	0.74300 0.25000 0.62600 -0.85800
O 	O 	0.29300 0.75000 0.32800 -0.12700
O 	O 	0.07890 0.75000 0.25860 -0.62800
H 	H 	0.31680 0.75000 0.39470 0.53600
H 	H 	0.01040 0.75000 0.22180 0.25500
O 	O 	0.25700 0.75000 0.37400 -0.85800
