data_crystal

_cell_length_a 16.37700
_cell_length_b 12.20900
_cell_length_c 10.26810
_cell_angle_alpha 90.00000
_cell_angle_beta  127.22600
_cell_angle_gamma 90.00000

_symmetry_space_group_name_	'P 1'
_symmetry_space_group_name_H-M	'P 1'

loop_
_symmetry_equiv_pos_as_xyz
  x,y,z

loop_
_atom_site_label
_atom_site_type_symbol
_atom_site_fract_x
_atom_site_fract_y
_atom_site_fract_z
_atom_site_charge
N 	N 	0.42140 0.38070 0.66860 -0.24500
C 	C 	0.47780 0.32470 0.63720 0.08800
C 	C 	0.32990 0.32260 0.58950 0.05200
N 	N 	0.43320 0.23470 0.54500 -0.24500
H 	H 	0.54490 0.34710 0.67730 -0.04400
C 	C 	0.33690 0.23160 0.51150 0.05400
C 	C 	0.24260 0.34320 0.58040 -0.14800
H 	H 	0.23790 0.40400 0.63340 0.03500
H 	H 	0.41040 0.04100 0.69490 0.03400
H 	H 	0.46640 0.92440 0.74670 0.03300
H 	H 	0.53300 0.03450 0.80820 0.00800
H 	H 	0.54470 0.74030 0.97340 -0.10300
H 	H 	0.43000 0.74030 0.91820 -0.09400
H 	H 	0.52520 0.74030 0.10840 -0.07100
N 	N 	0.92140 0.88070 0.66860 -0.24500
C 	C 	0.97780 0.82470 0.63720 0.13600
C 	C 	0.82990 0.82260 0.58950 0.05200
N 	N 	0.93320 0.73470 0.54500 -0.24500
H 	H 	0.04490 0.84710 0.67730 -0.07300
C 	C 	0.83690 0.73160 0.51150 0.05900
C 	C 	0.74260 0.84320 0.58040 -0.14600
H 	H 	0.73790 0.90400 0.63340 0.04100
H 	H 	0.91040 0.54100 0.69490 -0.01600
H 	H 	0.96640 0.42440 0.74670 -0.01200
H 	H 	0.03300 0.53450 0.80820 -0.05100
H 	H 	0.04470 0.24030 0.97340 -0.07700
H 	H 	0.93000 0.24030 0.91820 -0.05400
H 	H 	0.02520 0.24030 0.10840 -0.04400
N 	N 	0.57860 0.38070 0.33140 -0.24200
C 	C 	0.52220 0.32470 0.36280 0.08800
C 	C 	0.67010 0.32260 0.41050 0.05600
N 	N 	0.56680 0.23470 0.45500 -0.24500
H 	H 	0.45510 0.34710 0.32270 -0.03700
C 	C 	0.66310 0.23160 0.48850 0.05000
C 	C 	0.75740 0.34320 0.41960 -0.14500
H 	H 	0.76210 0.40400 0.36660 0.04300
H 	H 	0.58960 0.04100 0.30510 0.05000
H 	H 	0.53360 0.92440 0.25330 0.05000
H 	H 	0.46700 0.03450 0.19180 0.02900
H 	H 	0.45530 0.74030 0.02660 -0.03400
H 	H 	0.57000 0.74030 0.08180 -0.02700
H 	H 	0.47480 0.74030 0.89160 -0.04900
N 	N 	0.07860 0.88070 0.33140 -0.23300
C 	C 	0.02220 0.82470 0.36280 0.03700
C 	C 	0.17010 0.82260 0.41050 0.05500
N 	N 	0.06680 0.73470 0.45500 -0.24000
H 	H 	0.95510 0.84710 0.32270 0.00100
C 	C 	0.16310 0.73160 0.48850 0.05100
C 	C 	0.25740 0.84320 0.41960 -0.14900
H 	H 	0.26210 0.90400 0.36660 0.04600
H 	H 	0.08960 0.54100 0.30510 0.06000
H 	H 	0.03360 0.42440 0.25330 0.03300
H 	H 	0.96700 0.53450 0.19180 0.05700
H 	H 	0.95530 0.24030 0.02660 0.03800
H 	H 	0.07000 0.24030 0.08180 0.02600
H 	H 	0.97480 0.24030 0.89160 0.02300
N 	N 	0.57860 0.61930 0.33140 -0.24200
C 	C 	0.52220 0.67530 0.36280 0.08800
C 	C 	0.67010 0.67740 0.41050 0.05400
N 	N 	0.56680 0.76530 0.45500 -0.24400
H 	H 	0.45510 0.65290 0.32270 -0.03600
C 	C 	0.66310 0.76840 0.48850 0.05400
C 	C 	0.75740 0.65680 0.41960 -0.14300
H 	H 	0.76210 0.59600 0.36660 0.04300
H 	H 	0.58960 0.95900 0.30510 0.08100
H 	H 	0.53360 0.07560 0.25330 0.06200
H 	H 	0.46700 0.96550 0.19180 0.06800
H 	H 	0.45530 0.25970 0.02660 -0.03800
H 	H 	0.57000 0.25970 0.08180 -0.03200
H 	H 	0.47480 0.25970 0.89160 -0.05300
N 	N 	0.07860 0.11930 0.33140 -0.24000
C 	C 	0.02220 0.17530 0.36280 0.03500
C 	C 	0.17010 0.17740 0.41050 0.04900
N 	N 	0.06680 0.26530 0.45500 -0.24100
H 	H 	0.95510 0.15290 0.32270 -0.00400
C 	C 	0.16310 0.26840 0.48850 0.05200
C 	C 	0.25740 0.15680 0.41960 -0.14700
H 	H 	0.26210 0.09600 0.36660 0.03500
H 	H 	0.08960 0.45900 0.30510 0.06000
H 	H 	0.03360 0.57560 0.25330 0.03300
H 	H 	0.96700 0.46550 0.19180 0.05700
H 	H 	0.95530 0.75970 0.02660 0.04200
H 	H 	0.07000 0.75970 0.08180 0.03100
H 	H 	0.97480 0.75970 0.89160 0.02700
N 	N 	0.42140 0.61930 0.66860 -0.24500
C 	C 	0.47780 0.67530 0.63720 0.08800
C 	C 	0.32990 0.67740 0.58950 0.05100
N 	N 	0.43320 0.76530 0.54500 -0.24400
H 	H 	0.54490 0.65290 0.67730 -0.04300
C 	C 	0.33690 0.76840 0.51150 0.05800
C 	C 	0.24260 0.65680 0.58040 -0.14600
H 	H 	0.23790 0.59600 0.63340 0.03400
H 	H 	0.41040 0.95900 0.69490 0.06500
H 	H 	0.46640 0.07560 0.74670 0.04500
H 	H 	0.53300 0.96550 0.80820 0.04700
H 	H 	0.54470 0.25970 0.97340 -0.10700
H 	H 	0.43000 0.25970 0.91820 -0.09900
H 	H 	0.52520 0.25970 0.10840 -0.07500
N 	N 	0.92140 0.11930 0.66860 -0.25200
C 	C 	0.97780 0.17530 0.63720 0.13400
C 	C 	0.82990 0.17740 0.58950 0.04600
N 	N 	0.93320 0.26530 0.54500 -0.24500
H 	H 	0.04490 0.15290 0.67730 -0.07900
C 	C 	0.83690 0.26840 0.51150 0.05900
C 	C 	0.74260 0.15680 0.58040 -0.14500
H 	H 	0.73790 0.09600 0.63340 0.03000
H 	H 	0.91040 0.45900 0.69490 -0.01600
H 	H 	0.96640 0.57560 0.74670 -0.01200
H 	H 	0.03300 0.46550 0.80820 -0.05100
H 	H 	0.04470 0.75970 0.97340 -0.07200
H 	H 	0.93000 0.75970 0.91820 -0.04900
H 	H 	0.02520 0.75970 0.10840 -0.04000
Cu	Cu	0.46137 0.50000 0.82284 0.87200
Cu	Cu	0.96137 0.00000 0.82284 0.87100
Cu	Cu	0.53863 0.50000 0.17716 0.88800
Cu	Cu	0.03863 0.00000 0.17716 0.87100
O 	O 	0.50000 0.59660 -0.00000 -0.50900
C 	C 	0.50000 0.71360 -0.00000 0.39800
O 	O 	0.00000 0.09660 -0.00000 -0.48500
C 	C 	0.00000 0.21360 -0.00000 0.12400
O 	O 	0.50000 0.40340 -0.00000 -0.51300
C 	C 	0.50000 0.28640 -0.00000 0.41700
O 	O 	-0.00000 0.90340 -0.00000 -0.46600
C 	C 	0.00000 0.78640 -0.00000 0.10000
Cu	Cu	0.50000 0.12436 0.50000 0.87300
Cu	Cu	-0.00000 0.62436 0.50000 0.86500
Cu	Cu	0.50000 0.87564 0.50000 0.88000
Cu	Cu	0.00000 0.37564 0.50000 0.86400
O 	O 	0.46570 0.00000 0.57460 -0.44400
C 	C 	0.46920 -0.00000 0.71740 -0.19400
O 	O 	0.96570 0.50000 0.57460 -0.47700
C 	C 	0.96920 0.50000 0.71740 0.17500
O 	O 	0.53430 0.00000 0.42540 -0.43000
C 	C 	0.53080 0.00000 0.28260 -0.26900
O 	O 	0.03430 0.50000 0.42540 -0.43100
C 	C 	0.03080 0.50000 0.28260 -0.23900
