data_crystal

_cell_length_a 11.57140
_cell_length_b 11.70150
_cell_length_c 11.83990
_cell_angle_alpha 65.11800
_cell_angle_beta  78.61600
_cell_angle_gamma 71.98500

_symmetry_space_group_name_	'P 1'
_symmetry_space_group_name_H-M	'P 1'

loop_
_symmetry_equiv_pos_as_xyz
  x,y,z

loop_
_atom_site_label
_atom_site_type_symbol
_atom_site_fract_x
_atom_site_fract_y
_atom_site_fract_z
_atom_site_charge
O 	O 	0.04640 0.40190 0.37780 -0.45100
O 	O 	0.03830 0.42790 0.18430 -0.45900
O 	O 	0.04940 0.86090 0.91580 -0.41900
O 	O 	0.07800 0.65280 0.95220 -0.41000
C 	C 	0.03400 0.47380 0.26400 0.32600
C 	C 	0.01140 0.61600 0.23100 -0.15300
C 	C 	0.01270 0.72490 0.12180 -0.26000
C 	C 	0.04820 0.74580 0.98810 0.42900
C 	C 	0.96260 0.78620 0.27790 0.13500
C 	C 	0.92630 0.87110 0.35080 0.06100
C 	C 	0.79660 0.95430 0.33930 0.04200
H 	H 	0.79330 0.03340 0.26640 -0.01600
H 	H 	0.76880 0.97490 0.41210 0.12100
H 	H 	0.74520 0.90750 0.33220 0.12100
C 	C 	0.71800 0.59970 0.49660 0.09000
H 	H 	0.73690 0.67330 0.49210 -0.00900
C 	C 	0.59740 0.60600 0.49440 -0.13500
H 	H 	0.53760 0.68230 0.48840 0.07600
C 	C 	0.56540 0.49870 0.50100 0.05100
C 	C 	0.65840 0.39380 0.50480 -0.13400
H 	H 	0.64280 0.31970 0.50660 0.07500
C 	C 	0.77720 0.39640 0.50610 0.08900
H 	H 	0.83910 0.32270 0.50800 0.04300
C 	C 	0.74630 0.57980 0.12880 0.05100
H 	H 	0.77460 0.50080 0.19360 0.04000
C 	C 	0.62590 0.64750 0.13900 -0.08700
H 	H 	0.57550 0.61400 0.20950 0.06200
C 	C 	0.58050 0.76550 0.04410 -0.04600
C 	C 	0.66350 0.81190 0.94680 -0.00600
H 	H 	0.63940 0.89310 0.88320 0.06100
C 	C 	0.78180 0.73830 0.94340 0.12200
H 	H 	0.83540 0.77180 0.87620 0.04400
C 	C 	0.24460 0.85840 0.13740 0.09600
H 	H 	0.19260 0.83280 0.20880 -0.04200
C 	C 	0.36800 0.80050 0.14580 -0.16600
H 	H 	0.39620 0.73780 0.22170 0.08600
C 	C 	0.44900 0.83410 0.04420 0.03400
C 	C 	0.39940 0.93290 0.93900 -0.11900
H 	H 	0.44970 0.96370 0.86740 0.09300
C 	C 	0.27560 0.98670 0.93890 0.25600
H 	H 	0.24550 0.05540 0.86670 -0.09000
N 	N 	0.98160 0.83200 0.15250 -0.09900
N 	N 	0.97990 0.65670 0.32880 -0.11300
N 	N 	0.80810 0.49520 0.50480 -0.19500
N 	N 	0.82330 0.62210 0.03110 -0.21600
N 	N 	0.19670 0.94730 0.03470 -0.30600
C 	C 	0.79600 0.88000 0.41300 -0.32300
H 	H 	0.79490 0.80230 0.48650 0.15400
H 	H 	0.74290 0.88810 0.35560 -0.02800
H 	H 	0.76950 0.95430 0.43510 0.00200
O 	O 	0.95360 0.59810 0.62220 -0.32500
O 	O 	0.96170 0.57210 0.81570 -0.29500
O 	O 	0.95060 0.13910 0.08420 -0.32300
O 	O 	0.92200 0.34720 0.04780 -0.32300
C 	C 	0.96600 0.52620 0.73600 0.32000
C 	C 	0.98860 0.38400 0.76900 0.04400
C 	C 	0.98730 0.27510 0.87820 0.15100
C 	C 	0.95180 0.25420 0.01190 0.21900
C 	C 	0.03740 0.21380 0.72210 0.07800
C 	C 	0.07370 0.12890 0.64920 -0.06400
C 	C 	0.20340 0.04570 0.66070 -0.30100
H 	H 	0.20670 0.96660 0.73360 0.16300
H 	H 	0.23120 0.02510 0.58790 -0.03200
H 	H 	0.25480 0.09250 0.66780 -0.00800
C 	C 	0.28200 0.40030 0.50340 0.08800
H 	H 	0.26310 0.32670 0.50790 -0.02100
C 	C 	0.40260 0.39400 0.50560 -0.15400
H 	H 	0.46240 0.31770 0.51160 0.07400
C 	C 	0.43460 0.50130 0.49900 0.06600
C 	C 	0.34160 0.60620 0.49520 -0.16200
H 	H 	0.35720 0.68030 0.49340 0.08100
C 	C 	0.22280 0.60360 0.49390 0.09400
H 	H 	0.16090 0.67730 0.49200 -0.04500
C 	C 	0.25370 0.42020 0.87120 0.11400
H 	H 	0.22540 0.49920 0.80640 -0.02200
C 	C 	0.37410 0.35250 0.86100 -0.17300
H 	H 	0.42450 0.38600 0.79050 0.09400
C 	C 	0.41950 0.23450 0.95590 0.16100
C 	C 	0.33650 0.18810 0.05320 -0.26200
H 	H 	0.36060 0.10690 0.11680 0.08800
C 	C 	0.21820 0.26170 0.05660 0.01300
H 	H 	0.16460 0.22820 0.12380 -0.01600
C 	C 	0.75540 0.14160 0.86260 0.10000
H 	H 	0.80740 0.16720 0.79120 0.02600
C 	C 	0.63200 0.19950 0.85420 -0.14000
H 	H 	0.60380 0.26220 0.77830 0.08000
C 	C 	0.55100 0.16590 0.95580 0.11300
C 	C 	0.60060 0.06710 0.06100 -0.18100
H 	H 	0.55030 0.03630 0.13260 0.06100
C 	C 	0.72440 0.01330 0.06110 -0.09100
H 	H 	0.75450 0.94460 0.13330 0.07900
N 	N 	0.01840 0.16800 0.84750 -0.31300
N 	N 	0.02010 0.34330 0.67120 -0.31500
N 	N 	0.19190 0.50480 0.49520 -0.25400
N 	N 	0.17670 0.37790 0.96890 -0.18800
N 	N 	0.80330 0.05270 0.96530 -0.12600
C 	C 	0.20400 0.12000 0.58700 -0.00200
H 	H 	0.20510 0.19770 0.51350 0.00900
H 	H 	0.25710 0.11190 0.64440 0.09800
H 	H 	0.23050 0.04570 0.56490 0.10600
Co	Co	-0.00000 0.00000 -0.00000 1.00200
Co	Co	-0.00000 0.50000 0.50000 1.07100
Co	Co	-0.00000 0.50000 -0.00000 1.06500
