data_crystal

_cell_length_a 7.99740
_cell_length_b 10.37440
_cell_length_c 12.61060
_cell_angle_alpha 90.31600
_cell_angle_beta  90.31100
_cell_angle_gamma 107.04700

_symmetry_space_group_name_	'P 1'
_symmetry_space_group_name_H-M	'P 1'

loop_
_symmetry_equiv_pos_as_xyz
  x,y,z

loop_
_atom_site_label
_atom_site_type_symbol
_atom_site_fract_x
_atom_site_fract_y
_atom_site_fract_z
_atom_site_charge
Zn	Zn	0.55635 0.21007 0.76248 1.20600
Zn	Zn	0.17760 0.12851 0.94333 1.22800
Zn	Zn	0.44365 0.78993 0.23752 1.20600
Zn	Zn	0.82240 0.87149 0.05667 1.22800
H 	H 	0.97180 0.08550 0.65410 0.02700
H 	H 	0.85790 0.04250 0.48700 0.08300
H 	H 	0.55830 0.59910 0.75340 0.05800
H 	H 	0.44070 0.76580 0.60070 0.08000
H 	H 	0.77980 0.46530 0.00580 0.04500
H 	H 	0.44170 0.40090 0.24660 0.05800
H 	H 	0.76070 0.24020 0.00500 0.02900
H 	H 	0.22020 0.53470 0.99420 0.04500
H 	H 	0.55930 0.23420 0.39930 0.08000
H 	H 	0.23930 0.75980 0.99500 0.02900
H 	H 	0.02820 0.91450 0.34590 0.02600
H 	H 	0.14210 0.95750 0.51300 0.08200
C 	C 	0.13510 0.97970 0.35620 0.03900
C 	C 	0.14080 0.02510 0.16230 0.41000
C 	C 	0.29150 0.59280 0.94590 -0.03100
C 	C 	0.61170 0.85180 0.71510 0.06600
C 	C 	0.22390 0.04940 0.26860 -0.15000
C 	C 	0.70850 0.40720 0.05410 -0.03100
C 	C 	0.50530 0.36710 0.19790 -0.03500
C 	C 	0.40510 0.81610 0.87350 -0.11100
C 	C 	0.59490 0.18390 0.12650 -0.11100
C 	C 	0.57950 0.86130 0.41450 0.30700
C 	C 	0.30270 0.72720 0.94540 -0.01300
C 	C 	0.35830 0.10190 0.47350 -0.01600
C 	C 	0.49470 0.63290 0.80210 -0.03500
C 	C 	0.69730 0.27280 0.05460 -0.01300
C 	C 	0.61100 0.45470 0.12700 -0.08200
C 	C 	0.45130 0.17090 0.38720 -0.08900
C 	C 	0.54870 0.82910 0.61280 -0.08900
C 	C 	0.38830 0.14820 0.28490 0.06600
C 	C 	0.79730 0.99430 0.54390 -0.09300
C 	C 	0.50960 0.76950 0.80090 0.03000
C 	C 	0.86490 0.02030 0.64380 0.03900
C 	C 	0.60030 0.03860 0.12320 0.42000
C 	C 	0.42050 0.13870 0.58550 0.30700
C 	C 	0.64170 0.89810 0.52650 -0.01600
C 	C 	0.85920 0.97490 0.83770 0.41000
C 	C 	0.39970 0.96140 0.87680 0.42000
C 	C 	0.37920 0.39820 0.86660 0.41600
C 	C 	0.38900 0.54530 0.87300 -0.08200
C 	C 	0.49040 0.23050 0.19910 0.03000
C 	C 	0.77610 0.95060 0.73140 -0.15000
C 	C 	0.20270 0.00570 0.45610 -0.09300
C 	C 	0.62080 0.60180 0.13340 0.41600
O 	O 	0.33260 0.08820 0.66260 -0.39300
O 	O 	0.04120 0.90770 0.14100 -0.48400
O 	O 	0.95880 0.09230 0.85900 -0.48400
O 	O 	0.26750 0.32050 0.92590 -0.49900
O 	O 	0.83130 0.87920 0.90130 -0.47900
O 	O 	0.66740 0.91180 0.33740 -0.39300
O 	O 	0.57020 0.21960 0.60030 -0.42400
O 	O 	0.42980 0.78040 0.39970 -0.42400
O 	O 	0.53750 0.05320 0.85360 -0.50900
O 	O 	0.74160 0.02280 0.09550 -0.50900
O 	O 	0.46250 0.94680 0.14640 -0.50900
O 	O 	0.25840 0.97720 0.90450 -0.50900
O 	O 	0.73250 0.67950 0.07410 -0.49900
O 	O 	0.48210 0.36390 0.80680 -0.52600
O 	O 	0.16870 0.12080 0.09870 -0.47900
O 	O 	0.51790 0.63610 0.19320 -0.52600
