data_crystal

_cell_length_a 14.30100
_cell_length_b 14.65800
_cell_length_c 20.05900
_cell_angle_alpha 108.34800
_cell_angle_beta  90.32300
_cell_angle_gamma 107.60700

_symmetry_space_group_name_	'P 1'
_symmetry_space_group_name_H-M	'P 1'

loop_
_symmetry_equiv_pos_as_xyz
  x,y,z

loop_
_atom_site_label
_atom_site_type_symbol
_atom_site_fract_x
_atom_site_fract_y
_atom_site_fract_z
_atom_site_charge
Ag	Ag	0.67250 0.53680 0.92018 0.40000
Ag	Ag	0.36460 0.82340 0.83297 0.46800
Ag	Ag	0.49417 0.29050 0.04740 0.45500
N 	N 	0.36670 0.28650 0.11290 -0.14800
O 	O 	0.52990 0.13480 0.01640 -0.19200
N 	N 	0.33470 0.36280 0.13990 -0.15300
N 	N 	0.35380 0.23020 0.15570 -0.17400
N 	N 	0.30040 0.36000 0.20140 -0.17000
C 	C 	0.31360 0.27720 0.20960 0.09600
Ag	Ag	0.39956 0.09487 0.14541 0.48000
Ag	Ag	0.23583 0.47871 0.25917 0.49000
C 	C 	0.28350 0.23720 0.26710 -0.04000
C 	C 	0.20790 0.60810 0.36350 -0.07000
C 	C 	0.16820 0.51480 0.37530 -0.10400
N 	N 	0.13830 0.48310 0.16920 -0.18200
C 	C 	0.32010 0.29350 0.33780 -0.05700
C 	C 	0.21710 0.14040 0.25060 -0.07200
C 	C 	0.30350 0.67380 0.39580 -0.06900
H 	H 	0.17150 0.62670 0.33450 -0.00900
C 	C 	0.22270 0.48710 0.41930 -0.03200
H 	H 	0.10570 0.47160 0.35390 0.03100
N 	N 	0.13290 0.56640 0.15710 -0.15000
C 	C 	0.08440 0.40490 0.11430 0.07500
C 	C 	0.28660 0.24630 0.39120 -0.04800
H 	H 	0.36450 0.35890 0.35030 0.02900
C 	C 	0.18390 0.09870 0.30510 -0.07400
H 	H 	0.19380 0.10210 0.20360 0.03600
C 	C 	0.34290 0.76920 0.38580 0.08600
C 	C 	0.35560 0.64320 0.43930 -0.03600
H 	H 	0.19660 0.42520 0.42670 0.02900
C 	C 	0.31410 0.55060 0.45140 -0.06900
Ag	Ag	0.21630 0.72013 0.23098 0.47200
N 	N 	0.07650 0.53990 0.09760 -0.14300
C 	C 	0.07310 0.29830 0.10420 -0.05400
N 	N 	0.04500 0.43810 0.06970 -0.18300
C 	C 	0.21980 0.15350 0.37190 -0.06300
H 	H 	0.31140 0.28060 0.43840 0.02400
Ag	Ag	0.31128 0.99323 0.29492 0.48800
H 	H 	0.13780 0.03430 0.29400 0.00900
N 	N 	0.40970 0.85300 0.43230 -0.17100
N 	N 	0.31730 0.79370 0.32960 -0.18500
H 	H 	0.41870 0.68480 0.46040 0.00700
H 	H 	0.34920 0.53240 0.48140 0.04000
N 	N 	0.20070 0.81190 0.15420 -0.13700
Ag	Ag	0.05668 0.64016 0.02895 0.48700
C 	C 	0.04810 0.25800 0.15710 -0.03400
C 	C 	0.09630 0.23930 0.04050 -0.04000
H 	H 	0.19750 0.12580 0.40700 0.01400
N 	N 	0.42390 0.92790 0.40360 -0.13700
Ag	Ag	0.48125 0.90297 0.54165 0.49600
N 	N 	0.36940 0.89300 0.34380 -0.13600
N 	N 	0.25570 0.90820 0.17660 -0.13600
C 	C 	0.04160 0.15630 0.14560 -0.04700
H 	H 	0.03540 0.29730 0.20020 0.02000
H 	H 	0.11470 0.26640 0.00460 -0.01100
C 	C 	0.09150 0.14230 0.03190 -0.05300
N 	N 	0.82080 0.21740 0.91600 -0.17000
C 	C 	0.06250 0.09960 0.08390 -0.03300
H 	H 	0.02280 0.12800 0.18090 0.03700
H 	H 	0.10820 0.10370 0.99010 0.03300
C 	C 	0.77520 0.13650 0.93490 0.09000
N 	N 	0.53370 0.15770 0.36750 -0.16500
N 	N 	0.45970 0.12390 0.31450 -0.12000
H 	H 	0.05730 0.03230 0.07640 0.03400
N 	N 	0.72760 0.05750 0.87690 -0.15700
C 	C 	0.77840 0.13410 0.00870 -0.02800
C 	C 	0.61400 0.20520 0.34310 0.09100
N 	N 	0.49050 0.14750 0.26190 -0.13400
C 	C 	0.75830 0.04030 0.01990 -0.06900
C 	C 	0.79810 0.22050 0.06580 -0.05300
N 	N 	0.58700 0.19780 0.27550 -0.17000
C 	C 	0.71390 0.25350 0.38180 -0.04300
H 	H 	0.74180 0.97940 0.98240 0.02300
C 	C 	0.76460 0.04310 0.09210 -0.03300
C 	C 	0.80340 0.21640 0.13340 -0.07700
H 	H 	0.80810 0.28250 0.05910 0.00100
C 	C 	0.77560 0.34640 0.37610 -0.04000
C 	C 	0.74600 0.20790 0.42390 -0.03600
C 	C 	0.78380 0.12780 0.14650 -0.09900
H 	H 	0.75480 0.98240 0.10100 0.00600
H 	H 	0.82110 0.27680 0.17140 0.01100
H 	H 	0.75420 0.37690 0.34740 0.02000
C 	C 	0.86630 0.38970 0.41330 -0.04800
H 	H 	0.70570 0.14700 0.42760 -0.00100
C 	C 	0.84130 0.25580 0.46110 -0.04900
H 	H 	0.78390 0.12650 0.19260 0.02000
H 	H 	0.90700 0.45080 0.41030 0.03300
C 	C 	0.89970 0.34540 0.45580 -0.03500
H 	H 	0.86440 0.22610 0.48960 0.02900
H 	H 	0.96230 0.37670 0.48070 0.03300
O 	O 	0.42200 0.79300 0.98380 -0.25600
Ag	Ag	0.32750 0.46320 0.07982 0.40100
Ag	Ag	0.63540 0.17660 0.16703 0.46900
Ag	Ag	0.50583 0.70950 0.95260 0.45600
N 	N 	0.63330 0.71350 0.88710 -0.14700
O 	O 	0.47010 0.86520 0.98360 -0.19200
N 	N 	0.66530 0.63720 0.86010 -0.15300
N 	N 	0.64620 0.76980 0.84430 -0.17400
N 	N 	0.69960 0.64000 0.79860 -0.17000
C 	C 	0.68640 0.72280 0.79040 0.09600
Ag	Ag	0.60044 0.90513 0.85459 0.48000
Ag	Ag	0.76417 0.52129 0.74083 0.49000
C 	C 	0.71650 0.76280 0.73290 -0.04000
C 	C 	0.79210 0.39190 0.63650 -0.07000
C 	C 	0.83180 0.48520 0.62470 -0.10400
N 	N 	0.86170 0.51690 0.83080 -0.18200
C 	C 	0.67990 0.70650 0.66220 -0.05700
C 	C 	0.78290 0.85960 0.74940 -0.07200
C 	C 	0.69650 0.32620 0.60420 -0.06900
H 	H 	0.82850 0.37330 0.66550 -0.00900
C 	C 	0.77730 0.51290 0.58070 -0.03200
H 	H 	0.89430 0.52840 0.64610 0.03100
N 	N 	0.86710 0.43360 0.84290 -0.15000
C 	C 	0.91560 0.59510 0.88570 0.07500
C 	C 	0.71340 0.75370 0.60880 -0.04800
H 	H 	0.63550 0.64110 0.64970 0.02900
C 	C 	0.81610 0.90130 0.69490 -0.07400
H 	H 	0.80620 0.89790 0.79640 0.03600
C 	C 	0.65710 0.23080 0.61420 0.08600
C 	C 	0.64440 0.35680 0.56070 -0.03600
H 	H 	0.80340 0.57480 0.57330 0.02900
C 	C 	0.68590 0.44940 0.54860 -0.06900
Ag	Ag	0.78370 0.27987 0.76902 0.47200
N 	N 	0.92350 0.46010 0.90240 -0.14300
C 	C 	0.92690 0.70170 0.89580 -0.05400
N 	N 	0.95500 0.56190 0.93030 -0.18300
C 	C 	0.78020 0.84650 0.62810 -0.06300
H 	H 	0.68860 0.71940 0.56160 0.02400
Ag	Ag	0.68872 0.00677 0.70508 0.48800
H 	H 	0.86220 0.96570 0.70600 0.00900
N 	N 	0.59030 0.14700 0.56770 -0.17100
N 	N 	0.68270 0.20630 0.67040 -0.18500
H 	H 	0.58130 0.31520 0.53960 0.00700
H 	H 	0.65080 0.46760 0.51860 0.04000
N 	N 	0.79930 0.18810 0.84580 -0.13700
Ag	Ag	0.94332 0.35984 0.97105 0.48700
C 	C 	0.95190 0.74200 0.84290 -0.03400
C 	C 	0.90370 0.76070 0.95950 -0.04000
H 	H 	0.80250 0.87420 0.59300 0.01400
N 	N 	0.57610 0.07210 0.59640 -0.13700
Ag	Ag	0.51875 0.09703 0.45835 0.49600
N 	N 	0.63060 0.10700 0.65620 -0.13600
N 	N 	0.74430 0.09180 0.82340 -0.13600
C 	C 	0.95840 0.84370 0.85440 -0.04700
H 	H 	0.96460 0.70270 0.79980 0.02000
H 	H 	0.88530 0.73360 0.99540 -0.01100
C 	C 	0.90850 0.85770 0.96810 -0.05300
N 	N 	0.17920 0.78260 0.08400 -0.17000
C 	C 	0.93750 0.90040 0.91610 -0.03300
H 	H 	0.97720 0.87200 0.81910 0.03700
H 	H 	0.89180 0.89630 0.00990 0.03300
C 	C 	0.22480 0.86350 0.06510 0.09000
N 	N 	0.46630 0.84230 0.63250 -0.16500
N 	N 	0.54030 0.87610 0.68550 -0.12000
H 	H 	0.94270 0.96770 0.92360 0.03400
N 	N 	0.27240 0.94250 0.12310 -0.15700
C 	C 	0.22160 0.86590 0.99130 -0.02800
C 	C 	0.38600 0.79480 0.65690 0.09100
N 	N 	0.50950 0.85250 0.73810 -0.13400
C 	C 	0.24170 0.95970 0.98010 -0.06900
C 	C 	0.20190 0.77950 0.93420 -0.05300
N 	N 	0.41300 0.80220 0.72450 -0.17000
C 	C 	0.28610 0.74650 0.61820 -0.04300
H 	H 	0.25820 0.02060 0.01760 0.02300
C 	C 	0.23540 0.95690 0.90790 -0.03300
C 	C 	0.19660 0.78360 0.86660 -0.07700
H 	H 	0.19190 0.71750 0.94090 0.00100
C 	C 	0.22440 0.65360 0.62390 -0.04000
C 	C 	0.25400 0.79210 0.57610 -0.03600
C 	C 	0.21620 0.87220 0.85350 -0.09900
H 	H 	0.24520 0.01760 0.89900 0.00600
H 	H 	0.17890 0.72320 0.82860 0.01100
H 	H 	0.24580 0.62310 0.65260 0.02000
C 	C 	0.13370 0.61030 0.58670 -0.04800
H 	H 	0.29430 0.85300 0.57240 -0.00100
C 	C 	0.15870 0.74420 0.53890 -0.04900
H 	H 	0.21610 0.87350 0.80740 0.02000
H 	H 	0.09300 0.54920 0.58970 0.03300
C 	C 	0.10030 0.65460 0.54420 -0.03500
H 	H 	0.13560 0.77390 0.51040 0.02900
H 	H 	0.03770 0.62330 0.51930 0.03300
O 	O 	0.57800 0.20700 0.01620 -0.25600
