data_crystal

_cell_length_a 9.46110
_cell_length_b 13.42400
_cell_length_c 13.45300
_cell_angle_alpha 67.36000
_cell_angle_beta  70.64900
_cell_angle_gamma 88.41800

_symmetry_space_group_name_	'P 1'
_symmetry_space_group_name_H-M	'P 1'

loop_
_symmetry_equiv_pos_as_xyz
  x,y,z

loop_
_atom_site_label
_atom_site_type_symbol
_atom_site_fract_x
_atom_site_fract_y
_atom_site_fract_z
_atom_site_charge
U 	U 	0.97713 0.07786 0.34607 0.00800
P 	P 	0.26631 0.14845 0.38341 0.41700
U 	U 	0.29129 0.32084 0.07727 0.00900
P 	P 	0.52524 0.43247 0.18082 0.45300
P 	P 	0.72121 0.94458 0.28023 0.46100
O 	O 	0.13590 0.05620 0.46680 -0.15500
P 	P 	0.99951 0.25095 0.04756 0.41800
O 	O 	0.21560 0.19800 0.27780 -0.15600
O 	O 	0.04800 0.19670 0.15480 -0.15100
O 	O 	0.76580 0.02310 0.32480 -0.21100
C 	C 	0.43070 0.01000 0.28980 0.09200
H 	H 	0.36400 0.03350 0.24370 0.04000
H 	H 	0.38520 0.93830 0.35260 0.04000
C 	C 	0.67710 0.38870 0.23320 -0.31800
H 	H 	0.69390 0.43740 0.26890 0.15700
H 	H 	0.64350 0.31510 0.29500 0.13600
O 	O 	0.48530 0.35420 0.13460 -0.19800
C 	C 	0.82940 0.38480 0.14800 0.10400
H 	H 	0.90390 0.36650 0.18760 0.03400
H 	H 	0.86450 0.45780 0.08510 0.03400
O 	O 	0.12980 0.33830 0.96400 -0.17900
C 	C 	0.58540 0.99760 0.21330 -0.30700
H 	H 	0.62950 0.06990 0.15130 0.14200
H 	H 	0.56950 0.94970 0.17650 0.15500
C 	C 	0.82430 0.30210 0.09600 -0.30200
H 	H 	0.78900 0.33640 0.03030 0.15100
H 	H 	0.74870 0.24000 0.15430 0.13600
O 	O 	0.56260 0.54970 0.09590 -0.16300
C 	C 	0.43840 0.09190 0.34210 -0.29000
H 	H 	0.51850 0.15180 0.28570 0.12900
H 	H 	0.46780 0.05550 0.41060 0.13300
O 	O 	0.96690 0.16810 0.00410 -0.17600
O 	O 	0.85430 0.92340 0.19360 -0.17100
O 	O 	0.38930 0.43130 0.28780 -0.38100
H 	H 	0.36300 0.36740 0.33740 0.27700
O 	O 	0.63980 0.83550 0.38250 -0.40500
H 	H 	0.67090 0.82500 0.43700 0.28600
O 	O 	0.28860 0.22730 0.43320 -0.25600
U 	U 	0.02287 0.92214 0.65393 0.00700
P 	P 	0.73369 0.85155 0.61659 0.41700
U 	U 	0.70871 0.67915 0.92273 0.01000
P 	P 	0.47476 0.56753 0.81918 0.45300
P 	P 	0.27879 0.05542 0.71977 0.46100
O 	O 	0.86410 0.94380 0.53320 -0.15400
P 	P 	0.00049 0.74905 0.95244 0.41700
O 	O 	0.78440 0.80200 0.72220 -0.15600
O 	O 	0.95200 0.80330 0.84520 -0.14900
O 	O 	0.23420 0.97690 0.67520 -0.21100
C 	C 	0.56930 0.99000 0.71020 0.09600
H 	H 	0.63600 0.96650 0.75630 0.03900
H 	H 	0.61480 0.06170 0.64740 0.03900
C 	C 	0.32290 0.61130 0.76680 -0.31800
H 	H 	0.30610 0.56260 0.73110 0.15700
H 	H 	0.35650 0.68490 0.70500 0.13600
O 	O 	0.51470 0.64580 0.86540 -0.19800
C 	C 	0.17060 0.61520 0.85200 0.10400
H 	H 	0.09610 0.63350 0.81240 0.03300
H 	H 	0.13550 0.54220 0.91490 0.03400
O 	O 	0.87020 0.66170 0.03600 -0.18000
C 	C 	0.41460 0.00240 0.78670 -0.31100
H 	H 	0.37050 0.93010 0.84870 0.14300
H 	H 	0.43050 0.05030 0.82350 0.15700
C 	C 	0.17570 0.69790 0.90400 -0.30200
H 	H 	0.21100 0.66360 0.96970 0.15100
H 	H 	0.25130 0.76000 0.84570 0.13600
O 	O 	0.43740 0.45030 0.90410 -0.16200
C 	C 	0.56160 0.90810 0.65790 -0.29200
H 	H 	0.48150 0.84820 0.71430 0.12900
H 	H 	0.53220 0.94450 0.58940 0.13400
O 	O 	0.03310 0.83190 0.99590 -0.17600
O 	O 	0.14570 0.07660 0.80640 -0.17100
O 	O 	0.61070 0.56870 0.71220 -0.38100
H 	H 	0.63700 0.63260 0.66260 0.27700
O 	O 	0.36020 0.16450 0.61750 -0.40500
H 	H 	0.32910 0.17500 0.56300 0.28600
O 	O 	0.71140 0.77270 0.56680 -0.25600
U 	U 	-0.00000 0.00000 -0.00000 0.01300
