data_crystal

_cell_length_a 7.08500
_cell_length_b 13.33400
_cell_length_c 14.38300
_cell_angle_alpha 69.66000
_cell_angle_beta  90.02000
_cell_angle_gamma 74.60000

_symmetry_space_group_name_	'P 1'
_symmetry_space_group_name_H-M	'P 1'

loop_
_symmetry_equiv_pos_as_xyz
  x,y,z

loop_
_atom_site_label
_atom_site_type_symbol
_atom_site_fract_x
_atom_site_fract_y
_atom_site_fract_z
_atom_site_charge
Pd	Pd	0.48136 0.03734 0.73828 0.60900
C 	C 	0.67880 0.03920 0.83620 -0.44200
N 	N 	0.18180 0.01900 0.58810 -0.46100
N 	N 	0.79200 0.03240 0.89650 -0.34300
C 	C 	0.28670 0.02850 0.64330 -0.54000
C 	C 	0.68440 0.02850 0.64340 -0.47600
N 	N 	0.79900 0.01900 0.58870 -0.38900
N 	N 	0.92140 0.15730 0.98870 -0.25700
N 	N 	0.91880 0.16180 0.42500 -0.26900
C 	C 	0.28360 0.03930 0.83610 -0.48700
N 	N 	0.88150 0.23680 0.47380 -0.12400
C 	C 	0.74420 0.51080 0.21670 0.02700
H 	H 	0.73780 0.52030 0.27920 0.03700
N 	N 	0.83540 0.32880 0.31540 -0.11000
C 	C 	0.83100 0.33700 0.40560 0.11100
H 	H 	0.79690 0.40470 0.41810 0.00500
C 	C 	0.88020 0.24300 0.90950 0.14700
H 	H 	0.88210 0.24150 0.84390 -0.04100
C 	C 	0.88950 0.22010 0.33000 0.11900
H 	H 	0.90450 0.19000 0.27860 -0.13100
N 	N 	0.79400 0.41140 0.21720 -0.07100
N 	N 	0.83300 0.33660 0.93130 -0.08800
N 	N 	0.90000 0.19490 0.07030 -0.24300
N 	N 	0.17550 0.03230 0.89650 -0.40600
C 	C 	0.63960 0.71720 0.12580 -0.06500
H 	H 	0.62620 0.73680 0.18340 0.03300
C 	C 	0.69760 0.60890 0.12860 0.02400
C 	C 	0.60260 0.79520 0.02790 -0.03300
H 	H 	0.60060 0.87110 0.00960 -0.15800
C 	C 	0.76290 0.47350 0.78310 0.04400
H 	H 	0.79140 0.41360 0.75920 0.03000
C 	C 	0.68400 0.74630 0.96310 0.09700
H 	H 	0.69290 0.78730 0.89530 -0.02500
N 	N 	0.77700 0.45110 0.86900 -0.06500
C 	C 	0.70560 0.58540 0.71010 0.02800
C 	C 	0.69200 0.61310 0.61460 -0.04200
H 	H 	0.71960 0.55920 0.58360 0.04800
C 	C 	0.84900 0.29840 0.03430 0.08600
H 	H 	0.82470 0.34520 0.07250 0.02100
C 	C 	0.60780 0.78650 0.61370 0.02600
H 	H 	0.59630 0.86400 0.59160 -0.16100
C 	C 	0.63600 0.72700 0.55980 -0.06200
H 	H 	0.62050 0.75730 0.48900 0.02600
S 	S 	0.76660 0.60680 0.01450 0.09800
S 	S 	0.70450 0.70160 0.73520 -1.35700
S 	S 	0.62580 0.60690 0.01420 -0.09000
C 	C 	0.56900 0.74570 0.96220 -0.10100
H 	H 	0.51960 0.78640 0.89430 -0.01500
S 	S 	0.59340 0.70150 0.73510 1.32000
Pd	Pd	0.51900 0.96200 0.61540 0.80100
Fe	Fe	0.99800 0.00300 0.64800 1.07900
Fe	Fe	0.00100 0.00200 0.84800 0.92800
Pd	Pd	0.52100 0.96000 0.91470 0.78300
Pd	Pd	0.51864 0.96266 0.26172 0.65000
C 	C 	0.32120 0.96080 0.16380 -0.39500
N 	N 	0.81820 0.98100 0.41190 -0.32500
N 	N 	0.20800 0.96760 0.10350 -0.39300
C 	C 	0.71330 0.97150 0.35670 -0.37100
C 	C 	0.31560 0.97150 0.35660 -0.42400
N 	N 	0.20100 0.98100 0.41130 -0.39000
N 	N 	0.07860 0.84270 0.01130 -0.31200
N 	N 	0.08120 0.83820 0.57500 -0.28900
C 	C 	0.71640 0.96070 0.16390 -0.35900
N 	N 	0.11850 0.76320 0.52620 -0.16500
C 	C 	0.25580 0.48920 0.78330 -0.01500
H 	H 	0.26220 0.47970 0.72080 0.02300
N 	N 	0.16460 0.67120 0.68460 -0.12300
C 	C 	0.16900 0.66300 0.59440 0.07300
H 	H 	0.20310 0.59530 0.58190 -0.02000
C 	C 	0.11980 0.75700 0.09050 0.09900
H 	H 	0.11790 0.75850 0.15610 -0.08300
C 	C 	0.11050 0.77990 0.67000 0.08300
H 	H 	0.09550 0.81000 0.72140 -0.13000
N 	N 	0.20600 0.58860 0.78280 -0.09200
N 	N 	0.16700 0.66340 0.06870 -0.14700
N 	N 	0.10000 0.80510 0.92970 -0.21900
N 	N 	0.82450 0.96770 0.10350 -0.34900
C 	C 	0.36040 0.28280 0.87420 -0.17300
H 	H 	0.37380 0.26320 0.81660 0.04800
C 	C 	0.30240 0.39110 0.87140 0.02400
C 	C 	0.39740 0.20480 0.97210 0.15100
H 	H 	0.39940 0.12890 0.99040 -0.22000
C 	C 	0.23710 0.52650 0.21690 0.00300
H 	H 	0.20860 0.58640 0.24080 0.00900
C 	C 	0.31600 0.25370 0.03690 -0.25200
H 	H 	0.30710 0.21270 0.10470 -0.01500
N 	N 	0.22300 0.54890 0.13100 -0.10100
C 	C 	0.29440 0.41460 0.28990 0.02100
C 	C 	0.30800 0.38690 0.38540 -0.05400
H 	H 	0.28040 0.44080 0.41640 0.01600
C 	C 	0.15100 0.70160 0.96570 0.13800
H 	H 	0.17530 0.65480 0.92750 -0.01100
C 	C 	0.39220 0.21350 0.38630 0.05300
H 	H 	0.40370 0.13600 0.40840 -0.23000
C 	C 	0.36400 0.27300 0.44020 -0.11900
H 	H 	0.37950 0.24270 0.51100 0.02100
S 	S 	0.23340 0.39320 0.98550 -0.02500
S 	S 	0.29550 0.29840 0.26480 1.13000
S 	S 	0.37420 0.39310 0.98580 0.09700
C 	C 	0.43100 0.25430 0.03780 -0.00000
H 	H 	0.48040 0.21360 0.10570 -0.04500
S 	S 	0.40660 0.29850 0.26490 -1.29400
Pd	Pd	0.48100 0.03800 0.38460 0.63600
Fe	Fe	0.00200 0.99700 0.35200 0.97500
Fe	Fe	0.99900 0.99800 0.15200 1.09400
Pd	Pd	0.47900 0.04000 0.08530 0.59700
Fe	Fe	-0.00000 0.00000 0.50000 0.87800
Fe	Fe	-0.00000 0.00000 -0.00000 0.84600
