data_crystal

_cell_length_a 9.71860
_cell_length_b 25.34600
_cell_length_c 19.30600
_cell_angle_alpha 90.00000
_cell_angle_beta  90.00000
_cell_angle_gamma 90.00000

_symmetry_space_group_name_	'P 1'
_symmetry_space_group_name_H-M	'P 1'

loop_
_symmetry_equiv_pos_as_xyz
  x,y,z

loop_
_atom_site_label
_atom_site_type_symbol
_atom_site_fract_x
_atom_site_fract_y
_atom_site_fract_z
_atom_site_charge
Cu	Cu	0.60847 0.47555 0.55242 0.89800
Cu	Cu	0.80833 0.43433 0.44712 0.92800
C 	C 	0.83410 0.43469 0.86397 -0.30100
H 	H 	0.82490 0.45550 0.82450 0.12900
C 	C 	0.89330 0.45435 0.92095 0.22100
H 	H 	0.92450 0.48900 0.92100 -0.05300
C 	C 	0.90870 0.42403 0.97935 -0.30600
H 	H 	0.95080 0.43810 0.01840 0.13900
C 	C 	0.86170 0.37250 0.98016 0.24200
C 	C 	0.79850 0.35340 0.92267 -0.30400
H 	H 	0.76240 0.31940 0.92270 0.14000
C 	C 	0.78770 0.38433 0.86419 0.21600
H 	H 	0.74810 0.37040 0.82430 -0.04900
C 	C 	0.84610 0.36181 0.10604 0.18700
C 	C 	0.73050 0.39317 0.11339 -0.21700
H 	H 	0.67530 0.40020 0.07510 0.11100
C 	C 	0.69610 0.41431 0.17757 0.11400
H 	H 	0.61830 0.43540 0.18180 0.00300
C 	C 	0.77601 0.40430 0.23495 -0.16700
C 	C 	0.89290 0.37283 0.22735 0.11100
H 	H 	0.94840 0.36580 0.26550 0.00400
C 	C 	0.92640 0.35206 0.16312 -0.21800
H 	H 	0.00450 0.33120 0.15860 0.10700
C 	C 	0.93579 0.28956 0.03367 0.19100
C 	C 	0.90464 0.25002 0.08042 -0.22000
H 	H 	0.84810 0.25750 0.11800 0.11300
C 	C 	0.95649 0.19932 0.07212 0.12600
H 	H 	0.93340 0.17320 0.10390 0.00500
C 	C 	0.04163 0.18734 0.01739 -0.18900
C 	C 	0.07450 0.22698 0.97030 0.12900
H 	H 	0.13190 0.21960 0.93300 0.00000
C 	C 	0.02240 0.27723 0.97865 -0.22600
H 	H 	0.04560 0.30330 0.94690 0.11400
C 	C 	0.09764 0.13325 0.00810 0.39700
C 	C 	0.73652 0.42531 0.30457 0.37600
N 	N 	0.88011 0.34043 0.04060 -0.21000
O 	O 	0.04499 0.09702 0.04532 -0.47000
O 	O 	0.19273 0.12684 0.96461 -0.41100
O 	O 	0.62898 0.45007 0.31234 -0.33600
O 	O 	0.82408 0.41538 0.35204 -0.40800
O 	O 	0.80237 0.45422 0.54609 -0.69300
H 	H 	0.86500 0.45360 0.57680 0.21500
O 	O 	0.41886 0.49808 0.56426 -0.72400
H 	H 	0.40590 0.50730 0.60610 0.27400
Cu	Cu	0.89153 0.52445 0.55242 0.89900
Cu	Cu	0.69167 0.56567 0.44712 0.92900
C 	C 	0.66590 0.56531 0.86397 -0.29700
H 	H 	0.67510 0.54450 0.82450 0.12900
C 	C 	0.60670 0.54565 0.92095 0.21900
H 	H 	0.57550 0.51100 0.92100 -0.05100
C 	C 	0.59130 0.57597 0.97935 -0.30200
H 	H 	0.54920 0.56190 0.01840 0.13900
C 	C 	0.63830 0.62750 0.98016 0.24100
C 	C 	0.70150 0.64660 0.92267 -0.30200
H 	H 	0.73760 0.68060 0.92270 0.14000
C 	C 	0.71230 0.61567 0.86419 0.21400
H 	H 	0.75190 0.62960 0.82430 -0.04800
C 	C 	0.65390 0.63819 0.10604 0.18800
C 	C 	0.76950 0.60683 0.11339 -0.21800
H 	H 	0.82470 0.59980 0.07510 0.11100
C 	C 	0.80390 0.58569 0.17757 0.11400
H 	H 	0.88170 0.56460 0.18180 0.00300
C 	C 	0.72399 0.59570 0.23495 -0.16700
C 	C 	0.60710 0.62717 0.22735 0.11200
H 	H 	0.55160 0.63420 0.26550 0.00400
C 	C 	0.57360 0.64794 0.16312 -0.22000
H 	H 	0.49550 0.66880 0.15860 0.10800
C 	C 	0.56421 0.71044 0.03367 0.19000
C 	C 	0.59536 0.74998 0.08042 -0.21800
H 	H 	0.65190 0.74250 0.11800 0.11200
C 	C 	0.54351 0.80068 0.07212 0.12300
H 	H 	0.56660 0.82680 0.10390 0.00600
C 	C 	0.45837 0.81266 0.01739 -0.18600
C 	C 	0.42550 0.77302 0.97030 0.12700
H 	H 	0.36810 0.78040 0.93300 0.00100
C 	C 	0.47760 0.72277 0.97865 -0.22400
H 	H 	0.45440 0.69670 0.94690 0.11400
C 	C 	0.40236 0.86675 0.00810 0.39600
C 	C 	0.76348 0.57469 0.30457 0.37600
N 	N 	0.61989 0.65957 0.04060 -0.20900
O 	O 	0.45501 0.90298 0.04532 -0.46900
O 	O 	0.30727 0.87316 0.96461 -0.41100
O 	O 	0.87102 0.54993 0.31234 -0.33600
O 	O 	0.67592 0.58462 0.35204 -0.40800
O 	O 	0.69763 0.54578 0.54609 -0.69300
H 	H 	0.63500 0.54640 0.57680 0.21500
O 	O 	0.08114 0.50192 0.56426 -0.72400
H 	H 	0.09410 0.49270 0.60610 0.27400
Cu	Cu	0.89153 0.97555 0.94758 0.89900
Cu	Cu	0.69167 0.93433 0.05288 0.92900
C 	C 	0.66590 0.93469 0.63603 -0.29700
H 	H 	0.67510 0.95550 0.67550 0.12900
C 	C 	0.60670 0.95435 0.57905 0.21900
H 	H 	0.57550 0.98900 0.57900 -0.05100
C 	C 	0.59130 0.92403 0.52065 -0.30100
H 	H 	0.54920 0.93810 0.48160 0.13900
C 	C 	0.63830 0.87250 0.51984 0.24200
C 	C 	0.70150 0.85340 0.57733 -0.30200
H 	H 	0.73760 0.81940 0.57730 0.14000
C 	C 	0.71230 0.88433 0.63581 0.21400
H 	H 	0.75190 0.87040 0.67570 -0.04800
C 	C 	0.65390 0.86181 0.39396 0.18800
C 	C 	0.76950 0.89317 0.38661 -0.21800
H 	H 	0.82470 0.90020 0.42490 0.11100
C 	C 	0.80390 0.91431 0.32243 0.11400
H 	H 	0.88170 0.93540 0.31820 0.00300
C 	C 	0.72399 0.90430 0.26505 -0.16700
C 	C 	0.60710 0.87283 0.27265 0.11200
H 	H 	0.55160 0.86580 0.23450 0.00400
C 	C 	0.57360 0.85206 0.33688 -0.22000
H 	H 	0.49550 0.83120 0.34140 0.10800
C 	C 	0.56421 0.78956 0.46633 0.19000
C 	C 	0.59536 0.75002 0.41958 -0.21800
H 	H 	0.65190 0.75750 0.38200 0.11200
C 	C 	0.54351 0.69932 0.42788 0.12200
H 	H 	0.56660 0.67320 0.39610 0.00600
C 	C 	0.45837 0.68734 0.48261 -0.18600
C 	C 	0.42550 0.72698 0.52970 0.12600
H 	H 	0.36810 0.71960 0.56700 0.00100
C 	C 	0.47760 0.77723 0.52135 -0.22400
H 	H 	0.45440 0.80330 0.55310 0.11400
C 	C 	0.40236 0.63325 0.49190 0.39600
C 	C 	0.76348 0.92531 0.19543 0.37600
N 	N 	0.61989 0.84043 0.45940 -0.20900
O 	O 	0.45501 0.59702 0.45468 -0.46900
O 	O 	0.30727 0.62684 0.53539 -0.41100
O 	O 	0.87102 0.95007 0.18766 -0.33600
O 	O 	0.67592 0.91538 0.14796 -0.40800
O 	O 	0.69763 0.95422 0.95391 -0.69300
H 	H 	0.63500 0.95360 0.92320 0.21500
O 	O 	0.08114 0.99808 0.93574 -0.72200
H 	H 	0.09410 0.00730 0.89390 0.27300
Cu	Cu	0.60847 0.02445 0.94758 0.89900
Cu	Cu	0.80833 0.06567 0.05288 0.92900
C 	C 	0.83410 0.06531 0.63603 -0.29700
H 	H 	0.82490 0.04450 0.67550 0.12900
C 	C 	0.89330 0.04565 0.57905 0.21900
H 	H 	0.92450 0.01100 0.57900 -0.05100
C 	C 	0.90870 0.07597 0.52065 -0.30100
H 	H 	0.95080 0.06190 0.48160 0.13900
C 	C 	0.86170 0.12750 0.51984 0.24200
C 	C 	0.79850 0.14660 0.57733 -0.30200
H 	H 	0.76240 0.18060 0.57730 0.14000
C 	C 	0.78770 0.11567 0.63581 0.21400
H 	H 	0.74810 0.12960 0.67570 -0.04800
C 	C 	0.84610 0.13819 0.39396 0.18700
C 	C 	0.73050 0.10683 0.38661 -0.21700
H 	H 	0.67530 0.09980 0.42490 0.11100
C 	C 	0.69610 0.08569 0.32243 0.11400
H 	H 	0.61830 0.06460 0.31820 0.00300
C 	C 	0.77601 0.09570 0.26505 -0.16600
C 	C 	0.89290 0.12717 0.27265 0.11100
H 	H 	0.94840 0.13420 0.23450 0.00400
C 	C 	0.92640 0.14794 0.33688 -0.21800
H 	H 	0.00450 0.16880 0.34140 0.10700
C 	C 	0.93579 0.21044 0.46633 0.19000
C 	C 	0.90464 0.24998 0.41958 -0.21800
H 	H 	0.84810 0.24250 0.38200 0.11200
C 	C 	0.95649 0.30068 0.42788 0.12300
H 	H 	0.93340 0.32680 0.39610 0.00600
C 	C 	0.04163 0.31266 0.48261 -0.18600
C 	C 	0.07450 0.27302 0.52970 0.12700
H 	H 	0.13190 0.28040 0.56700 0.00100
C 	C 	0.02240 0.22277 0.52135 -0.22500
H 	H 	0.04560 0.19670 0.55310 0.11400
C 	C 	0.09764 0.36675 0.49190 0.39600
C 	C 	0.73652 0.07469 0.19543 0.37600
N 	N 	0.88011 0.15957 0.45940 -0.20900
O 	O 	0.04499 0.40298 0.45468 -0.46900
O 	O 	0.19273 0.37316 0.53539 -0.41100
O 	O 	0.62898 0.04993 0.18766 -0.33600
O 	O 	0.82408 0.08462 0.14796 -0.40800
O 	O 	0.80237 0.04578 0.95391 -0.69300
H 	H 	0.86500 0.04640 0.92320 0.21500
O 	O 	0.41886 0.00192 0.93574 -0.72400
H 	H 	0.40590 0.99270 0.89390 0.27500
Cu	Cu	0.39153 0.52445 0.44758 0.89900
Cu	Cu	0.19167 0.56567 0.55288 0.92900
C 	C 	0.16590 0.56531 0.13603 -0.30000
H 	H 	0.17510 0.54450 0.17550 0.13000
C 	C 	0.10670 0.54565 0.07905 0.22200
H 	H 	0.07550 0.51100 0.07900 -0.05200
C 	C 	0.09130 0.57597 0.02065 -0.30500
H 	H 	0.04920 0.56190 0.98160 0.14000
C 	C 	0.13830 0.62750 0.01984 0.24300
C 	C 	0.20150 0.64660 0.07733 -0.30300
H 	H 	0.23760 0.68060 0.07730 0.14000
C 	C 	0.21230 0.61567 0.13581 0.21600
H 	H 	0.25190 0.62960 0.17570 -0.04900
C 	C 	0.15390 0.63819 0.89396 0.18700
C 	C 	0.26950 0.60683 0.88661 -0.21700
H 	H 	0.32470 0.59980 0.92490 0.11100
C 	C 	0.30390 0.58569 0.82243 0.11400
H 	H 	0.38170 0.56460 0.81820 0.00300
C 	C 	0.22399 0.59570 0.76505 -0.16700
C 	C 	0.10710 0.62717 0.77265 0.11100
H 	H 	0.05160 0.63420 0.73450 0.00400
C 	C 	0.07360 0.64794 0.83688 -0.21800
H 	H 	0.99550 0.66880 0.84140 0.10700
C 	C 	0.06421 0.71044 0.96633 0.19100
C 	C 	0.09536 0.74998 0.91958 -0.22000
H 	H 	0.15190 0.74250 0.88200 0.11300
C 	C 	0.04351 0.80068 0.92788 0.12600
H 	H 	0.06660 0.82680 0.89610 0.00500
C 	C 	0.95837 0.81266 0.98261 -0.18900
C 	C 	0.92550 0.77302 0.02970 0.12900
H 	H 	0.86810 0.78040 0.06700 0.00000
C 	C 	0.97760 0.72277 0.02135 -0.22600
H 	H 	0.95440 0.69670 0.05310 0.11400
C 	C 	0.90236 0.86675 0.99190 0.39700
C 	C 	0.26348 0.57469 0.69543 0.37600
N 	N 	0.11989 0.65957 0.95940 -0.21000
O 	O 	0.95501 0.90298 0.95468 -0.47000
O 	O 	0.80727 0.87316 0.03539 -0.41100
O 	O 	0.37102 0.54993 0.68766 -0.33600
O 	O 	0.17592 0.58462 0.64796 -0.40800
O 	O 	0.19763 0.54578 0.45391 -0.69300
H 	H 	0.13500 0.54640 0.42320 0.21500
O 	O 	0.58114 0.50192 0.43574 -0.72400
H 	H 	0.59410 0.49270 0.39390 0.27400
Cu	Cu	0.10847 0.47555 0.44758 0.89900
Cu	Cu	0.30833 0.43433 0.55288 0.92900
C 	C 	0.33410 0.43469 0.13603 -0.29700
H 	H 	0.32490 0.45550 0.17550 0.12900
C 	C 	0.39330 0.45435 0.07905 0.21900
H 	H 	0.42450 0.48900 0.07900 -0.05100
C 	C 	0.40870 0.42403 0.02065 -0.30200
H 	H 	0.45080 0.43810 0.98160 0.13900
C 	C 	0.36170 0.37250 0.01984 0.24100
C 	C 	0.29850 0.35340 0.07733 -0.30200
H 	H 	0.26240 0.31940 0.07730 0.14000
C 	C 	0.28770 0.38433 0.13581 0.21400
H 	H 	0.24810 0.37040 0.17570 -0.04800
C 	C 	0.34610 0.36181 0.89396 0.18800
C 	C 	0.23050 0.39317 0.88661 -0.21800
H 	H 	0.17530 0.40020 0.92490 0.11100
C 	C 	0.19610 0.41431 0.82243 0.11400
H 	H 	0.11830 0.43540 0.81820 0.00300
C 	C 	0.27601 0.40430 0.76505 -0.16700
C 	C 	0.39290 0.37283 0.77265 0.11200
H 	H 	0.44840 0.36580 0.73450 0.00400
C 	C 	0.42640 0.35206 0.83688 -0.22000
H 	H 	0.50450 0.33120 0.84140 0.10800
C 	C 	0.43579 0.28956 0.96633 0.19000
C 	C 	0.40464 0.25002 0.91958 -0.21800
H 	H 	0.34810 0.25750 0.88200 0.11200
C 	C 	0.45649 0.19932 0.92788 0.12300
H 	H 	0.43340 0.17320 0.89610 0.00600
C 	C 	0.54163 0.18734 0.98261 -0.18600
C 	C 	0.57450 0.22698 0.02970 0.12700
H 	H 	0.63190 0.21960 0.06700 0.00100
C 	C 	0.52240 0.27723 0.02135 -0.22400
H 	H 	0.54560 0.30330 0.05310 0.11400
C 	C 	0.59764 0.13325 0.99190 0.39600
C 	C 	0.23652 0.42531 0.69543 0.37600
N 	N 	0.38011 0.34043 0.95940 -0.20900
O 	O 	0.54499 0.09702 0.95468 -0.46900
O 	O 	0.69273 0.12684 0.03539 -0.41100
O 	O 	0.12898 0.45007 0.68766 -0.33600
O 	O 	0.32408 0.41538 0.64796 -0.40800
O 	O 	0.30237 0.45422 0.45391 -0.69300
H 	H 	0.36500 0.45360 0.42320 0.21500
O 	O 	0.91886 0.49808 0.43574 -0.72400
H 	H 	0.90590 0.50730 0.39390 0.27400
Cu	Cu	0.10847 0.02445 0.05242 0.89900
Cu	Cu	0.30833 0.06567 0.94712 0.92900
C 	C 	0.33410 0.06531 0.36397 -0.29700
H 	H 	0.32490 0.04450 0.32450 0.12900
C 	C 	0.39330 0.04565 0.42095 0.21900
H 	H 	0.42450 0.01100 0.42100 -0.05100
C 	C 	0.40870 0.07597 0.47935 -0.30100
H 	H 	0.45080 0.06190 0.51840 0.13900
C 	C 	0.36170 0.12750 0.48016 0.24200
C 	C 	0.29850 0.14660 0.42267 -0.30200
H 	H 	0.26240 0.18060 0.42270 0.14000
C 	C 	0.28770 0.11567 0.36419 0.21400
H 	H 	0.24810 0.12960 0.32430 -0.04800
C 	C 	0.34610 0.13819 0.60604 0.18800
C 	C 	0.23050 0.10683 0.61339 -0.21800
H 	H 	0.17530 0.09980 0.57510 0.11100
C 	C 	0.19610 0.08569 0.67757 0.11400
H 	H 	0.11830 0.06460 0.68180 0.00300
C 	C 	0.27601 0.09570 0.73495 -0.16700
C 	C 	0.39290 0.12717 0.72735 0.11200
H 	H 	0.44840 0.13420 0.76550 0.00400
C 	C 	0.42640 0.14794 0.66312 -0.22000
H 	H 	0.50450 0.16880 0.65860 0.10800
C 	C 	0.43579 0.21044 0.53367 0.19000
C 	C 	0.40464 0.24998 0.58042 -0.21800
H 	H 	0.34810 0.24250 0.61800 0.11200
C 	C 	0.45649 0.30068 0.57212 0.12200
H 	H 	0.43340 0.32680 0.60390 0.00600
C 	C 	0.54163 0.31266 0.51739 -0.18600
C 	C 	0.57450 0.27302 0.47030 0.12600
H 	H 	0.63190 0.28040 0.43300 0.00100
C 	C 	0.52240 0.22277 0.47865 -0.22400
H 	H 	0.54560 0.19670 0.44690 0.11400
C 	C 	0.59764 0.36675 0.50810 0.39600
C 	C 	0.23652 0.07469 0.80457 0.37600
N 	N 	0.38011 0.15957 0.54060 -0.20900
O 	O 	0.54499 0.40298 0.54532 -0.46900
O 	O 	0.69273 0.37316 0.46461 -0.41100
O 	O 	0.12898 0.04993 0.81234 -0.33600
O 	O 	0.32408 0.08462 0.85204 -0.40800
O 	O 	0.30237 0.04578 0.04609 -0.69300
H 	H 	0.36500 0.04640 0.07680 0.21500
O 	O 	0.91886 0.00192 0.06426 -0.72200
H 	H 	0.90590 0.99270 0.10610 0.27300
Cu	Cu	0.39153 0.97555 0.05242 0.89900
Cu	Cu	0.19167 0.93433 0.94712 0.92900
C 	C 	0.16590 0.93469 0.36397 -0.29700
H 	H 	0.17510 0.95550 0.32450 0.12900
C 	C 	0.10670 0.95435 0.42095 0.21900
H 	H 	0.07550 0.98900 0.42100 -0.05100
C 	C 	0.09130 0.92403 0.47935 -0.30100
H 	H 	0.04920 0.93810 0.51840 0.13900
C 	C 	0.13830 0.87250 0.48016 0.24200
C 	C 	0.20150 0.85340 0.42267 -0.30200
H 	H 	0.23760 0.81940 0.42270 0.14000
C 	C 	0.21230 0.88433 0.36419 0.21400
H 	H 	0.25190 0.87040 0.32430 -0.04800
C 	C 	0.15390 0.86181 0.60604 0.18700
C 	C 	0.26950 0.89317 0.61339 -0.21700
H 	H 	0.32470 0.90020 0.57510 0.11100
C 	C 	0.30390 0.91431 0.67757 0.11400
H 	H 	0.38170 0.93540 0.68180 0.00300
C 	C 	0.22399 0.90430 0.73495 -0.16600
C 	C 	0.10710 0.87283 0.72735 0.11100
H 	H 	0.05160 0.86580 0.76550 0.00400
C 	C 	0.07360 0.85206 0.66312 -0.21800
H 	H 	0.99550 0.83120 0.65860 0.10700
C 	C 	0.06421 0.78956 0.53367 0.19000
C 	C 	0.09536 0.75002 0.58042 -0.21800
H 	H 	0.15190 0.75750 0.61800 0.11200
C 	C 	0.04351 0.69932 0.57212 0.12300
H 	H 	0.06660 0.67320 0.60390 0.00600
C 	C 	0.95837 0.68734 0.51739 -0.18600
C 	C 	0.92550 0.72698 0.47030 0.12700
H 	H 	0.86810 0.71960 0.43300 0.00100
C 	C 	0.97760 0.77723 0.47865 -0.22500
H 	H 	0.95440 0.80330 0.44690 0.11400
C 	C 	0.90236 0.63325 0.50810 0.39600
C 	C 	0.26348 0.92531 0.80457 0.37600
N 	N 	0.11989 0.84043 0.54060 -0.20900
O 	O 	0.95501 0.59702 0.54532 -0.46900
O 	O 	0.80727 0.62684 0.46461 -0.41100
O 	O 	0.37102 0.95007 0.81234 -0.33600
O 	O 	0.17592 0.91538 0.85204 -0.40800
O 	O 	0.19763 0.95422 0.04609 -0.69300
H 	H 	0.13500 0.95360 0.07680 0.21500
O 	O 	0.58114 0.99808 0.06426 -0.72400
H 	H 	0.59410 0.00730 0.10610 0.27500
