data_crystal

_cell_length_a 6.84770
_cell_length_b 9.25840
_cell_length_c 18.26200
_cell_angle_alpha 90.00000
_cell_angle_beta  90.00000
_cell_angle_gamma 92.00600

_symmetry_space_group_name_	'P 1'
_symmetry_space_group_name_H-M	'P 1'

loop_
_symmetry_equiv_pos_as_xyz
  x,y,z

loop_
_atom_site_label
_atom_site_type_symbol
_atom_site_fract_x
_atom_site_fract_y
_atom_site_fract_z
_atom_site_charge
Cd	Cd	0.75311 0.39549 0.48111 1.08800
Cd	Cd	0.74689 0.10451 0.98111 1.08700
H 	H 	0.02340 0.49880 0.29790 0.05900
H 	H 	0.06580 0.12170 0.68640 -0.01400
H 	H 	0.43420 0.37830 0.18640 -0.01200
H 	H 	0.67100 0.87500 0.88700 0.11900
H 	H 	0.01830 0.37760 0.18720 -0.01400
H 	H 	0.43890 0.49500 0.29790 0.06200
H 	H 	0.48170 0.12240 0.68720 -0.01400
H 	H 	0.82900 0.62500 0.38700 0.11700
H 	H 	0.06110 0.00500 0.79790 0.06500
H 	H 	0.63200 0.61200 0.39100 0.10300
H 	H 	0.86800 0.88800 0.89100 0.10400
H 	H 	0.47660 0.00120 0.79790 0.06100
C 	C 	0.73170 0.50540 0.31056 0.13200
C 	C 	0.90120 0.40100 0.20930 0.09200
C 	C 	0.76830 0.99460 0.81056 0.14100
C 	C 	0.72630 0.36390 0.17513 -0.18900
C 	C 	0.94690 0.09910 0.70900 0.09400
C 	C 	0.55310 0.40090 0.20900 0.08900
C 	C 	0.94420 0.02910 0.77600 -0.23900
C 	C 	0.77710 0.21420 0.60300 0.34700
C 	C 	0.59880 0.09900 0.70930 0.09500
C 	C 	0.90440 0.47270 0.27620 -0.23200
C 	C 	0.77370 0.13610 0.67513 -0.19300
C 	C 	0.59560 0.02730 0.77620 -0.24100
C 	C 	0.72290 0.28580 0.10300 0.34600
C 	C 	0.55580 0.47090 0.27600 -0.22800
N 	N 	0.76650 0.93420 0.88137 -0.43500
N 	N 	0.73350 0.56580 0.38137 -0.43400
O 	O 	0.56350 0.26190 0.07043 -0.47500
O 	O 	0.61860 0.25780 0.57738 -0.50200
O 	O 	0.93650 0.23810 0.57043 -0.47600
O 	O 	0.88140 0.24220 0.07738 -0.50000
Cd	Cd	0.25311 0.89549 0.01889 1.08600
Cd	Cd	0.24689 0.60451 0.51889 1.08700
H 	H 	0.56580 0.62170 0.81360 -0.01300
H 	H 	0.97660 0.50120 0.70210 0.05800
H 	H 	0.56110 0.50500 0.70210 0.06200
H 	H 	0.13200 0.11200 0.10900 0.10400
H 	H 	0.93420 0.87830 0.31360 -0.01500
H 	H 	0.32900 0.12500 0.11300 0.11800
H 	H 	0.93890 0.99500 0.20210 0.06500
H 	H 	0.17100 0.37500 0.61300 0.11700
H 	H 	0.52340 0.99880 0.20210 0.06100
H 	H 	0.36800 0.38800 0.60900 0.10300
H 	H 	0.51830 0.87760 0.31280 -0.01400
H 	H 	0.98170 0.62240 0.81280 -0.01400
C 	C 	0.05310 0.90090 0.29100 0.09400
C 	C 	0.09560 0.52730 0.72380 -0.23200
C 	C 	0.23170 0.00540 0.18944 0.14100
C 	C 	0.44420 0.52910 0.72400 -0.22800
C 	C 	0.27370 0.63610 0.82487 -0.18900
C 	C 	0.26830 0.49460 0.68944 0.13200
C 	C 	0.22630 0.86390 0.32487 -0.19300
C 	C 	0.09880 0.59900 0.79070 0.09200
C 	C 	0.40120 0.90100 0.29070 0.09500
C 	C 	0.27710 0.71420 0.89700 0.34600
C 	C 	0.44690 0.59910 0.79100 0.08900
C 	C 	0.40440 0.97270 0.22380 -0.24100
C 	C 	0.22290 0.78580 0.39700 0.34700
C 	C 	0.05580 0.97090 0.22400 -0.23900
N 	N 	0.23350 0.06580 0.11863 -0.43500
N 	N 	0.26650 0.43420 0.61863 -0.43400
O 	O 	0.43650 0.73810 0.92957 -0.47500
O 	O 	0.38140 0.74220 0.42262 -0.50200
O 	O 	0.06350 0.76190 0.42957 -0.47600
O 	O 	0.11860 0.75780 0.92262 -0.50000
