data_crystal

_cell_length_a 13.86400
_cell_length_b 13.87370
_cell_length_c 21.11620
_cell_angle_alpha 90.00000
_cell_angle_beta  102.53100
_cell_angle_gamma 90.00000

_symmetry_space_group_name_	'P 1'
_symmetry_space_group_name_H-M	'P 1'

loop_
_symmetry_equiv_pos_as_xyz
  x,y,z

loop_
_atom_site_label
_atom_site_type_symbol
_atom_site_fract_x
_atom_site_fract_y
_atom_site_fract_z
_atom_site_charge
Ni	Ni	0.28957 0.21753 0.75773 1.06800
S 	S 	0.35650 0.89470 0.69590 -0.03700
S 	S 	0.24500 0.55690 0.78730 0.03100
S 	S 	0.37690 0.92180 0.67240 -0.01500
S 	S 	0.19040 0.53900 0.74940 0.31400
S 	S 	0.18110 0.52950 0.78610 -0.41900
N 	N 	0.43170 0.21710 0.81870 -0.24500
N 	N 	0.72940 0.23980 0.00260 -0.07500
N 	N 	0.82610 0.22590 0.03790 -0.07500
N 	N 	0.14650 0.28470 0.19600 -0.24800
N 	N 	0.23090 0.15760 0.83450 -0.24900
N 	N 	0.01770 0.02600 0.97730 -0.07600
N 	N 	0.34740 0.27570 0.68090 -0.24600
N 	N 	0.49010 0.48500 0.52990 -0.07500
N 	N 	0.31290 0.08210 0.72740 -0.26300
N 	N 	0.26370 0.35380 0.78640 -0.26600
C 	C 	0.50680 0.17100 0.80310 0.10100
H 	H 	0.49670 0.14080 0.76230 -0.01700
C 	C 	0.59890 0.16500 0.84350 -0.17100
H 	H 	0.65000 0.13140 0.83030 0.08200
C 	C 	0.61530 0.20870 0.90340 0.11800
C 	C 	0.53800 0.25820 0.92060 -0.16300
H 	H 	0.54660 0.28910 0.96100 0.09700
C 	C 	0.44860 0.26120 0.87720 0.09000
H 	H 	0.39650 0.29560 0.88870 -0.01200
C 	C 	0.71350 0.20270 0.94730 -0.04100
H 	H 	0.76500 0.17060 0.93350 0.05300
C 	C 	0.85760 0.29190 0.07500 -0.04700
H 	H 	0.81680 0.34520 0.07760 0.06700
C 	C 	0.10880 0.20840 0.15990 0.11200
H 	H 	0.14750 0.15230 0.16250 -0.02200
C 	C 	0.01800 0.20790 0.11990 -0.18100
H 	H 	0.99540 0.15280 0.09520 0.10700
C 	C 	0.95810 0.28950 0.11560 0.13300
C 	C 	0.99640 0.36660 0.15360 -0.19000
H 	H 	0.95830 0.42270 0.15300 0.11300
C 	C 	0.08960 0.36280 0.19220 0.11300
H 	H 	0.11420 0.41730 0.21700 -0.01600
C 	C 	0.15480 0.19430 0.85150 0.10300
H 	H 	0.12890 0.25320 0.83340 -0.01300
C 	C 	0.10830 0.14590 0.89850 -0.18700
H 	H 	0.05220 0.17160 0.91070 0.10300
C 	C 	0.14950 0.06300 0.92340 0.14900
C 	C 	0.22900 0.02560 0.90840 -0.21000
H 	H 	0.25880 0.96930 0.92830 0.11400
C 	C 	0.26560 0.07400 0.86200 0.11700
H 	H 	0.31960 0.04610 0.84840 -0.01700
C 	C 	0.10310 0.01020 0.97240 -0.05200
H 	H 	0.14070 0.96420 0.99980 0.06100
C 	C 	0.32270 0.23930 0.62150 0.09900
H 	H 	0.28370 0.18340 0.61450 -0.01300
C 	C 	0.35270 0.28110 0.56930 -0.17300
H 	H 	0.33340 0.25420 0.52760 0.09100
C 	C 	0.41080 0.36240 0.57900 0.11900
C 	C 	0.43830 0.39900 0.64150 -0.17300
H 	H 	0.47890 0.45380 0.65010 0.09700
C 	C 	0.40530 0.35400 0.69000 0.09700
H 	H 	0.42410 0.37920 0.73220 -0.01700
C 	C 	0.44130 0.40830 0.52350 -0.04400
H 	H 	0.42380 0.37930 0.48230 0.05900
C 	C 	0.33340 0.01080 0.71030 0.11100
C 	C 	0.24490 0.43400 0.78460 0.13200
Ni	Ni	0.71043 0.71753 0.74227 1.06700
S 	S 	0.64350 0.39470 0.80410 -0.03800
S 	S 	0.75500 0.05690 0.71270 0.03200
S 	S 	0.62310 0.42180 0.82760 -0.01500
S 	S 	0.80960 0.03900 0.75060 0.31800
S 	S 	0.81890 0.02950 0.71390 -0.42600
N 	N 	0.56830 0.71710 0.68130 -0.24500
N 	N 	0.27060 0.73980 0.49740 -0.07500
N 	N 	0.17390 0.72590 0.46210 -0.07500
N 	N 	0.85350 0.78470 0.30400 -0.24900
N 	N 	0.76910 0.65760 0.66550 -0.25000
N 	N 	0.98230 0.52600 0.52270 -0.07600
N 	N 	0.65260 0.77570 0.81910 -0.24600
N 	N 	0.50990 0.98500 0.97010 -0.07500
N 	N 	0.68710 0.58210 0.77260 -0.26300
N 	N 	0.73630 0.85380 0.71360 -0.26600
C 	C 	0.49320 0.67100 0.69690 0.10100
H 	H 	0.50330 0.64080 0.73770 -0.01700
C 	C 	0.40110 0.66500 0.65650 -0.17100
H 	H 	0.35000 0.63140 0.66970 0.08200
C 	C 	0.38470 0.70870 0.59660 0.11900
C 	C 	0.46200 0.75820 0.57940 -0.16400
H 	H 	0.45340 0.78910 0.53900 0.09700
C 	C 	0.55140 0.76120 0.62280 0.09000
H 	H 	0.60350 0.79560 0.61130 -0.01200
C 	C 	0.28650 0.70270 0.55270 -0.04100
H 	H 	0.23500 0.67060 0.56650 0.05300
C 	C 	0.14240 0.79190 0.42500 -0.04800
H 	H 	0.18320 0.84520 0.42240 0.06800
C 	C 	0.89120 0.70840 0.34010 0.11300
H 	H 	0.85250 0.65230 0.33750 -0.02300
C 	C 	0.98200 0.70790 0.38010 -0.18300
H 	H 	0.00460 0.65280 0.40480 0.10800
C 	C 	0.04190 0.78950 0.38440 0.13400
C 	C 	0.00360 0.86660 0.34640 -0.19200
H 	H 	0.04170 0.92270 0.34700 0.11300
C 	C 	0.91040 0.86280 0.30780 0.11400
H 	H 	0.88580 0.91730 0.28300 -0.01600
C 	C 	0.84520 0.69430 0.64850 0.10400
H 	H 	0.87110 0.75320 0.66660 -0.01300
C 	C 	0.89170 0.64590 0.60150 -0.18900
H 	H 	0.94780 0.67160 0.58930 0.10400
C 	C 	0.85050 0.56300 0.57660 0.15200
C 	C 	0.77100 0.52560 0.59160 -0.21400
H 	H 	0.74120 0.46930 0.57170 0.11600
C 	C 	0.73440 0.57400 0.63800 0.11900
H 	H 	0.68040 0.54610 0.65160 -0.01800
C 	C 	0.89690 0.51020 0.52760 -0.05500
H 	H 	0.85930 0.46420 0.50020 0.06300
C 	C 	0.67730 0.73930 0.87850 0.09900
H 	H 	0.71630 0.68340 0.88550 -0.01300
C 	C 	0.64730 0.78110 0.93070 -0.17300
H 	H 	0.66660 0.75420 0.97240 0.09100
C 	C 	0.58920 0.86240 0.92100 0.11900
C 	C 	0.56170 0.89900 0.85850 -0.17300
H 	H 	0.52110 0.95380 0.84990 0.09700
C 	C 	0.59470 0.85400 0.81000 0.09700
H 	H 	0.57590 0.87920 0.76780 -0.01700
C 	C 	0.55870 0.90830 0.97650 -0.04400
H 	H 	0.57620 0.87930 0.01770 0.06000
C 	C 	0.66660 0.51080 0.78970 0.11100
C 	C 	0.75510 0.93400 0.71540 0.13300
Ni	Ni	0.71043 0.78247 0.24227 1.06700
S 	S 	0.64350 0.10530 0.30410 -0.03800
S 	S 	0.75500 0.44310 0.21270 0.03000
S 	S 	0.62310 0.07820 0.32760 -0.01600
S 	S 	0.80960 0.46100 0.25060 0.31400
S 	S 	0.81890 0.47050 0.21390 -0.41900
N 	N 	0.56830 0.78290 0.18130 -0.24500
N 	N 	0.27060 0.76020 0.99740 -0.07500
N 	N 	0.17390 0.77410 0.96210 -0.07500
N 	N 	0.85350 0.71530 0.80400 -0.24800
N 	N 	0.76910 0.84240 0.16550 -0.24900
N 	N 	0.98230 0.97400 0.02270 -0.07600
N 	N 	0.65260 0.72430 0.31910 -0.24600
N 	N 	0.50990 0.51500 0.47010 -0.07500
N 	N 	0.68710 0.91790 0.27260 -0.26300
N 	N 	0.73630 0.64620 0.21360 -0.26600
C 	C 	0.49320 0.82900 0.19690 0.10100
H 	H 	0.50330 0.85920 0.23770 -0.01700
C 	C 	0.40110 0.83500 0.15650 -0.17100
H 	H 	0.35000 0.86860 0.16970 0.08200
C 	C 	0.38470 0.79130 0.09660 0.11800
C 	C 	0.46200 0.74180 0.07940 -0.16300
H 	H 	0.45340 0.71090 0.03900 0.09700
C 	C 	0.55140 0.73880 0.12280 0.09000
H 	H 	0.60350 0.70440 0.11130 -0.01200
C 	C 	0.28650 0.79730 0.05270 -0.04100
H 	H 	0.23500 0.82940 0.06650 0.05300
C 	C 	0.14240 0.70810 0.92500 -0.04700
H 	H 	0.18320 0.65480 0.92240 0.06700
C 	C 	0.89120 0.79160 0.84010 0.11200
H 	H 	0.85250 0.84770 0.83750 -0.02200
C 	C 	0.98200 0.79210 0.88010 -0.18100
H 	H 	0.00460 0.84720 0.90480 0.10700
C 	C 	0.04190 0.71050 0.88440 0.13300
C 	C 	0.00360 0.63340 0.84640 -0.19000
H 	H 	0.04170 0.57730 0.84700 0.11300
C 	C 	0.91040 0.63720 0.80780 0.11300
H 	H 	0.88580 0.58270 0.78300 -0.01600
C 	C 	0.84520 0.80570 0.14850 0.10300
H 	H 	0.87110 0.74680 0.16660 -0.01300
C 	C 	0.89170 0.85410 0.10150 -0.18700
H 	H 	0.94780 0.82840 0.08930 0.10300
C 	C 	0.85050 0.93700 0.07660 0.14900
C 	C 	0.77100 0.97440 0.09160 -0.21000
H 	H 	0.74120 0.03070 0.07170 0.11400
C 	C 	0.73440 0.92600 0.13800 0.11700
H 	H 	0.68040 0.95390 0.15160 -0.01700
C 	C 	0.89690 0.98980 0.02760 -0.05200
H 	H 	0.85930 0.03580 0.00020 0.06100
C 	C 	0.67730 0.76070 0.37850 0.09900
H 	H 	0.71630 0.81660 0.38550 -0.01300
C 	C 	0.64730 0.71890 0.43070 -0.17300
H 	H 	0.66660 0.74580 0.47240 0.09100
C 	C 	0.58920 0.63760 0.42100 0.11900
C 	C 	0.56170 0.60100 0.35850 -0.17300
H 	H 	0.52110 0.54620 0.34990 0.09700
C 	C 	0.59470 0.64600 0.31000 0.09700
H 	H 	0.57590 0.62080 0.26780 -0.01700
C 	C 	0.55870 0.59170 0.47650 -0.04400
H 	H 	0.57620 0.62070 0.51770 0.05900
C 	C 	0.66660 0.98920 0.28970 0.11100
C 	C 	0.75510 0.56600 0.21540 0.13200
Ni	Ni	0.28957 0.28247 0.25773 1.06700
S 	S 	0.35650 0.60530 0.19590 -0.03800
S 	S 	0.24500 0.94310 0.28730 0.03200
S 	S 	0.37690 0.57820 0.17240 -0.01500
S 	S 	0.19040 0.96100 0.24940 0.31800
S 	S 	0.18110 0.97050 0.28610 -0.42600
N 	N 	0.43170 0.28290 0.31870 -0.24500
N 	N 	0.72940 0.26020 0.50260 -0.07500
N 	N 	0.82610 0.27410 0.53790 -0.07500
N 	N 	0.14650 0.21530 0.69600 -0.24900
N 	N 	0.23090 0.34240 0.33450 -0.25000
N 	N 	0.01770 0.47400 0.47730 -0.07600
N 	N 	0.34740 0.22430 0.18090 -0.24600
N 	N 	0.49010 0.01500 0.02990 -0.07500
N 	N 	0.31290 0.41790 0.22740 -0.26300
N 	N 	0.26370 0.14620 0.28640 -0.26600
C 	C 	0.50680 0.32900 0.30310 0.10100
H 	H 	0.49670 0.35920 0.26230 -0.01700
C 	C 	0.59890 0.33500 0.34350 -0.17100
H 	H 	0.65000 0.36860 0.33030 0.08200
C 	C 	0.61530 0.29130 0.40340 0.11900
C 	C 	0.53800 0.24180 0.42060 -0.16400
H 	H 	0.54660 0.21090 0.46100 0.09700
C 	C 	0.44860 0.23880 0.37720 0.09000
H 	H 	0.39650 0.20440 0.38870 -0.01200
C 	C 	0.71350 0.29730 0.44730 -0.04100
H 	H 	0.76500 0.32940 0.43350 0.05300
C 	C 	0.85760 0.20810 0.57500 -0.04800
H 	H 	0.81680 0.15480 0.57760 0.06800
C 	C 	0.10880 0.29160 0.65990 0.11300
H 	H 	0.14750 0.34770 0.66250 -0.02300
C 	C 	0.01800 0.29210 0.61990 -0.18300
H 	H 	0.99540 0.34720 0.59520 0.10800
C 	C 	0.95810 0.21050 0.61560 0.13400
C 	C 	0.99640 0.13340 0.65360 -0.19200
H 	H 	0.95830 0.07730 0.65300 0.11300
C 	C 	0.08960 0.13720 0.69220 0.11400
H 	H 	0.11420 0.08270 0.71700 -0.01600
C 	C 	0.15480 0.30570 0.35150 0.10400
H 	H 	0.12890 0.24680 0.33340 -0.01300
C 	C 	0.10830 0.35410 0.39850 -0.18900
H 	H 	0.05220 0.32840 0.41070 0.10400
C 	C 	0.14950 0.43700 0.42340 0.15200
C 	C 	0.22900 0.47440 0.40840 -0.21400
H 	H 	0.25880 0.53070 0.42830 0.11600
C 	C 	0.26560 0.42600 0.36200 0.11900
H 	H 	0.31960 0.45390 0.34840 -0.01800
C 	C 	0.10310 0.48980 0.47240 -0.05500
H 	H 	0.14070 0.53580 0.49980 0.06300
C 	C 	0.32270 0.26070 0.12150 0.09900
H 	H 	0.28370 0.31660 0.11450 -0.01300
C 	C 	0.35270 0.21890 0.06930 -0.17300
H 	H 	0.33340 0.24580 0.02760 0.09100
C 	C 	0.41080 0.13760 0.07900 0.11900
C 	C 	0.43830 0.10100 0.14150 -0.17300
H 	H 	0.47890 0.04620 0.15010 0.09700
C 	C 	0.40530 0.14600 0.19000 0.09700
H 	H 	0.42410 0.12080 0.23220 -0.01700
C 	C 	0.44130 0.09170 0.02350 -0.04400
H 	H 	0.42380 0.12070 0.98230 0.06000
C 	C 	0.33340 0.48920 0.21030 0.11100
C 	C 	0.24490 0.06600 0.28460 0.13300
