data_crystal

_cell_length_a 10.96960
_cell_length_b 23.07920
_cell_length_c 23.32760
_cell_angle_alpha 90.00000
_cell_angle_beta  90.00000
_cell_angle_gamma 90.00000

_symmetry_space_group_name_	'P 1'
_symmetry_space_group_name_H-M	'P 1'

loop_
_symmetry_equiv_pos_as_xyz
  x,y,z

loop_
_atom_site_label
_atom_site_type_symbol
_atom_site_fract_x
_atom_site_fract_y
_atom_site_fract_z
_atom_site_charge
S 	S 	0.25941 0.93063 0.43014 -0.64400
C 	C 	0.27410 0.82323 0.54215 -0.19300
C 	C 	0.27710 0.04318 0.32250 -0.20000
N 	N 	0.27710 0.70682 0.42750 -0.20700
S 	S 	0.25941 0.43063 0.93014 -0.64500
C 	C 	0.27410 0.32323 0.04215 -0.19500
C 	C 	0.27710 0.54318 0.82250 -0.20000
N 	N 	0.27710 0.20682 0.92750 -0.20700
S 	S 	0.75941 0.93063 0.93014 -0.64600
C 	C 	0.77410 0.82323 0.04215 -0.19300
C 	C 	0.77710 0.04318 0.82250 -0.19800
N 	N 	0.77710 0.70682 0.92750 -0.20700
S 	S 	0.75941 0.43063 0.43014 -0.64600
C 	C 	0.77410 0.32323 0.54215 -0.19400
C 	C 	0.77710 0.54318 0.32250 -0.20000
N 	N 	0.77710 0.20682 0.42750 -0.20700
S 	S 	0.49059 0.81937 0.43014 -0.64600
C 	C 	0.47590 0.92677 0.54215 -0.19400
C 	C 	0.47290 0.70682 0.32250 -0.20000
N 	N 	0.47290 0.04318 0.42750 -0.20700
S 	S 	0.49059 0.31937 0.93014 -0.64500
C 	C 	0.47590 0.42677 0.04215 -0.19400
C 	C 	0.47290 0.20682 0.82250 -0.20000
N 	N 	0.47290 0.54318 0.92750 -0.20700
S 	S 	0.99059 0.81937 0.93014 -0.64700
C 	C 	0.97590 0.92677 0.04215 -0.19300
C 	C 	0.97290 0.70682 0.82250 -0.20100
N 	N 	0.97290 0.04318 0.92750 -0.20600
S 	S 	0.99059 0.31937 0.43014 -0.64600
C 	C 	0.97590 0.42677 0.54215 -0.19400
C 	C 	0.97290 0.20682 0.32250 -0.19900
N 	N 	0.97290 0.54318 0.42750 -0.20700
S 	S 	0.49059 0.93063 0.31986 -0.64500
C 	C 	0.47590 0.82323 0.20785 -0.20300
S 	S 	0.49059 0.43063 0.81986 -0.64500
C 	C 	0.47590 0.32323 0.70785 -0.20300
S 	S 	0.99059 0.93063 0.81986 -0.64600
C 	C 	0.97590 0.82323 0.70785 -0.20400
S 	S 	0.99059 0.43063 0.31986 -0.64600
C 	C 	0.97590 0.32323 0.20785 -0.20200
S 	S 	0.25941 0.81937 0.31986 -0.64500
C 	C 	0.27410 0.92677 0.20785 -0.20300
S 	S 	0.25941 0.31937 0.81986 -0.64500
C 	C 	0.27410 0.42677 0.70785 -0.20300
S 	S 	0.75941 0.81937 0.81986 -0.64500
C 	C 	0.77410 0.92677 0.70785 -0.20300
S 	S 	0.75941 0.31937 0.31986 -0.64500
C 	C 	0.77410 0.42677 0.20785 -0.20300
S 	S 	0.74059 0.06937 0.56986 -0.64500
C 	C 	0.72590 0.17677 0.45785 -0.19400
C 	C 	0.72290 0.95682 0.67750 -0.20000
N 	N 	0.72290 0.29318 0.57250 -0.20700
S 	S 	0.74059 0.56937 0.06986 -0.64500
C 	C 	0.72590 0.67677 0.95785 -0.19500
C 	C 	0.72290 0.45682 0.17750 -0.20000
N 	N 	0.72290 0.79318 0.07250 -0.20700
S 	S 	0.24059 0.06937 0.06986 -0.64600
C 	C 	0.22590 0.17677 0.95785 -0.19300
C 	C 	0.22290 0.95682 0.17750 -0.19800
N 	N 	0.22290 0.29318 0.07250 -0.20700
S 	S 	0.24059 0.56937 0.56986 -0.64600
C 	C 	0.22590 0.67677 0.45785 -0.19400
C 	C 	0.22290 0.45682 0.67750 -0.20000
N 	N 	0.22290 0.79318 0.57250 -0.20700
S 	S 	0.50941 0.18063 0.56986 -0.64600
C 	C 	0.52410 0.07323 0.45785 -0.19400
C 	C 	0.52710 0.29318 0.67750 -0.20000
N 	N 	0.52710 0.95682 0.57250 -0.20700
S 	S 	0.50941 0.68063 0.06986 -0.64500
C 	C 	0.52410 0.57323 0.95785 -0.19400
C 	C 	0.52710 0.79318 0.17750 -0.20000
N 	N 	0.52710 0.45682 0.07250 -0.20700
S 	S 	0.00941 0.18063 0.06986 -0.64700
C 	C 	0.02410 0.07323 0.95785 -0.19300
C 	C 	0.02710 0.29318 0.17750 -0.20100
N 	N 	0.02710 0.95682 0.07250 -0.20600
S 	S 	0.00941 0.68063 0.56986 -0.64600
C 	C 	0.02410 0.57323 0.45785 -0.19400
C 	C 	0.02710 0.79318 0.67750 -0.19900
N 	N 	0.02710 0.45682 0.57250 -0.20700
S 	S 	0.50941 0.06937 0.68014 -0.64500
C 	C 	0.52410 0.17677 0.79215 -0.20300
S 	S 	0.50941 0.56937 0.18014 -0.64500
C 	C 	0.52410 0.67677 0.29215 -0.20300
S 	S 	0.00941 0.06937 0.18014 -0.64600
C 	C 	0.02410 0.17677 0.29215 -0.20400
S 	S 	0.00941 0.56937 0.68014 -0.64600
C 	C 	0.02410 0.67677 0.79215 -0.20200
S 	S 	0.74059 0.18063 0.68014 -0.64500
C 	C 	0.72590 0.07323 0.79215 -0.20300
S 	S 	0.74059 0.68063 0.18014 -0.64500
C 	C 	0.72590 0.57323 0.29215 -0.20300
S 	S 	0.24059 0.18063 0.18014 -0.64500
C 	C 	0.22590 0.07323 0.29215 -0.20300
S 	S 	0.24059 0.68063 0.68014 -0.64500
C 	C 	0.22590 0.57323 0.79215 -0.20300
Mo	Mo	0.37500 0.87500 0.37500 0.95900
Mo	Mo	0.37500 0.37500 0.87500 0.95900
Mo	Mo	0.87500 0.87500 0.87500 0.95900
Mo	Mo	0.87500 0.37500 0.37500 0.95900
Mo	Mo	0.62500 0.12500 0.62500 0.95900
Mo	Mo	0.62500 0.62500 0.12500 0.95900
Mo	Mo	0.12500 0.12500 0.12500 0.95900
Mo	Mo	0.12500 0.62500 0.62500 0.95900
Cu	Cu	0.37500 0.87500 0.49411 0.80600
Cu	Cu	0.37500 0.37500 0.99411 0.80600
Cu	Cu	0.87500 0.87500 0.99411 0.80500
Cu	Cu	0.87500 0.37500 0.49411 0.80600
Cu	Cu	0.37500 0.87500 0.25589 0.80800
Cu	Cu	0.37500 0.37500 0.75589 0.80800
Cu	Cu	0.87500 0.87500 0.75589 0.80800
Cu	Cu	0.87500 0.37500 0.25589 0.80800
Cu	Cu	0.62500 0.12500 0.50589 0.80600
Cu	Cu	0.62500 0.62500 0.00589 0.80600
Cu	Cu	0.12500 0.12500 0.00589 0.80500
Cu	Cu	0.12500 0.62500 0.50589 0.80600
Cu	Cu	0.62500 0.12500 0.74411 0.80800
Cu	Cu	0.62500 0.62500 0.24411 0.80800
Cu	Cu	0.12500 0.12500 0.24411 0.80800
Cu	Cu	0.12500 0.62500 0.74411 0.80800
Cu	Cu	0.37500 0.99421 0.37500 0.80800
Cu	Cu	0.37500 0.49421 0.87500 0.80800
Cu	Cu	0.87500 0.99421 0.87500 0.80800
Cu	Cu	0.87500 0.49421 0.37500 0.80800
Cu	Cu	0.37500 0.75579 0.37500 0.80800
Cu	Cu	0.37500 0.25579 0.87500 0.80800
Cu	Cu	0.87500 0.75579 0.87500 0.80800
Cu	Cu	0.87500 0.25579 0.37500 0.80800
Cu	Cu	0.62500 0.00579 0.62500 0.80800
Cu	Cu	0.62500 0.50579 0.12500 0.80800
Cu	Cu	0.12500 0.00579 0.12500 0.80800
Cu	Cu	0.12500 0.50579 0.62500 0.80800
Cu	Cu	0.62500 0.24421 0.62500 0.80800
Cu	Cu	0.62500 0.74421 0.12500 0.80800
Cu	Cu	0.12500 0.24421 0.12500 0.80800
Cu	Cu	0.12500 0.74421 0.62500 0.80800
