data_crystal

_cell_length_a 10.89680
_cell_length_b 23.05530
_cell_length_c 23.28700
_cell_angle_alpha 90.00000
_cell_angle_beta  90.00000
_cell_angle_gamma 90.00000

_symmetry_space_group_name_	'P 1'
_symmetry_space_group_name_H-M	'P 1'

loop_
_symmetry_equiv_pos_as_xyz
  x,y,z

loop_
_atom_site_label
_atom_site_type_symbol
_atom_site_fract_x
_atom_site_fract_y
_atom_site_fract_z
_atom_site_charge
S 	S 	0.25869 0.93033 0.42980 -0.50500
N 	N 	0.27410 0.82293 0.54209 -0.21000
C 	C 	0.22590 0.07293 0.29209 -0.20500
C 	C 	0.27680 0.04291 0.32269 -0.20400
S 	S 	0.25869 0.43033 0.92980 -0.50400
N 	N 	0.27410 0.32293 0.04209 -0.21000
C 	C 	0.22590 0.57293 0.79209 -0.20500
C 	C 	0.27680 0.54291 0.82269 -0.20400
S 	S 	0.75869 0.93033 0.92980 -0.50500
N 	N 	0.77410 0.82293 0.04209 -0.20900
C 	C 	0.72590 0.07293 0.79209 -0.20500
C 	C 	0.77680 0.04291 0.82269 -0.20200
S 	S 	0.75869 0.43033 0.42980 -0.50400
N 	N 	0.77410 0.32293 0.54209 -0.20900
C 	C 	0.72590 0.57293 0.29209 -0.20400
C 	C 	0.77680 0.54291 0.32269 -0.20300
S 	S 	0.49131 0.81967 0.42980 -0.50300
N 	N 	0.47590 0.92707 0.54209 -0.20900
C 	C 	0.52410 0.67707 0.29209 -0.20400
C 	C 	0.47320 0.70709 0.32269 -0.20300
S 	S 	0.49131 0.31967 0.92980 -0.50300
N 	N 	0.47590 0.42707 0.04209 -0.20900
C 	C 	0.52410 0.17707 0.79209 -0.20300
C 	C 	0.47320 0.20709 0.82269 -0.20300
S 	S 	0.99131 0.81967 0.92980 -0.50400
N 	N 	0.97590 0.92707 0.04209 -0.20800
C 	C 	0.02410 0.67707 0.79209 -0.20400
C 	C 	0.97320 0.70709 0.82269 -0.20300
S 	S 	0.99131 0.31967 0.42980 -0.50300
N 	N 	0.97590 0.42707 0.54209 -0.20800
C 	C 	0.02410 0.17707 0.29209 -0.20600
C 	C 	0.97320 0.20709 0.32269 -0.20100
S 	S 	0.49131 0.93033 0.32020 -0.50300
N 	N 	0.47590 0.82293 0.20791 -0.20900
C 	C 	0.52410 0.07293 0.45791 -0.20300
C 	C 	0.47320 0.04291 0.42731 -0.20300
S 	S 	0.49131 0.43033 0.82020 -0.50300
N 	N 	0.47590 0.32293 0.70791 -0.20900
C 	C 	0.52410 0.57293 0.95791 -0.20400
C 	C 	0.47320 0.54291 0.92731 -0.20300
S 	S 	0.99131 0.93033 0.82020 -0.50500
N 	N 	0.97590 0.82293 0.70791 -0.20900
C 	C 	0.02410 0.07293 0.95791 -0.20400
C 	C 	0.97320 0.04291 0.92731 -0.20000
S 	S 	0.99131 0.43033 0.32020 -0.50300
N 	N 	0.97590 0.32293 0.20791 -0.20800
C 	C 	0.02410 0.57293 0.45791 -0.20500
C 	C 	0.97320 0.54291 0.42731 -0.20200
S 	S 	0.25869 0.81967 0.32020 -0.50400
N 	N 	0.27410 0.92707 0.20791 -0.20900
C 	C 	0.22590 0.67707 0.45791 -0.20400
C 	C 	0.27680 0.70709 0.42731 -0.20300
S 	S 	0.25869 0.31967 0.82020 -0.50400
N 	N 	0.27410 0.42707 0.70791 -0.20900
C 	C 	0.22590 0.17707 0.95791 -0.20200
C 	C 	0.27680 0.20709 0.92731 -0.20300
S 	S 	0.75869 0.81967 0.82020 -0.50400
N 	N 	0.77410 0.92707 0.70791 -0.20900
C 	C 	0.72590 0.67707 0.95791 -0.20400
C 	C 	0.77680 0.70709 0.92731 -0.20300
S 	S 	0.75869 0.31967 0.32020 -0.50300
N 	N 	0.77410 0.42707 0.20791 -0.20900
C 	C 	0.72590 0.17707 0.45791 -0.20300
C 	C 	0.77680 0.20709 0.42731 -0.20300
S 	S 	0.74131 0.06967 0.57020 -0.50400
C 	C 	0.72320 0.95709 0.67731 -0.19600
S 	S 	0.74131 0.56967 0.07020 -0.50400
C 	C 	0.72320 0.45709 0.17731 -0.19500
S 	S 	0.24131 0.06967 0.07020 -0.50500
C 	C 	0.22320 0.95709 0.17731 -0.19400
S 	S 	0.24131 0.56967 0.57020 -0.50500
C 	C 	0.22320 0.45709 0.67731 -0.19500
S 	S 	0.50869 0.18033 0.57020 -0.50500
C 	C 	0.52680 0.29291 0.67731 -0.19500
S 	S 	0.50869 0.68033 0.07020 -0.50500
C 	C 	0.52680 0.79291 0.17731 -0.19500
S 	S 	0.00869 0.18033 0.07020 -0.50600
C 	C 	0.02680 0.29291 0.17731 -0.19700
S 	S 	0.00869 0.68033 0.57020 -0.50600
C 	C 	0.02680 0.79291 0.67731 -0.19600
S 	S 	0.50869 0.06967 0.67980 -0.50400
C 	C 	0.52680 0.95709 0.57269 -0.19600
S 	S 	0.50869 0.56967 0.17980 -0.50500
C 	C 	0.52680 0.45709 0.07269 -0.19500
S 	S 	0.00869 0.06967 0.17980 -0.50600
C 	C 	0.02680 0.95709 0.07269 -0.19500
S 	S 	0.00869 0.56967 0.67980 -0.50600
C 	C 	0.02680 0.45709 0.57269 -0.19600
S 	S 	0.74131 0.18033 0.67980 -0.50500
C 	C 	0.72320 0.29291 0.57269 -0.19500
S 	S 	0.74131 0.68033 0.17980 -0.50500
C 	C 	0.72320 0.79291 0.07269 -0.19500
S 	S 	0.24131 0.18033 0.17980 -0.50500
C 	C 	0.22320 0.29291 0.07269 -0.19500
S 	S 	0.24131 0.68033 0.67980 -0.50500
C 	C 	0.22320 0.79291 0.57269 -0.19500
W 	W 	0.37500 0.87500 0.37500 0.33400
W 	W 	0.37500 0.37500 0.87500 0.33400
W 	W 	0.87500 0.87500 0.87500 0.33400
W 	W 	0.87500 0.37500 0.37500 0.33400
W 	W 	0.62500 0.12500 0.62500 0.33400
W 	W 	0.62500 0.62500 0.12500 0.33400
W 	W 	0.12500 0.12500 0.12500 0.33400
W 	W 	0.12500 0.62500 0.62500 0.33400
Cu	Cu	0.37500 0.87500 0.49492 0.82800
Cu	Cu	0.37500 0.37500 0.99492 0.82800
Cu	Cu	0.87500 0.87500 0.99492 0.82700
Cu	Cu	0.87500 0.37500 0.49492 0.82800
Cu	Cu	0.37500 0.87500 0.25508 0.82800
Cu	Cu	0.37500 0.37500 0.75508 0.82800
Cu	Cu	0.87500 0.87500 0.75508 0.82800
Cu	Cu	0.87500 0.37500 0.25508 0.82800
Cu	Cu	0.62500 0.12500 0.50508 0.82600
Cu	Cu	0.62500 0.62500 0.00508 0.82600
Cu	Cu	0.12500 0.12500 0.00508 0.82500
Cu	Cu	0.12500 0.62500 0.50508 0.82600
Cu	Cu	0.62500 0.12500 0.74492 0.82600
Cu	Cu	0.62500 0.62500 0.24492 0.82600
Cu	Cu	0.12500 0.12500 0.24492 0.82600
Cu	Cu	0.12500 0.62500 0.74492 0.82600
Cu	Cu	0.37500 0.99487 0.37500 0.82700
Cu	Cu	0.37500 0.49487 0.87500 0.82700
Cu	Cu	0.87500 0.99487 0.87500 0.82600
Cu	Cu	0.87500 0.49487 0.37500 0.82700
Cu	Cu	0.37500 0.75513 0.37500 0.82700
Cu	Cu	0.37500 0.25513 0.87500 0.82700
Cu	Cu	0.87500 0.75513 0.87500 0.82700
Cu	Cu	0.87500 0.25513 0.37500 0.82600
Cu	Cu	0.62500 0.00513 0.62500 0.82600
Cu	Cu	0.62500 0.50513 0.12500 0.82500
Cu	Cu	0.12500 0.00513 0.12500 0.82500
Cu	Cu	0.12500 0.50513 0.62500 0.82500
Cu	Cu	0.62500 0.24487 0.62500 0.82500
Cu	Cu	0.62500 0.74487 0.12500 0.82500
Cu	Cu	0.12500 0.24487 0.12500 0.82500
Cu	Cu	0.12500 0.74487 0.62500 0.82500
