data_crystal

_cell_length_a 9.13140
_cell_length_b 12.74960
_cell_length_c 14.74790
_cell_angle_alpha 89.48000
_cell_angle_beta  86.24900
_cell_angle_gamma 72.41900

_symmetry_space_group_name_	'P 1'
_symmetry_space_group_name_H-M	'P 1'

loop_
_symmetry_equiv_pos_as_xyz
  x,y,z

loop_
_atom_site_label
_atom_site_type_symbol
_atom_site_fract_x
_atom_site_fract_y
_atom_site_fract_z
_atom_site_charge
Ga	Ga	0.95703 0.13329 0.38984 2.07600
Ga	Ga	0.94281 0.12796 0.13990 2.06500
Ga	Ga	0.31459 0.30723 0.24511 2.07900
Ga	Ga	0.94357 0.64475 0.38006 2.08400
Ga	Ga	0.32004 0.80991 0.23424 2.08600
Mn	Mn	0.81969 0.43532 0.25679 1.30800
Mn	Mn	0.03684 0.29938 0.89313 1.34100
P 	P 	0.67311 0.26447 0.28271 0.60300
P 	P 	0.22023 0.07464 0.28312 0.62100
P 	P 	0.04257 0.36938 0.39916 0.69700
P 	P 	0.09210 0.32687 0.09304 0.62700
P 	P 	0.68608 0.69280 0.24489 0.63600
P 	P 	0.23305 0.57554 0.23019 0.66400
P 	P 	0.03712 0.86590 0.39481 0.71000
P 	P 	0.85680 0.12092 0.93723 0.62200
O 	O 	0.64620 0.38250 0.31660 -0.41400
O 	O 	0.74420 0.17990 0.35530 -0.54600
O 	O 	0.52340 0.24730 0.25890 -0.57800
O 	O 	0.78670 0.25140 0.19900 -0.66700
O 	O 	0.05140 0.10650 0.25380 -0.78900
O 	O 	0.31730 0.96410 0.24520 -0.52700
O 	O 	0.18940 0.07640 0.38760 -0.49800
O 	O 	0.30160 0.15740 0.24990 -0.53500
O 	O 	0.93950 0.47820 0.36020 -0.64700
O 	O 	0.95460 0.61660 0.50010 -0.63500
O 	O 	0.96900 0.28390 0.37200 -0.66800
O 	O 	0.20900 0.34510 0.35890 -0.61800
O 	O 	0.97510 0.40870 0.15280 -0.52900
O 	O 	0.25550 0.31090 0.12290 -0.55300
O 	O 	0.06500 0.21540 0.08810 -0.59100
O 	O 	0.09280 0.36970 0.99450 -0.42200
O 	O 	0.69360 0.58200 0.20490 -0.44400
O 	O 	0.21320 0.25340 0.81450 -0.50000
O 	O 	0.74700 0.67720 0.33970 -0.62200
O 	O 	0.52540 0.77230 0.25580 -0.57200
O 	O 	0.33100 0.45680 0.22720 -0.52500
O 	O 	0.86200 0.40270 0.85330 -0.50900
O 	O 	0.13530 0.59740 0.31950 -0.65700
O 	O 	0.33860 0.64860 0.22770 -0.50400
O 	O 	0.92990 0.79480 0.38850 -0.59100
O 	O 	0.16980 0.82870 0.32420 -0.67400
O 	O 	0.89380 0.14570 0.51410 -0.61500
O 	O 	0.93770 0.98330 0.37910 -0.55000
O 	O 	0.98980 0.16410 0.90000 -0.52300
O 	O 	0.29050 0.82130 0.11130 -0.58700
O 	O 	0.81650 0.14840 0.03710 -0.57100
O 	O 	0.09880 0.00180 0.08120 -0.55700
Ga	Ga	0.04297 0.86671 0.61016 2.07500
Ga	Ga	0.05719 0.87204 0.86010 2.06400
Ga	Ga	0.68541 0.69277 0.75489 2.07900
Ga	Ga	0.05643 0.35525 0.61994 2.08400
Ga	Ga	0.67996 0.19009 0.76576 2.08600
Mn	Mn	0.18031 0.56468 0.74321 1.30800
Mn	Mn	0.96316 0.70062 0.10687 1.34100
P 	P 	0.32689 0.73553 0.71729 0.60300
P 	P 	0.77977 0.92536 0.71688 0.62100
P 	P 	0.95743 0.63062 0.60084 0.69700
P 	P 	0.90790 0.67313 0.90696 0.62700
P 	P 	0.31392 0.30720 0.75511 0.63600
P 	P 	0.76695 0.42446 0.76981 0.66400
P 	P 	0.96288 0.13410 0.60519 0.71000
P 	P 	0.14320 0.87908 0.06277 0.62200
O 	O 	0.35380 0.61750 0.68340 -0.41400
O 	O 	0.25580 0.82010 0.64470 -0.54600
O 	O 	0.47660 0.75270 0.74110 -0.57800
O 	O 	0.21330 0.74860 0.80100 -0.66700
O 	O 	0.94860 0.89350 0.74620 -0.78900
O 	O 	0.68270 0.03590 0.75480 -0.52700
O 	O 	0.81060 0.92360 0.61240 -0.49800
O 	O 	0.69840 0.84260 0.75010 -0.53500
O 	O 	0.06050 0.52180 0.63980 -0.64700
O 	O 	0.04540 0.38340 0.49990 -0.63500
O 	O 	0.03100 0.71610 0.62800 -0.66800
O 	O 	0.79100 0.65490 0.64110 -0.61800
O 	O 	0.02490 0.59130 0.84720 -0.52900
O 	O 	0.74450 0.68910 0.87710 -0.55300
O 	O 	0.93500 0.78460 0.91190 -0.59100
O 	O 	0.90720 0.63030 0.00550 -0.42200
O 	O 	0.30640 0.41800 0.79510 -0.44400
O 	O 	0.78680 0.74660 0.18550 -0.50000
O 	O 	0.25300 0.32280 0.66030 -0.62200
O 	O 	0.47460 0.22770 0.74420 -0.57200
O 	O 	0.66900 0.54320 0.77280 -0.52500
O 	O 	0.13800 0.59730 0.14670 -0.50900
O 	O 	0.86470 0.40260 0.68050 -0.65700
O 	O 	0.66140 0.35140 0.77230 -0.50400
O 	O 	0.07010 0.20520 0.61150 -0.59100
O 	O 	0.83020 0.17130 0.67580 -0.67400
O 	O 	0.10620 0.85430 0.48590 -0.61500
O 	O 	0.06230 0.01670 0.62090 -0.55000
O 	O 	0.01020 0.83590 0.10000 -0.52300
O 	O 	0.70950 0.17870 0.88870 -0.58700
O 	O 	0.18350 0.85160 0.96290 -0.57100
O 	O 	0.90120 0.99820 0.91880 -0.55700
