data_crystal

_cell_length_a 13.08820
_cell_length_b 26.66650
_cell_length_c 13.13360
_cell_angle_alpha 90.00000
_cell_angle_beta  116.07200
_cell_angle_gamma 90.00000

_symmetry_space_group_name_	'P 1'
_symmetry_space_group_name_H-M	'P 1'

loop_
_symmetry_equiv_pos_as_xyz
  x,y,z

loop_
_atom_site_label
_atom_site_type_symbol
_atom_site_fract_x
_atom_site_fract_y
_atom_site_fract_z
_atom_site_charge
Gd	Gd	0.82070 0.00486 0.91889 1.66100
O 	O 	0.87710 0.06750 0.06370 -0.45700
O 	O 	0.68890 0.05324 0.78200 -0.50500
O 	O 	0.94340 0.95296 0.88360 -0.48700
O 	O 	0.89080 0.95188 0.07400 -0.47700
O 	O 	0.92610 0.06527 0.87030 -0.45500
O 	O 	0.69530 0.93736 0.83210 -0.48400
C 	C 	0.97980 0.07690 0.11280 0.46100
C 	C 	0.62180 0.08120 0.70380 0.50900
C 	C 	0.01410 0.12800 0.16630 -0.20200
C 	C 	0.60280 0.13300 0.73660 -0.21700
O 	O 	0.56990 0.06845 0.60340 -0.49100
C 	C 	0.11720 0.14840 0.18000 0.10000
C 	C 	0.94090 0.15550 0.19480 0.14500
C 	C 	0.51850 0.16380 0.65590 0.14800
C 	C 	0.66810 0.15090 0.84720 0.09500
Gd	Gd	0.45081 0.00676 0.50369 0.84600
H 	H 	0.16700 0.12950 0.16240 0.00200
C 	C 	0.14550 0.19720 0.22030 -0.17300
H 	H 	0.87200 0.14190 0.18550 -0.02200
C 	C 	0.97100 0.20330 0.23710 -0.24700
H 	H 	0.47440 0.15210 0.58290 -0.01200
C 	C 	0.50240 0.21130 0.68630 -0.25300
H 	H 	0.72270 0.13020 0.90040 -0.00600
C 	C 	0.65210 0.19890 0.87780 -0.16600
O 	O 	0.31250 0.07510 0.50870 -0.20500
O 	O 	0.38450 0.03280 0.64900 -0.20800
O 	O 	0.57830 0.95390 0.65490 -0.49700
H 	H 	0.21400 0.21110 0.22890 0.07000
C 	C 	0.07310 0.22450 0.24700 0.07800
C 	C 	0.90710 0.24000 0.27850 0.58200
C 	C 	0.56690 0.22920 0.79620 0.05700
C 	C 	0.41930 0.25120 0.61330 0.60800
H 	H 	0.69660 0.21090 0.95050 0.05200
N 	N 	0.30850 0.06600 0.59700 0.08100
C 	C 	0.07760 0.27660 0.28420 0.06100
C 	C 	0.90400 0.22190 0.38750 -1.03700
C 	C 	0.78790 0.25040 0.18560 -1.14900
C 	C 	0.98200 0.28660 0.30240 -0.23900
C 	C 	0.53490 0.28110 0.80280 0.09200
C 	C 	0.29520 0.23240 0.57260 -1.16100
C 	C 	0.43930 0.26640 0.51340 -1.09700
C 	C 	0.44660 0.29390 0.69890 -0.26900
O 	O 	0.27020 0.08850 0.63900 -0.15300
C 	C 	0.15600 0.31500 0.30040 -0.16400
H 	H 	0.87340 0.24700 0.41810 0.33500
H 	H 	0.98300 0.21500 0.44000 0.32300
H 	H 	0.85870 0.19200 0.37390 0.33000
H 	H 	0.75370 0.27640 0.21030 0.37200
H 	H 	0.74370 0.22040 0.17420 0.35700
H 	H 	0.78800 0.26000 0.11610 0.36900
C 	C 	0.96330 0.33440 0.33240 0.13600
C 	C 	0.57390 0.31440 0.89080 -0.20600
H 	H 	0.28380 0.22120 0.63550 0.38200
H 	H 	0.28060 0.20550 0.52050 0.38600
H 	H 	0.24290 0.25940 0.53560 0.36700
H 	H 	0.39230 0.29480 0.47640 0.35200
H 	H 	0.41930 0.23910 0.46130 0.35800
H 	H 	0.51960 0.27470 0.53940 0.33400
C 	C 	0.39780 0.34090 0.68390 0.16400
H 	H 	0.21920 0.30900 0.28730 0.06300
C 	C 	0.13980 0.36130 0.33540 0.09600
H 	H 	0.89760 0.34130 0.34050 -0.01900
C 	C 	0.04250 0.37200 0.35020 -0.20300
H 	H 	0.63160 0.30500 0.96060 0.07200
C 	C 	0.52850 0.36120 0.87640 0.13300
H 	H 	0.33880 0.34990 0.61450 -0.03000
C 	C 	0.43750 0.37450 0.77320 -0.23700
H 	H 	0.19430 0.38610 0.34970 0.00700
C 	C 	0.02530 0.42340 0.38470 0.46500
H 	H 	0.55790 0.38440 0.93510 -0.02000
C 	C 	0.38100 0.42540 0.75940 0.50400
Gd	Gd	0.17930 0.50486 0.58111 1.66500
O 	O 	0.12290 0.56750 0.43630 -0.46000
O 	O 	0.31110 0.55324 0.71800 -0.50600
O 	O 	0.05660 0.45296 0.61640 -0.49100
O 	O 	0.10920 0.45188 0.42600 -0.47700
O 	O 	0.07390 0.56527 0.62970 -0.45300
O 	O 	0.30470 0.43736 0.66790 -0.48600
C 	C 	0.02020 0.57690 0.38720 0.46200
C 	C 	0.37820 0.58120 0.79620 0.50800
C 	C 	0.98590 0.62800 0.33370 -0.20400
C 	C 	0.39720 0.63300 0.76340 -0.21500
O 	O 	0.43010 0.56845 0.89660 -0.49100
C 	C 	0.88280 0.64840 0.32000 0.10100
C 	C 	0.05910 0.65550 0.30520 0.14600
C 	C 	0.48150 0.66380 0.84410 0.14500
C 	C 	0.33190 0.65090 0.65280 0.09400
Gd	Gd	0.54919 0.50676 0.99631 0.84600
H 	H 	0.83300 0.62950 0.33760 0.00100
C 	C 	0.85450 0.69720 0.27970 -0.17400
H 	H 	0.12800 0.64190 0.31450 -0.02300
C 	C 	0.02900 0.70330 0.26290 -0.24800
H 	H 	0.52560 0.65210 0.91710 -0.01000
C 	C 	0.49760 0.71130 0.81370 -0.24900
H 	H 	0.27730 0.63020 0.59960 -0.00500
C 	C 	0.34790 0.69890 0.62220 -0.16600
O 	O 	0.68750 0.57510 0.99130 -0.20400
O 	O 	0.61550 0.53280 0.85100 -0.20800
O 	O 	0.42170 0.45390 0.84510 -0.49700
H 	H 	0.78600 0.71110 0.27110 0.07000
C 	C 	0.92690 0.72450 0.25300 0.07900
C 	C 	0.09290 0.74000 0.22150 0.58000
C 	C 	0.43310 0.72920 0.70380 0.05600
C 	C 	0.58070 0.75120 0.88670 0.59900
H 	H 	0.30340 0.71090 0.54950 0.05300
N 	N 	0.69150 0.56600 0.90300 0.08100
C 	C 	0.92240 0.77660 0.21580 0.06100
C 	C 	0.09600 0.72190 0.11250 -1.03500
C 	C 	0.21210 0.75040 0.31440 -1.14600
C 	C 	0.01800 0.78660 0.19760 -0.23900
C 	C 	0.46510 0.78110 0.69720 0.09100
C 	C 	0.70480 0.73240 0.92740 -1.15200
C 	C 	0.56070 0.76640 0.98660 -1.07200
C 	C 	0.55340 0.79390 0.80110 -0.26500
O 	O 	0.72980 0.58850 0.86100 -0.15300
C 	C 	0.84400 0.81500 0.19960 -0.16400
H 	H 	0.12660 0.74700 0.08190 0.33400
H 	H 	0.01700 0.71500 0.06000 0.32200
H 	H 	0.14130 0.69200 0.12610 0.32900
H 	H 	0.24630 0.77640 0.28970 0.37100
H 	H 	0.25630 0.72040 0.32580 0.35500
H 	H 	0.21200 0.76000 0.38390 0.36700
C 	C 	0.03670 0.83440 0.16760 0.13400
C 	C 	0.42610 0.81440 0.60920 -0.20500
H 	H 	0.71620 0.72120 0.86450 0.38000
H 	H 	0.71940 0.70550 0.97950 0.38400
H 	H 	0.75710 0.75940 0.96440 0.36500
H 	H 	0.60770 0.79480 0.02360 0.34300
H 	H 	0.58070 0.73910 0.03870 0.34900
H 	H 	0.48040 0.77470 0.96060 0.32800
C 	C 	0.60220 0.84090 0.81610 0.16100
H 	H 	0.78080 0.80900 0.21270 0.06300
C 	C 	0.86020 0.86130 0.16460 0.09500
H 	H 	0.10240 0.84130 0.15950 -0.01900
C 	C 	0.95750 0.87200 0.14980 -0.20200
H 	H 	0.36840 0.80500 0.53940 0.07200
C 	C 	0.47150 0.86120 0.62360 0.13100
H 	H 	0.66120 0.84990 0.88550 -0.02800
C 	C 	0.56250 0.87450 0.72680 -0.23500
H 	H 	0.80570 0.88610 0.15030 0.00700
C 	C 	0.97470 0.92340 0.11530 0.46600
H 	H 	0.44210 0.88440 0.56490 -0.01900
C 	C 	0.61900 0.92540 0.74060 0.50400
Gd	Gd	0.17930 0.99514 0.08111 1.66000
O 	O 	0.12290 0.93250 0.93630 -0.45800
O 	O 	0.31110 0.94676 0.21800 -0.50600
O 	O 	0.05660 0.04704 0.11640 -0.48800
O 	O 	0.10920 0.04812 0.92600 -0.47700
O 	O 	0.07390 0.93473 0.12970 -0.45500
O 	O 	0.30470 0.06264 0.16790 -0.48400
C 	C 	0.02020 0.92310 0.88720 0.46100
C 	C 	0.37820 0.91880 0.29620 0.50900
C 	C 	0.98590 0.87200 0.83370 -0.20200
C 	C 	0.39720 0.86700 0.26340 -0.21700
O 	O 	0.43010 0.93155 0.39660 -0.49100
C 	C 	0.88280 0.85160 0.82000 0.10000
C 	C 	0.05910 0.84450 0.80520 0.14500
C 	C 	0.48150 0.83620 0.34410 0.14800
C 	C 	0.33190 0.84910 0.15280 0.09500
Gd	Gd	0.54919 0.99324 0.49631 0.84600
H 	H 	0.83300 0.87050 0.83760 0.00200
C 	C 	0.85450 0.80280 0.77970 -0.17300
H 	H 	0.12800 0.85810 0.81450 -0.02200
C 	C 	0.02900 0.79670 0.76290 -0.24700
H 	H 	0.52560 0.84790 0.41710 -0.01200
C 	C 	0.49760 0.78870 0.31370 -0.25300
H 	H 	0.27730 0.86980 0.09960 -0.00600
C 	C 	0.34790 0.80110 0.12220 -0.16600
O 	O 	0.68750 0.92490 0.49130 -0.20500
O 	O 	0.61550 0.96720 0.35100 -0.20800
O 	O 	0.42170 0.04610 0.34510 -0.49700
H 	H 	0.78600 0.78890 0.77110 0.07000
C 	C 	0.92690 0.77550 0.75300 0.07800
C 	C 	0.09290 0.76000 0.72150 0.58200
C 	C 	0.43310 0.77080 0.20380 0.05700
C 	C 	0.58070 0.74880 0.38670 0.60800
H 	H 	0.30340 0.78910 0.04950 0.05200
N 	N 	0.69150 0.93400 0.40300 0.08100
C 	C 	0.92240 0.72340 0.71580 0.06100
C 	C 	0.09600 0.77810 0.61250 -1.03700
C 	C 	0.21210 0.74960 0.81440 -1.14900
C 	C 	0.01800 0.71340 0.69760 -0.23900
C 	C 	0.46510 0.71890 0.19720 0.09200
C 	C 	0.70480 0.76760 0.42740 -1.16100
C 	C 	0.56070 0.73360 0.48660 -1.09700
C 	C 	0.55340 0.70610 0.30110 -0.26900
O 	O 	0.72980 0.91150 0.36100 -0.15300
C 	C 	0.84400 0.68500 0.69960 -0.16400
H 	H 	0.12660 0.75300 0.58190 0.33500
H 	H 	0.01700 0.78500 0.56000 0.32300
H 	H 	0.14130 0.80800 0.62610 0.33000
H 	H 	0.24630 0.72360 0.78970 0.37200
H 	H 	0.25630 0.77960 0.82580 0.35700
H 	H 	0.21200 0.74000 0.88390 0.36900
C 	C 	0.03670 0.66560 0.66760 0.13600
C 	C 	0.42610 0.68560 0.10920 -0.20600
H 	H 	0.71620 0.77880 0.36450 0.38200
H 	H 	0.71940 0.79450 0.47950 0.38600
H 	H 	0.75710 0.74060 0.46440 0.36700
H 	H 	0.60770 0.70520 0.52360 0.35200
H 	H 	0.58070 0.76090 0.53870 0.35800
H 	H 	0.48040 0.72530 0.46060 0.33400
C 	C 	0.60220 0.65910 0.31610 0.16400
H 	H 	0.78080 0.69100 0.71270 0.06300
C 	C 	0.86020 0.63870 0.66460 0.09600
H 	H 	0.10240 0.65870 0.65950 -0.01900
C 	C 	0.95750 0.62800 0.64980 -0.20300
H 	H 	0.36840 0.69500 0.03940 0.07200
C 	C 	0.47150 0.63880 0.12360 0.13300
H 	H 	0.66120 0.65010 0.38550 -0.03000
C 	C 	0.56250 0.62550 0.22680 -0.23700
H 	H 	0.80570 0.61390 0.65030 0.00700
C 	C 	0.97470 0.57660 0.61530 0.46500
H 	H 	0.44210 0.61560 0.06490 -0.02000
C 	C 	0.61900 0.57460 0.24060 0.50400
Gd	Gd	0.82070 0.49514 0.41889 1.66500
O 	O 	0.87710 0.43250 0.56370 -0.46000
O 	O 	0.68890 0.44676 0.28200 -0.50600
O 	O 	0.94340 0.54704 0.38360 -0.49100
O 	O 	0.89080 0.54812 0.57400 -0.47700
O 	O 	0.92610 0.43473 0.37030 -0.45300
O 	O 	0.69530 0.56264 0.33210 -0.48600
C 	C 	0.97980 0.42310 0.61280 0.46200
C 	C 	0.62180 0.41880 0.20380 0.50800
C 	C 	0.01410 0.37200 0.66630 -0.20400
C 	C 	0.60280 0.36700 0.23660 -0.21500
O 	O 	0.56990 0.43155 0.10340 -0.49100
C 	C 	0.11720 0.35160 0.68000 0.10100
C 	C 	0.94090 0.34450 0.69480 0.14600
C 	C 	0.51850 0.33620 0.15590 0.14500
C 	C 	0.66810 0.34910 0.34720 0.09400
Gd	Gd	0.45081 0.49324 0.00369 0.84600
H 	H 	0.16700 0.37050 0.66240 0.00100
C 	C 	0.14550 0.30280 0.72030 -0.17400
H 	H 	0.87200 0.35810 0.68550 -0.02300
C 	C 	0.97100 0.29670 0.73710 -0.24800
H 	H 	0.47440 0.34790 0.08290 -0.01000
C 	C 	0.50240 0.28870 0.18630 -0.24900
H 	H 	0.72270 0.36980 0.40040 -0.00500
C 	C 	0.65210 0.30110 0.37780 -0.16600
O 	O 	0.31250 0.42490 0.00870 -0.20400
O 	O 	0.38450 0.46720 0.14900 -0.20800
O 	O 	0.57830 0.54610 0.15490 -0.49700
H 	H 	0.21400 0.28890 0.72890 0.07000
C 	C 	0.07310 0.27550 0.74700 0.07900
C 	C 	0.90710 0.26000 0.77850 0.58000
C 	C 	0.56690 0.27080 0.29620 0.05600
C 	C 	0.41930 0.24880 0.11330 0.59900
H 	H 	0.69660 0.28910 0.45050 0.05300
N 	N 	0.30850 0.43400 0.09700 0.08100
C 	C 	0.07760 0.22340 0.78420 0.06100
C 	C 	0.90400 0.27810 0.88750 -1.03500
C 	C 	0.78790 0.24960 0.68560 -1.14600
C 	C 	0.98200 0.21340 0.80240 -0.23900
C 	C 	0.53490 0.21890 0.30280 0.09100
C 	C 	0.29520 0.26760 0.07260 -1.15200
C 	C 	0.43930 0.23360 0.01340 -1.07200
C 	C 	0.44660 0.20610 0.19890 -0.26500
O 	O 	0.27020 0.41150 0.13900 -0.15300
C 	C 	0.15600 0.18500 0.80040 -0.16400
H 	H 	0.87340 0.25300 0.91810 0.33400
H 	H 	0.98300 0.28500 0.94000 0.32200
H 	H 	0.85870 0.30800 0.87390 0.32900
H 	H 	0.75370 0.22360 0.71030 0.37100
H 	H 	0.74370 0.27960 0.67420 0.35500
H 	H 	0.78800 0.24000 0.61610 0.36700
C 	C 	0.96330 0.16560 0.83240 0.13400
C 	C 	0.57390 0.18560 0.39080 -0.20500
H 	H 	0.28380 0.27880 0.13550 0.38000
H 	H 	0.28060 0.29450 0.02050 0.38400
H 	H 	0.24290 0.24060 0.03560 0.36500
H 	H 	0.39230 0.20520 0.97640 0.34300
H 	H 	0.41930 0.26090 0.96130 0.34900
H 	H 	0.51960 0.22530 0.03940 0.32800
C 	C 	0.39780 0.15910 0.18390 0.16100
H 	H 	0.21920 0.19100 0.78730 0.06300
C 	C 	0.13980 0.13870 0.83540 0.09500
H 	H 	0.89760 0.15870 0.84050 -0.01900
C 	C 	0.04250 0.12800 0.85020 -0.20200
H 	H 	0.63160 0.19500 0.46060 0.07200
C 	C 	0.52850 0.13880 0.37640 0.13100
H 	H 	0.33880 0.15010 0.11450 -0.02800
C 	C 	0.43750 0.12550 0.27320 -0.23500
H 	H 	0.19430 0.11390 0.84970 0.00700
C 	C 	0.02530 0.07660 0.88470 0.46600
H 	H 	0.55790 0.11560 0.43510 -0.01900
C 	C 	0.38100 0.07460 0.25940 0.50400
