data_crystal

_cell_length_a 12.91900
_cell_length_b 26.84330
_cell_length_c 13.29240
_cell_angle_alpha 90.00000
_cell_angle_beta  116.75900
_cell_angle_gamma 90.00000

_symmetry_space_group_name_	'P 1'
_symmetry_space_group_name_H-M	'P 1'

loop_
_symmetry_equiv_pos_as_xyz
  x,y,z

loop_
_atom_site_label
_atom_site_type_symbol
_atom_site_fract_x
_atom_site_fract_y
_atom_site_fract_z
_atom_site_charge
Sm	Sm	0.82163 0.00178 0.92328 2.09200
O 	O 	0.03440 0.04329 0.10670 -0.57200
O 	O 	0.85430 0.06162 0.07060 -0.50200
O 	O 	0.67010 0.04849 0.79430 -0.58600
O 	O 	0.90130 0.94450 0.07150 -0.55100
O 	O 	0.91060 0.07127 0.87300 -0.52000
O 	O 	0.70640 0.93290 0.82000 -0.57700
C 	C 	0.96010 0.07260 0.11410 0.45400
C 	C 	0.61290 0.07800 0.71570 0.54300
C 	C 	0.99600 0.12270 0.16670 -0.20600
C 	C 	0.59400 0.13020 0.74640 -0.23800
O 	O 	0.56650 0.06671 0.61240 -0.55500
C 	C 	0.09900 0.14430 0.17670 0.09900
C 	C 	0.92580 0.14920 0.20130 0.13600
C 	C 	0.51150 0.16070 0.66540 0.16100
C 	C 	0.66040 0.14730 0.85570 0.11900
Sm	Sm	0.44491 0.00642 0.49725 1.06500
H 	H 	0.14770 0.12620 0.15610 -0.00300
C 	C 	0.12920 0.19270 0.21690 -0.16700
H 	H 	0.85780 0.13500 0.19580 -0.02000
C 	C 	0.95720 0.19710 0.24430 -0.23500
H 	H 	0.46790 0.14910 0.59230 -0.01800
C 	C 	0.49490 0.20830 0.69430 -0.25100
H 	H 	0.71550 0.12660 0.90910 -0.01700
C 	C 	0.64460 0.19530 0.88520 -0.18100
O 	O 	0.30200 0.07430 0.50420 -0.23500
O 	O 	0.36630 0.02810 0.63450 -0.24300
O 	O 	0.57520 0.95090 0.64930 -0.59300
H 	H 	0.19710 0.20700 0.22230 0.06900
C 	C 	0.05670 0.21930 0.24890 0.07000
C 	C 	0.89390 0.23300 0.28740 0.55800
C 	C 	0.56230 0.22560 0.80350 0.06400
C 	C 	0.40890 0.24860 0.62110 0.59100
H 	H 	0.68830 0.20700 0.95810 0.06000
N 	N 	0.29840 0.06380 0.58600 0.08200
C 	C 	0.06260 0.27060 0.28700 0.06400
C 	C 	0.89880 0.21440 0.39860 -1.04800
C 	C 	0.76960 0.24200 0.19820 -1.06000
C 	C 	0.96750 0.27990 0.30760 -0.23900
C 	C 	0.52910 0.27770 0.81070 0.09100
C 	C 	0.28320 0.23060 0.57860 -1.09600
C 	C 	0.42950 0.26340 0.52120 -1.09500
C 	C 	0.43850 0.29100 0.70570 -0.27800
O 	O 	0.25620 0.08680 0.63690 -0.15200
C 	C 	0.14270 0.30890 0.30170 -0.17200
H 	H 	0.86820 0.23950 0.42920 0.33400
H 	H 	0.97770 0.20740 0.45110 0.33700
H 	H 	0.85350 0.18450 0.38500 0.33300
H 	H 	0.73550 0.26810 0.22290 0.34300
H 	H 	0.72550 0.21200 0.18680 0.33200
H 	H 	0.76980 0.25170 0.12870 0.33100
C 	C 	0.94960 0.32740 0.33840 0.14200
C 	C 	0.57210 0.31080 0.89960 -0.21600
H 	H 	0.27170 0.21940 0.64150 0.35300
H 	H 	0.26850 0.20360 0.52660 0.36000
H 	H 	0.23090 0.25750 0.54160 0.35300
H 	H 	0.38240 0.29180 0.48430 0.35000
H 	H 	0.40950 0.23610 0.46910 0.35300
H 	H 	0.50980 0.27170 0.54720 0.34300
C 	C 	0.38980 0.33760 0.69180 0.18900
H 	H 	0.20640 0.30330 0.28820 0.06400
C 	C 	0.12430 0.35520 0.33660 0.10400
H 	H 	0.88440 0.33380 0.34890 -0.02400
C 	C 	0.02780 0.36510 0.35340 -0.22100
H 	H 	0.63310 0.30190 0.96840 0.07400
C 	C 	0.52230 0.35770 0.88380 0.15300
H 	H 	0.32970 0.34680 0.62270 -0.04300
C 	C 	0.43070 0.37070 0.78090 -0.28100
H 	H 	0.17810 0.38050 0.34910 -0.00300
C 	C 	0.01100 0.41650 0.38780 0.49100
H 	H 	0.55030 0.38070 0.94250 -0.03600
C 	C 	0.37540 0.42140 0.76790 0.57700
Sm	Sm	0.17837 0.50178 0.57672 2.10000
O 	O 	0.96560 0.54329 0.39330 -0.57400
O 	O 	0.14570 0.56162 0.42940 -0.50500
O 	O 	0.32990 0.54849 0.70570 -0.58600
O 	O 	0.09870 0.44450 0.42850 -0.55100
O 	O 	0.08940 0.57127 0.62700 -0.51800
O 	O 	0.29360 0.43290 0.68000 -0.58000
C 	C 	0.03990 0.57260 0.38590 0.45500
C 	C 	0.38710 0.57800 0.78430 0.54300
C 	C 	0.00400 0.62270 0.33330 -0.20900
C 	C 	0.40600 0.63020 0.75360 -0.23700
O 	O 	0.43350 0.56671 0.88760 -0.55400
C 	C 	0.90100 0.64430 0.32330 0.10000
C 	C 	0.07420 0.64920 0.29870 0.13700
C 	C 	0.48850 0.66070 0.83460 0.15800
C 	C 	0.33960 0.64730 0.64430 0.11800
Sm	Sm	0.55509 0.50642 0.00275 1.06500
H 	H 	0.85230 0.62620 0.34390 -0.00400
C 	C 	0.87080 0.69270 0.28310 -0.16800
H 	H 	0.14220 0.63500 0.30420 -0.02100
C 	C 	0.04280 0.69710 0.25570 -0.23600
H 	H 	0.53210 0.64910 0.90770 -0.01600
C 	C 	0.50510 0.70830 0.80570 -0.24700
H 	H 	0.28450 0.62660 0.59090 -0.01600
C 	C 	0.35540 0.69530 0.61480 -0.18000
O 	O 	0.69800 0.57430 0.99580 -0.23500
O 	O 	0.63370 0.52810 0.86550 -0.24400
O 	O 	0.42480 0.45090 0.85070 -0.59400
H 	H 	0.80290 0.70700 0.27770 0.07000
C 	C 	0.94330 0.71930 0.25110 0.07100
C 	C 	0.10610 0.73300 0.21260 0.55600
C 	C 	0.43770 0.72560 0.69650 0.06300
C 	C 	0.59110 0.74860 0.87890 0.58100
H 	H 	0.31170 0.70700 0.54190 0.06000
N 	N 	0.70160 0.56380 0.91400 0.08200
C 	C 	0.93740 0.77060 0.21300 0.06400
C 	C 	0.10120 0.71440 0.10140 -1.04500
C 	C 	0.23040 0.74200 0.30180 -1.05600
C 	C 	0.03250 0.77990 0.19240 -0.23900
C 	C 	0.47090 0.77770 0.68930 0.09000
C 	C 	0.71680 0.73060 0.92140 -1.08700
C 	C 	0.57050 0.76340 0.97880 -1.06600
C 	C 	0.56150 0.79100 0.79430 -0.27300
O 	O 	0.74380 0.58680 0.86310 -0.15200
C 	C 	0.85730 0.80890 0.19830 -0.17100
H 	H 	0.13180 0.73950 0.07080 0.33300
H 	H 	0.02230 0.70740 0.04890 0.33500
H 	H 	0.14650 0.68450 0.11500 0.33200
H 	H 	0.26450 0.76810 0.27710 0.34100
H 	H 	0.27450 0.71200 0.31320 0.33100
H 	H 	0.23020 0.75170 0.37130 0.32900
C 	C 	0.05040 0.82740 0.16160 0.13900
C 	C 	0.42790 0.81080 0.60040 -0.21500
H 	H 	0.72830 0.71940 0.85850 0.35000
H 	H 	0.73150 0.70360 0.97340 0.35900
H 	H 	0.76910 0.75750 0.95840 0.35100
H 	H 	0.61760 0.79180 0.01570 0.34000
H 	H 	0.59050 0.73610 0.03090 0.34300
H 	H 	0.49020 0.77170 0.95280 0.33500
C 	C 	0.61020 0.83760 0.80820 0.18600
H 	H 	0.79360 0.80330 0.21180 0.06400
C 	C 	0.87570 0.85520 0.16340 0.10300
H 	H 	0.11560 0.83380 0.15110 -0.02300
C 	C 	0.97220 0.86510 0.14660 -0.22000
H 	H 	0.36690 0.80190 0.53160 0.07400
C 	C 	0.47770 0.85770 0.61620 0.15200
H 	H 	0.67030 0.84680 0.87730 -0.04100
C 	C 	0.56930 0.87070 0.71910 -0.27900
H 	H 	0.82190 0.88050 0.15090 -0.00200
C 	C 	0.98900 0.91650 0.11220 0.49200
H 	H 	0.44970 0.88070 0.55750 -0.03500
C 	C 	0.62460 0.92140 0.73210 0.57600
Sm	Sm	0.17837 0.99822 0.07672 2.09300
O 	O 	0.96560 0.95671 0.89330 -0.57100
O 	O 	0.14570 0.93838 0.92940 -0.50200
O 	O 	0.32990 0.95151 0.20570 -0.58600
O 	O 	0.09870 0.05550 0.92850 -0.55100
O 	O 	0.08940 0.92873 0.12700 -0.52000
O 	O 	0.29360 0.06710 0.18000 -0.57700
C 	C 	0.03990 0.92740 0.88590 0.45400
C 	C 	0.38710 0.92200 0.28430 0.54300
C 	C 	0.00400 0.87730 0.83330 -0.20600
C 	C 	0.40600 0.86980 0.25360 -0.23800
O 	O 	0.43350 0.93329 0.38760 -0.55500
C 	C 	0.90100 0.85570 0.82330 0.09900
C 	C 	0.07420 0.85080 0.79870 0.13600
C 	C 	0.48850 0.83930 0.33460 0.16100
C 	C 	0.33960 0.85270 0.14430 0.11900
Sm	Sm	0.55509 0.99358 0.50275 1.06500
H 	H 	0.85230 0.87380 0.84390 -0.00300
C 	C 	0.87080 0.80730 0.78310 -0.16700
H 	H 	0.14220 0.86500 0.80420 -0.02000
C 	C 	0.04280 0.80290 0.75570 -0.23500
H 	H 	0.53210 0.85090 0.40770 -0.01800
C 	C 	0.50510 0.79170 0.30570 -0.25100
H 	H 	0.28450 0.87340 0.09090 -0.01700
C 	C 	0.35540 0.80470 0.11480 -0.18100
O 	O 	0.69800 0.92570 0.49580 -0.23500
O 	O 	0.63370 0.97190 0.36550 -0.24300
O 	O 	0.42480 0.04910 0.35070 -0.59300
H 	H 	0.80290 0.79300 0.77770 0.06900
C 	C 	0.94330 0.78070 0.75110 0.07000
C 	C 	0.10610 0.76700 0.71260 0.55800
C 	C 	0.43770 0.77440 0.19650 0.06400
C 	C 	0.59110 0.75140 0.37890 0.59100
H 	H 	0.31170 0.79300 0.04190 0.06000
N 	N 	0.70160 0.93620 0.41400 0.08200
C 	C 	0.93740 0.72940 0.71300 0.06400
C 	C 	0.10120 0.78560 0.60140 -1.04800
C 	C 	0.23040 0.75800 0.80180 -1.06000
C 	C 	0.03250 0.72010 0.69240 -0.23900
C 	C 	0.47090 0.72230 0.18930 0.09100
C 	C 	0.71680 0.76940 0.42140 -1.09600
C 	C 	0.57050 0.73660 0.47880 -1.09500
C 	C 	0.56150 0.70900 0.29430 -0.27800
O 	O 	0.74380 0.91320 0.36310 -0.15200
C 	C 	0.85730 0.69110 0.69830 -0.17200
H 	H 	0.13180 0.76050 0.57080 0.33400
H 	H 	0.02230 0.79260 0.54890 0.33700
H 	H 	0.14650 0.81550 0.61500 0.33300
H 	H 	0.26450 0.73190 0.77710 0.34300
H 	H 	0.27450 0.78800 0.81320 0.33200
H 	H 	0.23020 0.74830 0.87130 0.33100
C 	C 	0.05040 0.67260 0.66160 0.14200
C 	C 	0.42790 0.68920 0.10040 -0.21600
H 	H 	0.72830 0.78060 0.35850 0.35300
H 	H 	0.73150 0.79640 0.47340 0.36000
H 	H 	0.76910 0.74250 0.45840 0.35300
H 	H 	0.61760 0.70820 0.51570 0.35000
H 	H 	0.59050 0.76390 0.53090 0.35300
H 	H 	0.49020 0.72830 0.45280 0.34300
C 	C 	0.61020 0.66240 0.30820 0.18900
H 	H 	0.79360 0.69670 0.71180 0.06400
C 	C 	0.87570 0.64480 0.66340 0.10400
H 	H 	0.11560 0.66620 0.65110 -0.02400
C 	C 	0.97220 0.63490 0.64660 -0.22100
H 	H 	0.36690 0.69810 0.03160 0.07400
C 	C 	0.47770 0.64230 0.11620 0.15300
H 	H 	0.67030 0.65320 0.37730 -0.04300
C 	C 	0.56930 0.62930 0.21910 -0.28100
H 	H 	0.82190 0.61950 0.65090 -0.00300
C 	C 	0.98900 0.58350 0.61220 0.49100
H 	H 	0.44970 0.61930 0.05750 -0.03600
C 	C 	0.62460 0.57860 0.23210 0.57700
Sm	Sm	0.82163 0.49822 0.42328 2.10000
O 	O 	0.03440 0.45671 0.60670 -0.57400
O 	O 	0.85430 0.43838 0.57060 -0.50500
O 	O 	0.67010 0.45151 0.29430 -0.58600
O 	O 	0.90130 0.55550 0.57150 -0.55100
O 	O 	0.91060 0.42873 0.37300 -0.51800
O 	O 	0.70640 0.56710 0.32000 -0.58000
C 	C 	0.96010 0.42740 0.61410 0.45500
C 	C 	0.61290 0.42200 0.21570 0.54300
C 	C 	0.99600 0.37730 0.66670 -0.20900
C 	C 	0.59400 0.36980 0.24640 -0.23700
O 	O 	0.56650 0.43329 0.11240 -0.55400
C 	C 	0.09900 0.35570 0.67670 0.10000
C 	C 	0.92580 0.35080 0.70130 0.13700
C 	C 	0.51150 0.33930 0.16540 0.15800
C 	C 	0.66040 0.35270 0.35570 0.11800
Sm	Sm	0.44491 0.49358 0.99725 1.06500
H 	H 	0.14770 0.37380 0.65610 -0.00400
C 	C 	0.12920 0.30730 0.71690 -0.16800
H 	H 	0.85780 0.36500 0.69580 -0.02100
C 	C 	0.95720 0.30290 0.74430 -0.23600
H 	H 	0.46790 0.35090 0.09230 -0.01600
C 	C 	0.49490 0.29170 0.19430 -0.24700
H 	H 	0.71550 0.37340 0.40910 -0.01600
C 	C 	0.64460 0.30470 0.38520 -0.18000
O 	O 	0.30200 0.42570 0.00420 -0.23500
O 	O 	0.36630 0.47190 0.13450 -0.24400
O 	O 	0.57520 0.54910 0.14930 -0.59400
H 	H 	0.19710 0.29300 0.72230 0.07000
C 	C 	0.05670 0.28070 0.74890 0.07100
C 	C 	0.89390 0.26700 0.78740 0.55600
C 	C 	0.56230 0.27440 0.30350 0.06300
C 	C 	0.40890 0.25140 0.12110 0.58100
H 	H 	0.68830 0.29300 0.45810 0.06000
N 	N 	0.29840 0.43620 0.08600 0.08200
C 	C 	0.06260 0.22940 0.78700 0.06400
C 	C 	0.89880 0.28560 0.89860 -1.04500
C 	C 	0.76960 0.25800 0.69820 -1.05600
C 	C 	0.96750 0.22010 0.80760 -0.23900
C 	C 	0.52910 0.22230 0.31070 0.09000
C 	C 	0.28320 0.26940 0.07860 -1.08700
C 	C 	0.42950 0.23660 0.02120 -1.06600
C 	C 	0.43850 0.20900 0.20570 -0.27300
O 	O 	0.25620 0.41320 0.13690 -0.15200
C 	C 	0.14270 0.19110 0.80170 -0.17100
H 	H 	0.86820 0.26050 0.92920 0.33300
H 	H 	0.97770 0.29260 0.95110 0.33500
H 	H 	0.85350 0.31550 0.88500 0.33200
H 	H 	0.73550 0.23190 0.72290 0.34100
H 	H 	0.72550 0.28800 0.68680 0.33100
H 	H 	0.76980 0.24830 0.62870 0.32900
C 	C 	0.94960 0.17260 0.83840 0.13900
C 	C 	0.57210 0.18920 0.39960 -0.21500
H 	H 	0.27170 0.28060 0.14150 0.35000
H 	H 	0.26850 0.29640 0.02660 0.35900
H 	H 	0.23090 0.24250 0.04160 0.35100
H 	H 	0.38240 0.20820 0.98430 0.34000
H 	H 	0.40950 0.26390 0.96910 0.34300
H 	H 	0.50980 0.22830 0.04720 0.33500
C 	C 	0.38980 0.16240 0.19180 0.18600
H 	H 	0.20640 0.19670 0.78820 0.06400
C 	C 	0.12430 0.14480 0.83660 0.10300
H 	H 	0.88440 0.16620 0.84890 -0.02300
C 	C 	0.02780 0.13490 0.85340 -0.22000
H 	H 	0.63310 0.19810 0.46840 0.07400
C 	C 	0.52230 0.14230 0.38380 0.15200
H 	H 	0.32970 0.15320 0.12270 -0.04100
C 	C 	0.43070 0.12930 0.28090 -0.27900
H 	H 	0.17810 0.11950 0.84910 -0.00200
C 	C 	0.01100 0.08350 0.88780 0.49200
H 	H 	0.55030 0.11930 0.44250 -0.03500
C 	C 	0.37540 0.07860 0.26790 0.57600
