data_crystal

_cell_length_a 13.07710
_cell_length_b 26.59990
_cell_length_c 13.14580
_cell_angle_alpha 90.00000
_cell_angle_beta  116.36300
_cell_angle_gamma 90.00000

_symmetry_space_group_name_	'P 1'
_symmetry_space_group_name_H-M	'P 1'

loop_
_symmetry_equiv_pos_as_xyz
  x,y,z

loop_
_atom_site_label
_atom_site_type_symbol
_atom_site_fract_x
_atom_site_fract_y
_atom_site_fract_z
_atom_site_charge
Tb	Tb	0.82028 0.00520 0.91942 1.97400
O 	O 	0.88030 0.06680 0.06350 -0.51900
O 	O 	0.68940 0.05260 0.78060 -0.58100
O 	O 	0.06220 0.04620 0.12260 -0.54700
O 	O 	0.11010 0.45240 0.42730 -0.53400
O 	O 	0.92480 0.43510 0.37150 -0.50500
O 	O 	0.30600 0.43820 0.66790 -0.54100
C 	C 	0.98270 0.07650 0.11470 0.49500
C 	C 	0.62150 0.08080 0.70360 0.57300
C 	C 	0.01700 0.12780 0.16840 -0.22000
C 	C 	0.60310 0.13290 0.73630 -0.26500
O 	O 	0.56930 0.06830 0.60340 -0.55300
C 	C 	0.11960 0.14860 0.18140 0.11400
C 	C 	0.94270 0.15500 0.19630 0.15500
C 	C 	0.52100 0.16370 0.65580 0.18700
C 	C 	0.66760 0.15060 0.84710 0.13800
Tb	Tb	0.45240 0.00685 0.50360 0.99000
H 	H 	0.16870 0.12980 0.16260 -0.00700
C 	C 	0.14910 0.19700 0.22230 -0.18000
H 	H 	0.87370 0.14110 0.18680 -0.02700
C 	C 	0.97270 0.20310 0.23860 -0.25300
H 	H 	0.47780 0.15200 0.58220 -0.02600
C 	C 	0.50380 0.21170 0.68560 -0.28700
H 	H 	0.72220 0.12980 0.90070 -0.02900
C 	C 	0.65150 0.19810 0.87780 -0.20200
O 	O 	0.31700 0.07410 0.50000 -0.22600
O 	O 	0.38700 0.03130 0.64700 -0.23300
O 	O 	0.42570 0.45530 0.84620 -0.56000
H 	H 	0.21790 0.21100 0.23150 0.07000
C 	C 	0.07380 0.22460 0.24940 0.07700
C 	C 	0.90820 0.24000 0.27830 0.58400
C 	C 	0.56960 0.22930 0.79610 0.08000
C 	C 	0.41820 0.25130 0.61240 0.66500
H 	H 	0.69430 0.20950 0.95170 0.06300
N 	N 	0.31400 0.06140 0.59200 0.06500
C 	C 	0.07860 0.27720 0.28380 0.06100
C 	C 	0.90710 0.22090 0.38900 -1.04200
C 	C 	0.78690 0.24940 0.18820 -1.16400
C 	C 	0.98240 0.28660 0.30240 -0.24500
C 	C 	0.53590 0.28060 0.80180 0.07800
C 	C 	0.29630 0.23320 0.56970 -1.30100
C 	C 	0.44050 0.26630 0.51150 -1.13900
C 	C 	0.44580 0.29440 0.69810 -0.28500
O 	O 	0.26900 0.08710 0.63700 -0.14600
C 	C 	0.15620 0.31520 0.29990 -0.16500
H 	H 	0.87650 0.24600 0.41960 0.33500
H 	H 	0.98610 0.21400 0.44150 0.32600
H 	H 	0.86180 0.19110 0.37540 0.33400
H 	H 	0.75280 0.27540 0.21290 0.37900
H 	H 	0.74270 0.21930 0.17690 0.36200
H 	H 	0.78700 0.25900 0.11870 0.37300
C 	C 	0.96280 0.33400 0.33410 0.13500
C 	C 	0.57690 0.31520 0.89310 -0.19900
H 	H 	0.28480 0.22200 0.63250 0.42200
H 	H 	0.28160 0.20620 0.51760 0.42800
H 	H 	0.24400 0.26010 0.53260 0.41200
H 	H 	0.39340 0.29470 0.47450 0.36400
H 	H 	0.42040 0.23900 0.45940 0.37200
H 	H 	0.52080 0.27460 0.53750 0.34700
C 	C 	0.39700 0.34120 0.68320 0.18000
H 	H 	0.21980 0.30910 0.28740 0.06100
C 	C 	0.13940 0.36240 0.33470 0.09500
H 	H 	0.89780 0.34050 0.34390 -0.02100
C 	C 	0.04330 0.37180 0.35100 -0.20400
H 	H 	0.63620 0.30630 0.96270 0.06800
C 	C 	0.52860 0.36160 0.87790 0.13700
H 	H 	0.33720 0.35020 0.61400 -0.03800
C 	C 	0.43840 0.37520 0.77340 -0.25500
H 	H 	0.19250 0.38780 0.34700 0.00400
C 	C 	0.02450 0.42370 0.38610 0.48100
H 	H 	0.55570 0.38460 0.93740 -0.02400
C 	C 	0.38360 0.42630 0.75970 0.54000
Tb	Tb	0.17972 0.50520 0.58058 1.98600
O 	O 	0.11970 0.56680 0.43650 -0.52200
O 	O 	0.31060 0.55260 0.71940 -0.58100
O 	O 	0.93780 0.54620 0.37740 -0.54700
O 	O 	0.88990 0.95240 0.07270 -0.53200
O 	O 	0.07520 0.93510 0.12850 -0.50900
O 	O 	0.69400 0.93820 0.83210 -0.53800
C 	C 	0.01730 0.57650 0.38530 0.49300
C 	C 	0.37850 0.58080 0.79640 0.57200
C 	C 	0.98300 0.62780 0.33160 -0.21800
C 	C 	0.39690 0.63290 0.76370 -0.26500
O 	O 	0.43070 0.56830 0.89660 -0.55000
C 	C 	0.88040 0.64860 0.31860 0.11300
C 	C 	0.05730 0.65500 0.30370 0.15200
C 	C 	0.47900 0.66370 0.84420 0.18700
C 	C 	0.33240 0.65060 0.65290 0.13800
Tb	Tb	0.54760 0.50685 0.99640 0.85100
H 	H 	0.83130 0.62980 0.33740 -0.00700
C 	C 	0.85090 0.69700 0.27770 -0.18000
H 	H 	0.12630 0.64110 0.31320 -0.02700
C 	C 	0.02730 0.70310 0.26140 -0.25400
H 	H 	0.52220 0.65200 0.91780 -0.02600
C 	C 	0.49620 0.71170 0.81440 -0.28800
H 	H 	0.27780 0.62980 0.59930 -0.02800
C 	C 	0.34850 0.69810 0.62220 -0.20200
O 	O 	0.68300 0.57410 -0.00000 -0.21200
O 	O 	0.61300 0.53130 0.85300 -0.22200
O 	O 	0.57430 0.95530 0.65380 -0.55400
H 	H 	0.78210 0.71100 0.26850 0.07000
C 	C 	0.92620 0.72460 0.25060 0.07800
C 	C 	0.09180 0.74000 0.22170 0.58100
C 	C 	0.43040 0.72930 0.70390 0.08000
C 	C 	0.58180 0.75130 0.88760 0.66900
H 	H 	0.30570 0.70950 0.54830 0.06500
N 	N 	0.68600 0.56140 0.90800 0.06200
C 	C 	0.92140 0.77720 0.21620 0.06200
C 	C 	0.09290 0.72090 0.11100 -1.03900
C 	C 	0.21310 0.74940 0.31180 -1.15700
C 	C 	0.01760 0.78660 0.19760 -0.24500
C 	C 	0.46410 0.78060 0.69820 0.07900
C 	C 	0.70370 0.73320 0.93030 -1.30500
C 	C 	0.55950 0.76630 0.98850 -1.14900
C 	C 	0.55420 0.79440 0.80190 -0.28700
O 	O 	0.73100 0.58710 0.86300 -0.14600
C 	C 	0.84380 0.81520 0.20010 -0.16500
H 	H 	0.12350 0.74600 0.08040 0.33400
H 	H 	0.01390 0.71400 0.05850 0.32500
H 	H 	0.13820 0.69110 0.12460 0.33300
H 	H 	0.24720 0.77540 0.28710 0.37500
H 	H 	0.25730 0.71930 0.32310 0.35800
H 	H 	0.21300 0.75900 0.38130 0.36800
C 	C 	0.03720 0.83400 0.16590 0.13100
C 	C 	0.42310 0.81520 0.60690 -0.20000
H 	H 	0.71520 0.72200 0.86750 0.42300
H 	H 	0.71840 0.70620 0.98240 0.42800
H 	H 	0.75600 0.76010 0.96740 0.41300
H 	H 	0.60660 0.79470 0.02550 0.36800
H 	H 	0.57960 0.73900 0.04060 0.37500
H 	H 	0.47920 0.77460 0.96250 0.35000
C 	C 	0.60300 0.84120 0.81680 0.18100
H 	H 	0.78020 0.80910 0.21260 0.06000
C 	C 	0.86060 0.86240 0.16530 0.09300
H 	H 	0.10220 0.84050 0.15610 -0.02000
C 	C 	0.95670 0.87180 0.14900 -0.20100
H 	H 	0.36380 0.80630 0.53730 0.06900
C 	C 	0.47140 0.86160 0.62210 0.13800
H 	H 	0.66280 0.85020 0.88600 -0.03900
C 	C 	0.56160 0.87520 0.72660 -0.25500
H 	H 	0.80750 0.88780 0.15300 0.00500
C 	C 	0.97550 0.92370 0.11390 0.48300
H 	H 	0.44430 0.88460 0.56260 -0.02500
C 	C 	0.61640 0.92630 0.74030 0.53800
Tb	Tb	0.17972 0.99480 0.08058 1.98400
O 	O 	0.11970 0.93320 0.93650 -0.52100
O 	O 	0.31060 0.94740 0.21940 -0.58100
O 	O 	0.93780 0.95380 0.87740 -0.54600
O 	O 	0.88990 0.54760 0.57270 -0.53500
O 	O 	0.07520 0.56490 0.62850 -0.50800
O 	O 	0.69400 0.56180 0.33210 -0.53900
C 	C 	0.01730 0.92350 0.88530 0.49300
C 	C 	0.37850 0.91920 0.29640 0.57400
C 	C 	0.98300 0.87220 0.83160 -0.21900
C 	C 	0.39690 0.86710 0.26370 -0.26600
O 	O 	0.43070 0.93170 0.39660 -0.55300
C 	C 	0.88040 0.85140 0.81860 0.11300
C 	C 	0.05730 0.84500 0.80370 0.15300
C 	C 	0.47900 0.83630 0.34420 0.18700
C 	C 	0.33240 0.84940 0.15290 0.13800
Tb	Tb	0.54760 0.99315 0.49640 0.98500
H 	H 	0.83130 0.87020 0.83740 -0.00700
C 	C 	0.85090 0.80300 0.77770 -0.18000
H 	H 	0.12630 0.85890 0.81320 -0.02700
C 	C 	0.02730 0.79690 0.76140 -0.25200
H 	H 	0.52220 0.84800 0.41780 -0.02600
C 	C 	0.49620 0.78830 0.31440 -0.28700
H 	H 	0.27780 0.87020 0.09930 -0.02800
C 	C 	0.34850 0.80190 0.12220 -0.20200
O 	O 	0.68300 0.92590 0.50000 -0.22500
O 	O 	0.61300 0.96870 0.35300 -0.23200
O 	O 	0.57430 0.54470 0.15380 -0.54900
H 	H 	0.78210 0.78900 0.76850 0.06900
C 	C 	0.92620 0.77540 0.75060 0.07700
C 	C 	0.09180 0.76000 0.72170 0.58000
C 	C 	0.43040 0.77070 0.20390 0.08000
C 	C 	0.58180 0.74870 0.38760 0.66500
H 	H 	0.30570 0.79050 0.04830 0.06500
N 	N 	0.68600 0.93860 0.40800 0.06500
C 	C 	0.92140 0.72280 0.71620 0.06100
C 	C 	0.09290 0.77910 0.61100 -1.03800
C 	C 	0.21310 0.75060 0.81180 -1.15500
C 	C 	0.01760 0.71340 0.69760 -0.24400
C 	C 	0.46410 0.71940 0.19820 0.07900
C 	C 	0.70370 0.76680 0.43030 -1.30200
C 	C 	0.55950 0.73370 0.48850 -1.13900
C 	C 	0.55420 0.70560 0.30190 -0.28600
O 	O 	0.73100 0.91290 0.36300 -0.14600
C 	C 	0.84380 0.68480 0.70010 -0.16500
H 	H 	0.12350 0.75400 0.58040 0.33400
H 	H 	0.01390 0.78600 0.55850 0.32500
H 	H 	0.13820 0.80890 0.62460 0.33200
H 	H 	0.24720 0.72460 0.78710 0.37500
H 	H 	0.25730 0.78070 0.82310 0.35800
H 	H 	0.21300 0.74100 0.88130 0.36700
C 	C 	0.03720 0.66600 0.66590 0.13300
C 	C 	0.42310 0.68480 0.10690 -0.20000
H 	H 	0.71520 0.77800 0.36750 0.42200
H 	H 	0.71840 0.79380 0.48240 0.42800
H 	H 	0.75600 0.73990 0.46740 0.41200
H 	H 	0.60660 0.70530 0.52550 0.36400
H 	H 	0.57960 0.76100 0.54060 0.37200
H 	H 	0.47920 0.72540 0.46250 0.34700
C 	C 	0.60300 0.65880 0.31680 0.18000
H 	H 	0.78020 0.69090 0.71260 0.06000
C 	C 	0.86060 0.63760 0.66530 0.09400
H 	H 	0.10220 0.65950 0.65610 -0.02100
C 	C 	0.95670 0.62820 0.64900 -0.20400
H 	H 	0.36380 0.69370 0.03730 0.06900
C 	C 	0.47140 0.63840 0.12210 0.13800
H 	H 	0.66280 0.64980 0.38600 -0.03800
C 	C 	0.56160 0.62480 0.22660 -0.25500
H 	H 	0.80750 0.61220 0.65300 0.00400
C 	C 	0.97550 0.57630 0.61390 0.48100
H 	H 	0.44430 0.61540 0.06260 -0.02600
C 	C 	0.61640 0.57370 0.24030 0.53700
Tb	Tb	0.82028 0.49480 0.41942 1.98700
O 	O 	0.88030 0.43320 0.56350 -0.52300
O 	O 	0.68940 0.44740 0.28060 -0.58000
O 	O 	0.06220 0.45380 0.62260 -0.55000
O 	O 	0.11010 0.04760 0.92730 -0.53500
O 	O 	0.92480 0.06490 0.87150 -0.50900
O 	O 	0.30600 0.06180 0.16790 -0.53700
C 	C 	0.98270 0.42350 0.61470 0.49500
C 	C 	0.62150 0.41920 0.20360 0.57400
C 	C 	0.01700 0.37220 0.66840 -0.22100
C 	C 	0.60310 0.36710 0.23630 -0.26300
O 	O 	0.56930 0.43170 0.10340 -0.55400
C 	C 	0.11960 0.35140 0.68140 0.11400
C 	C 	0.94270 0.34500 0.69630 0.15400
C 	C 	0.52100 0.33630 0.15580 0.18200
C 	C 	0.66760 0.34940 0.34710 0.13600
Tb	Tb	0.45240 0.49315 0.00360 1.12100
H 	H 	0.16870 0.37020 0.66260 -0.00800
C 	C 	0.14910 0.30300 0.72230 -0.18100
H 	H 	0.87370 0.35890 0.68680 -0.02800
C 	C 	0.97270 0.29690 0.73860 -0.25400
H 	H 	0.47780 0.34800 0.08220 -0.02400
C 	C 	0.50380 0.28830 0.18560 -0.27900
H 	H 	0.72220 0.37020 0.40070 -0.02700
C 	C 	0.65150 0.30190 0.37780 -0.20000
O 	O 	0.31700 0.42590 -0.00000 -0.23400
O 	O 	0.38700 0.46870 0.14700 -0.24300
O 	O 	0.42570 0.04470 0.34620 -0.55300
H 	H 	0.21790 0.28900 0.73150 0.07000
C 	C 	0.07380 0.27540 0.74940 0.07800
C 	C 	0.90820 0.26000 0.77830 0.58000
C 	C 	0.56960 0.27070 0.29610 0.07800
C 	C 	0.41820 0.24870 0.11240 0.64300
H 	H 	0.69430 0.29050 0.45170 0.06400
N 	N 	0.31400 0.43860 0.09200 0.06600
C 	C 	0.07860 0.22280 0.78380 0.06100
C 	C 	0.90710 0.27910 0.88900 -1.03500
C 	C 	0.78690 0.25060 0.68820 -1.15500
C 	C 	0.98240 0.21340 0.80240 -0.24400
C 	C 	0.53590 0.21940 0.30180 0.07600
C 	C 	0.29630 0.26680 0.06970 -1.27900
C 	C 	0.44050 0.23370 0.01150 -1.07800
C 	C 	0.44580 0.20560 0.19810 -0.27700
O 	O 	0.26900 0.41290 0.13700 -0.14600
C 	C 	0.15620 0.18480 0.79990 -0.16500
H 	H 	0.87650 0.25400 0.91960 0.33200
H 	H 	0.98610 0.28600 0.94150 0.32300
H 	H 	0.86180 0.30890 0.87540 0.33100
H 	H 	0.75280 0.22460 0.71290 0.37500
H 	H 	0.74270 0.28070 0.67690 0.35800
H 	H 	0.78700 0.24100 0.61870 0.36700
C 	C 	0.96280 0.16600 0.83410 0.13100
C 	C 	0.57690 0.18480 0.39310 -0.19700
H 	H 	0.28480 0.27800 0.13250 0.41500
H 	H 	0.28160 0.29380 0.01760 0.42300
H 	H 	0.24400 0.23990 0.03260 0.40700
H 	H 	0.39340 0.20530 0.97450 0.34300
H 	H 	0.42040 0.26100 0.95940 0.35000
H 	H 	0.52080 0.22540 0.03750 0.33200
C 	C 	0.39700 0.15880 0.18320 0.17400
H 	H 	0.21980 0.19090 0.78740 0.06000
C 	C 	0.13940 0.13760 0.83470 0.09400
H 	H 	0.89780 0.15950 0.84390 -0.02100
C 	C 	0.04330 0.12820 0.85100 -0.20300
H 	H 	0.63620 0.19370 0.46270 0.06800
C 	C 	0.52860 0.13840 0.37790 0.13500
H 	H 	0.33720 0.14980 0.11400 -0.03400
C 	C 	0.43840 0.12480 0.27340 -0.25100
H 	H 	0.19250 0.11220 0.84700 0.00400
C 	C 	0.02450 0.07630 0.88610 0.48300
H 	H 	0.55570 0.11540 0.43740 -0.02300
C 	C 	0.38360 0.07370 0.25970 0.53700
