data_crystal

_cell_length_a 13.07690
_cell_length_b 26.56730
_cell_length_c 13.15790
_cell_angle_alpha 90.00000
_cell_angle_beta  116.58800
_cell_angle_gamma 90.00000

_symmetry_space_group_name_	'P 1'
_symmetry_space_group_name_H-M	'P 1'

loop_
_symmetry_equiv_pos_as_xyz
  x,y,z

loop_
_atom_site_label
_atom_site_type_symbol
_atom_site_fract_x
_atom_site_fract_y
_atom_site_fract_z
_atom_site_charge
Dy	Dy	0.18023 0.99455 0.08021 1.93200
O 	O 	0.11650 0.93360 0.93490 -0.51000
O 	O 	0.30930 0.94770 0.21980 -0.57400
O 	O 	0.06670 0.04580 0.12650 -0.54200
O 	O 	0.10940 0.04750 0.92970 -0.53500
O 	O 	0.07490 0.93490 0.12630 -0.50700
O 	O 	0.30700 0.06100 0.16730 -0.53100
C 	C 	0.01240 0.92460 0.88300 0.49200
C 	C 	0.37790 0.91950 0.29700 0.56600
C 	C 	0.98010 0.87270 0.82880 -0.21200
C 	C 	0.39600 0.86730 0.26360 -0.26500
O 	O 	0.43150 0.93150 0.39760 -0.54200
C 	C 	0.87670 0.85140 0.81660 0.10800
C 	C 	0.05410 0.84550 0.80130 0.15800
C 	C 	0.47850 0.83610 0.34390 0.19300
C 	C 	0.33160 0.84940 0.15290 0.14300
Dy	Dy	0.54625 0.99302 0.49623 0.95000
H 	H 	0.82710 0.87010 0.83480 -0.00300
C 	C 	0.84940 0.80310 0.77760 -0.17900
H 	H 	0.12260 0.85980 0.81030 -0.02800
C 	C 	0.02620 0.79710 0.76040 -0.26100
H 	H 	0.52240 0.84780 0.41740 -0.02800
C 	C 	0.49510 0.78830 0.31490 -0.29600
H 	H 	0.27760 0.87040 0.09890 -0.03000
C 	C 	0.34620 0.80190 0.12250 -0.20900
O 	O 	0.68600 0.92650 0.49900 -0.21500
O 	O 	0.61000 0.96790 0.34900 -0.22100
O 	O 	0.42660 0.04450 0.34720 -0.53600
H 	H 	0.78100 0.78890 0.76890 0.06900
C 	C 	0.92440 0.77540 0.75110 0.07600
C 	C 	0.09020 0.76060 0.71930 0.61400
C 	C 	0.42920 0.77080 0.20410 0.08400
C 	C 	0.58160 0.74850 0.38800 0.68600
H 	H 	0.30200 0.79020 0.04900 0.06500
N 	N 	0.68900 0.93680 0.40600 0.06300
C 	C 	0.92140 0.72270 0.71660 0.06400
C 	C 	0.09050 0.78010 0.61000 -1.10800
C 	C 	0.21220 0.75130 0.81010 -1.18600
C 	C 	0.01810 0.71320 0.69670 -0.25900
C 	C 	0.46250 0.71920 0.19710 0.07800
C 	C 	0.70420 0.76680 0.42980 -1.32300
C 	C 	0.55950 0.73300 0.48820 -1.21000
C 	C 	0.55330 0.70550 0.30230 -0.29100
O 	O 	0.73700 0.91040 0.37100 -0.14900
C 	C 	0.84480 0.68390 0.70090 -0.17100
H 	H 	0.12110 0.75500 0.57940 0.35400
H 	H 	0.01150 0.78700 0.55740 0.34600
H 	H 	0.13580 0.80990 0.62350 0.35400
H 	H 	0.24640 0.72530 0.78540 0.38400
H 	H 	0.25640 0.78140 0.82150 0.36800
H 	H 	0.21210 0.74170 0.87960 0.37700
C 	C 	0.03720 0.66610 0.66510 0.15300
C 	C 	0.42220 0.68470 0.10640 -0.20300
H 	H 	0.71570 0.77800 0.36700 0.42700
H 	H 	0.71890 0.79370 0.48190 0.43700
H 	H 	0.75660 0.73980 0.46680 0.41700
H 	H 	0.60660 0.70470 0.52510 0.38900
H 	H 	0.57950 0.76030 0.54020 0.39300
H 	H 	0.47920 0.72480 0.46210 0.36900
C 	C 	0.60210 0.65840 0.31720 0.18200
H 	H 	0.78220 0.68950 0.71520 0.06200
C 	C 	0.86050 0.63750 0.66440 0.10200
H 	H 	0.10200 0.65980 0.65510 -0.02800
C 	C 	0.95820 0.62840 0.64860 -0.21500
H 	H 	0.36450 0.69390 0.03580 0.06900
C 	C 	0.46790 0.63810 0.12280 0.13800
H 	H 	0.66190 0.64950 0.38670 -0.03900
C 	C 	0.56140 0.62440 0.22750 -0.25500
H 	H 	0.80670 0.61220 0.65030 0.00100
C 	C 	0.97680 0.57620 0.61450 0.49100
H 	H 	0.43770 0.61460 0.06440 -0.02400
C 	C 	0.61520 0.57340 0.24200 0.52800
Dy	Dy	0.81977 0.49455 0.41979 1.94000
O 	O 	0.88350 0.43360 0.56510 -0.51200
O 	O 	0.69070 0.44770 0.28020 -0.57300
O 	O 	0.93330 0.54580 0.37350 -0.54400
O 	O 	0.89060 0.54750 0.57030 -0.53400
O 	O 	0.92510 0.43490 0.37370 -0.50400
O 	O 	0.69300 0.56100 0.33270 -0.53300
C 	C 	0.98760 0.42460 0.61700 0.49400
C 	C 	0.62210 0.41950 0.20300 0.56600
C 	C 	0.01990 0.37270 0.67120 -0.21300
C 	C 	0.60400 0.36730 0.23640 -0.26300
O 	O 	0.56850 0.43150 0.10240 -0.54200
C 	C 	0.12330 0.35140 0.68340 0.10900
C 	C 	0.94590 0.34550 0.69870 0.15700
C 	C 	0.52150 0.33610 0.15610 0.19000
C 	C 	0.66840 0.34940 0.34710 0.14100
Dy	Dy	0.45375 0.49302 0.00377 0.94900
H 	H 	0.17290 0.37010 0.66520 -0.00400
C 	C 	0.15060 0.30310 0.72240 -0.18000
H 	H 	0.87740 0.35980 0.68970 -0.02900
C 	C 	0.97380 0.29710 0.73960 -0.26200
H 	H 	0.47760 0.34780 0.08260 -0.02700
C 	C 	0.50490 0.28830 0.18510 -0.29200
H 	H 	0.72240 0.37040 0.40110 -0.02900
C 	C 	0.65380 0.30190 0.37750 -0.20800
O 	O 	0.31400 0.42650 0.00100 -0.21500
O 	O 	0.39000 0.46790 0.15100 -0.22100
O 	O 	0.57340 0.54450 0.15280 -0.53700
H 	H 	0.21900 0.28890 0.73110 0.06900
C 	C 	0.07560 0.27540 0.74890 0.07600
C 	C 	0.90980 0.26060 0.78070 0.61200
C 	C 	0.57080 0.27080 0.29590 0.08300
C 	C 	0.41840 0.24850 0.11200 0.67600
H 	H 	0.69800 0.29020 0.45100 0.06600
N 	N 	0.31100 0.43680 0.09400 0.06300
C 	C 	0.07860 0.22270 0.78340 0.06400
C 	C 	0.90950 0.28010 0.89000 -1.10400
C 	C 	0.78780 0.25130 0.68990 -1.18200
C 	C 	0.98190 0.21320 0.80330 -0.25900
C 	C 	0.53750 0.21920 0.30290 0.07700
C 	C 	0.29580 0.26680 0.07020 -1.31100
C 	C 	0.44050 0.23300 0.01180 -1.18000
C 	C 	0.44670 0.20550 0.19770 -0.28700
O 	O 	0.26300 0.41040 0.12900 -0.14900
C 	C 	0.15520 0.18390 0.79910 -0.17100
H 	H 	0.87890 0.25500 0.92060 0.35300
H 	H 	0.98850 0.28700 0.94260 0.34500
H 	H 	0.86420 0.30990 0.87650 0.35300
H 	H 	0.75360 0.22530 0.71460 0.38200
H 	H 	0.74360 0.28140 0.67850 0.36600
H 	H 	0.78790 0.24170 0.62040 0.37500
C 	C 	0.96280 0.16610 0.83490 0.15000
C 	C 	0.57780 0.18470 0.39360 -0.20200
H 	H 	0.28430 0.27800 0.13300 0.42400
H 	H 	0.28110 0.29370 0.01810 0.43400
H 	H 	0.24340 0.23980 0.03320 0.41500
H 	H 	0.39340 0.20470 0.97490 0.37800
H 	H 	0.42050 0.26030 0.95980 0.38300
H 	H 	0.52080 0.22480 0.03790 0.36200
C 	C 	0.39790 0.15840 0.18280 0.17900
H 	H 	0.21780 0.18950 0.78480 0.06200
C 	C 	0.13950 0.13750 0.83560 0.10100
H 	H 	0.89800 0.15980 0.84490 -0.02700
C 	C 	0.04180 0.12840 0.85140 -0.21300
H 	H 	0.63550 0.19390 0.46420 0.06900
C 	C 	0.53210 0.13810 0.37720 0.13700
H 	H 	0.33810 0.14950 0.11330 -0.03700
C 	C 	0.43860 0.12440 0.27250 -0.25300
H 	H 	0.19330 0.11220 0.84970 0.00100
C 	C 	0.02320 0.07620 0.88550 0.49200
H 	H 	0.56230 0.11460 0.43560 -0.02400
C 	C 	0.38480 0.07340 0.25800 0.52700
Dy	Dy	0.81977 0.00545 0.91979 1.93300
O 	O 	0.88350 0.06640 0.06510 -0.50900
O 	O 	0.69070 0.05230 0.78020 -0.57300
O 	O 	0.93330 0.95420 0.87350 -0.54100
O 	O 	0.89060 0.95250 0.07030 -0.53400
O 	O 	0.92510 0.06510 0.87370 -0.50600
O 	O 	0.69300 0.93900 0.83270 -0.53000
C 	C 	0.98760 0.07540 0.11700 0.49300
C 	C 	0.62210 0.08050 0.70300 0.56600
C 	C 	0.01990 0.12730 0.17120 -0.21200
C 	C 	0.60400 0.13270 0.73640 -0.26500
O 	O 	0.56850 0.06850 0.60240 -0.54200
C 	C 	0.12330 0.14860 0.18340 0.10800
C 	C 	0.94590 0.15450 0.19870 0.15800
C 	C 	0.52150 0.16390 0.65610 0.19300
C 	C 	0.66840 0.15060 0.84710 0.14300
Dy	Dy	0.45375 0.00698 0.50377 0.95000
H 	H 	0.17290 0.12990 0.16520 -0.00300
C 	C 	0.15060 0.19690 0.22240 -0.17900
H 	H 	0.87740 0.14020 0.18970 -0.02800
C 	C 	0.97380 0.20290 0.23960 -0.26100
H 	H 	0.47760 0.15220 0.58260 -0.02800
C 	C 	0.50490 0.21170 0.68510 -0.29600
H 	H 	0.72240 0.12960 0.90110 -0.03000
C 	C 	0.65380 0.19810 0.87750 -0.20900
O 	O 	0.31400 0.07350 0.50100 -0.21500
O 	O 	0.39000 0.03210 0.65100 -0.22100
O 	O 	0.57340 0.95550 0.65280 -0.53600
H 	H 	0.21900 0.21110 0.23110 0.06900
C 	C 	0.07560 0.22460 0.24890 0.07600
C 	C 	0.90980 0.23940 0.28070 0.61400
C 	C 	0.57080 0.22920 0.79590 0.08400
C 	C 	0.41840 0.25150 0.61200 0.68600
H 	H 	0.69800 0.20980 0.95100 0.06500
N 	N 	0.31100 0.06320 0.59400 0.06300
C 	C 	0.07860 0.27730 0.28340 0.06400
C 	C 	0.90950 0.21990 0.39000 -1.10800
C 	C 	0.78780 0.24870 0.18990 -1.18600
C 	C 	0.98190 0.28680 0.30330 -0.25900
C 	C 	0.53750 0.28080 0.80290 0.07800
C 	C 	0.29580 0.23320 0.57020 -1.32300
C 	C 	0.44050 0.26700 0.51180 -1.21000
C 	C 	0.44670 0.29450 0.69770 -0.29100
O 	O 	0.26300 0.08960 0.62900 -0.14900
C 	C 	0.15520 0.31610 0.29910 -0.17100
H 	H 	0.87890 0.24500 0.42060 0.35400
H 	H 	0.98850 0.21300 0.44260 0.34600
H 	H 	0.86420 0.19010 0.37650 0.35400
H 	H 	0.75360 0.27470 0.21460 0.38400
H 	H 	0.74360 0.21860 0.17850 0.36800
H 	H 	0.78790 0.25830 0.12040 0.37700
C 	C 	0.96280 0.33390 0.33490 0.15300
C 	C 	0.57780 0.31530 0.89360 -0.20300
H 	H 	0.28430 0.22200 0.63300 0.42700
H 	H 	0.28110 0.20630 0.51810 0.43700
H 	H 	0.24340 0.26020 0.53320 0.41700
H 	H 	0.39340 0.29530 0.47490 0.38900
H 	H 	0.42050 0.23970 0.45980 0.39300
H 	H 	0.52080 0.27520 0.53790 0.36900
C 	C 	0.39790 0.34160 0.68280 0.18200
H 	H 	0.21780 0.31050 0.28480 0.06200
C 	C 	0.13950 0.36250 0.33560 0.10200
H 	H 	0.89800 0.34020 0.34490 -0.02800
C 	C 	0.04180 0.37160 0.35140 -0.21500
H 	H 	0.63550 0.30610 0.96420 0.06900
C 	C 	0.53210 0.36190 0.87720 0.13800
H 	H 	0.33810 0.35050 0.61330 -0.03900
C 	C 	0.43860 0.37560 0.77250 -0.25500
H 	H 	0.19330 0.38780 0.34970 0.00100
C 	C 	0.02320 0.42380 0.38550 0.49100
H 	H 	0.56230 0.38540 0.93560 -0.02400
C 	C 	0.38480 0.42660 0.75800 0.52800
Dy	Dy	0.18023 0.50545 0.58021 1.94000
O 	O 	0.11650 0.56640 0.43490 -0.51200
O 	O 	0.30930 0.55230 0.71980 -0.57300
O 	O 	0.06670 0.45420 0.62650 -0.54400
O 	O 	0.10940 0.45250 0.42970 -0.53400
O 	O 	0.07490 0.56510 0.62630 -0.50400
O 	O 	0.30700 0.43900 0.66730 -0.53300
C 	C 	0.01240 0.57540 0.38300 0.49400
C 	C 	0.37790 0.58050 0.79700 0.56600
C 	C 	0.98010 0.62730 0.32880 -0.21300
C 	C 	0.39600 0.63270 0.76360 -0.26300
O 	O 	0.43150 0.56850 0.89760 -0.54200
C 	C 	0.87670 0.64860 0.31660 0.10900
C 	C 	0.05410 0.65450 0.30130 0.15700
C 	C 	0.47850 0.66390 0.84390 0.19000
C 	C 	0.33160 0.65060 0.65290 0.14100
Dy	Dy	0.54625 0.50698 0.99623 0.94900
H 	H 	0.82710 0.62990 0.33480 -0.00400
C 	C 	0.84940 0.69690 0.27760 -0.18000
H 	H 	0.12260 0.64020 0.31030 -0.02900
C 	C 	0.02620 0.70290 0.26040 -0.26200
H 	H 	0.52240 0.65220 0.91740 -0.02700
C 	C 	0.49510 0.71170 0.81490 -0.29200
H 	H 	0.27760 0.62960 0.59890 -0.02900
C 	C 	0.34620 0.69810 0.62250 -0.20800
O 	O 	0.68600 0.57350 0.99900 -0.21500
O 	O 	0.61000 0.53210 0.84900 -0.22100
O 	O 	0.42660 0.45550 0.84720 -0.53700
H 	H 	0.78100 0.71110 0.26890 0.06900
C 	C 	0.92440 0.72460 0.25110 0.07600
C 	C 	0.09020 0.73940 0.21930 0.61200
C 	C 	0.42920 0.72920 0.70410 0.08300
C 	C 	0.58160 0.75150 0.88800 0.67600
H 	H 	0.30200 0.70980 0.54900 0.06600
N 	N 	0.68900 0.56320 0.90600 0.06300
C 	C 	0.92140 0.77730 0.21660 0.06400
C 	C 	0.09050 0.71990 0.11000 -1.10400
C 	C 	0.21220 0.74870 0.31010 -1.18200
C 	C 	0.01810 0.78680 0.19670 -0.25900
C 	C 	0.46250 0.78080 0.69710 0.07700
C 	C 	0.70420 0.73320 0.92980 -1.31100
C 	C 	0.55950 0.76700 0.98820 -1.18000
C 	C 	0.55330 0.79450 0.80230 -0.28700
O 	O 	0.73700 0.58960 0.87100 -0.14900
C 	C 	0.84480 0.81610 0.20090 -0.17100
H 	H 	0.12110 0.74500 0.07940 0.35300
H 	H 	0.01150 0.71300 0.05740 0.34500
H 	H 	0.13580 0.69010 0.12350 0.35300
H 	H 	0.24640 0.77470 0.28540 0.38200
H 	H 	0.25640 0.71860 0.32150 0.36600
H 	H 	0.21210 0.75830 0.37960 0.37500
C 	C 	0.03720 0.83390 0.16510 0.15000
C 	C 	0.42220 0.81530 0.60640 -0.20200
H 	H 	0.71570 0.72200 0.86700 0.42400
H 	H 	0.71890 0.70630 0.98190 0.43400
H 	H 	0.75660 0.76020 0.96680 0.41500
H 	H 	0.60660 0.79530 0.02510 0.37800
H 	H 	0.57950 0.73970 0.04020 0.38300
H 	H 	0.47920 0.77520 0.96210 0.36200
C 	C 	0.60210 0.84160 0.81720 0.17900
H 	H 	0.78220 0.81050 0.21520 0.06200
C 	C 	0.86050 0.86250 0.16440 0.10100
H 	H 	0.10200 0.84020 0.15510 -0.02700
C 	C 	0.95820 0.87160 0.14860 -0.21300
H 	H 	0.36450 0.80610 0.53580 0.06900
C 	C 	0.46790 0.86190 0.62280 0.13700
H 	H 	0.66190 0.85050 0.88670 -0.03700
C 	C 	0.56140 0.87560 0.72750 -0.25300
H 	H 	0.80670 0.88780 0.15030 0.00100
C 	C 	0.97680 0.92380 0.11450 0.49200
H 	H 	0.43770 0.88540 0.56440 -0.02400
C 	C 	0.61520 0.92660 0.74200 0.52700
