data_crystal

_cell_length_a 15.65300
_cell_length_b 13.53300
_cell_length_c 13.61500
_cell_angle_alpha 90.00000
_cell_angle_beta  103.91800
_cell_angle_gamma 90.00000

_symmetry_space_group_name_	'P 1'
_symmetry_space_group_name_H-M	'P 1'

loop_
_symmetry_equiv_pos_as_xyz
  x,y,z

loop_
_atom_site_label
_atom_site_type_symbol
_atom_site_fract_x
_atom_site_fract_y
_atom_site_fract_z
_atom_site_charge
Cu	Cu	0.57263 0.05758 0.52446 0.92000
O 	O 	0.51110 0.14520 0.41640 -0.39200
O 	O 	0.39090 0.04880 0.37670 -0.39400
O 	O 	0.39810 0.46970 0.07790 -0.40200
O 	O 	0.51730 0.37260 0.11850 -0.38900
N 	N 	0.70540 0.38560 0.06300 -0.18800
N 	N 	0.16110 0.29280 0.18780 -0.14400
C 	C 	0.38790 0.19990 0.29320 -0.05400
C 	C 	0.43590 0.26320 0.24590 0.00500
H 	H 	0.49830 0.25810 0.26030 0.06100
C 	C 	0.39260 0.33300 0.17840 -0.05700
C 	C 	0.30180 0.34110 0.15920 -0.06600
H 	H 	0.27160 0.38880 0.11220 0.07200
C 	C 	0.25560 0.28010 0.20830 0.08800
C 	C 	0.29630 0.20750 0.27460 -0.06700
H 	H 	0.26330 0.16450 0.30650 0.07000
C 	C 	0.12940 0.38520 0.18400 0.07000
H 	H 	0.16870 0.43970 0.19670 0.01300
C 	C 	0.04170 0.40050 0.16200 -0.11800
H 	H 	0.02060 0.46640 0.16090 0.06800
C 	C 	0.98230 0.32510 0.14130 0.04400
C 	C 	0.01760 0.22990 0.14690 -0.11000
H 	H 	0.97920 0.17450 0.13580 0.06500
C 	C 	0.10600 0.21530 0.16800 0.06700
H 	H 	0.12890 0.15020 0.16870 0.01400
C 	C 	0.88620 0.34360 0.11390 0.05700
C 	C 	0.85580 0.43970 0.09060 -0.12200
H 	H 	0.89600 0.49240 0.09100 0.07000
C 	C 	0.76730 0.45650 0.06720 0.07000
H 	H 	0.74770 0.52250 0.05290 0.01600
C 	C 	0.73640 0.29490 0.08280 0.08400
H 	H 	0.69520 0.24280 0.07940 0.01100
C 	C 	0.82490 0.27110 0.10810 -0.12700
H 	H 	0.84280 0.20430 0.12150 0.07400
C 	C 	0.43390 0.12620 0.36870 0.34200
C 	C 	0.44010 0.39700 0.12070 0.34900
Cu	Cu	0.42737 0.55758 0.97554 0.92100
O 	O 	0.48890 0.64520 0.08360 -0.39000
O 	O 	0.60910 0.54880 0.12330 -0.39500
O 	O 	0.60190 0.96970 0.42210 -0.40200
O 	O 	0.48270 0.87260 0.38150 -0.38900
N 	N 	0.29460 0.88560 0.43700 -0.18800
N 	N 	0.83890 0.79280 0.31220 -0.14500
C 	C 	0.61210 0.69990 0.20680 -0.05400
C 	C 	0.56410 0.76320 0.25410 0.00500
H 	H 	0.50170 0.75810 0.23970 0.06100
C 	C 	0.60740 0.83300 0.32160 -0.05700
C 	C 	0.69820 0.84110 0.34080 -0.06600
H 	H 	0.72840 0.88880 0.38780 0.07200
C 	C 	0.74440 0.78010 0.29170 0.08800
C 	C 	0.70370 0.70750 0.22540 -0.06700
H 	H 	0.73670 0.66450 0.19350 0.07000
C 	C 	0.87060 0.88520 0.31600 0.07300
H 	H 	0.83130 0.93970 0.30330 0.01200
C 	C 	0.95830 0.90050 0.33800 -0.12200
H 	H 	0.97940 0.96640 0.33910 0.06900
C 	C 	0.01770 0.82510 0.35870 0.04900
C 	C 	0.98240 0.72990 0.35310 -0.11800
H 	H 	0.02080 0.67450 0.36420 0.06800
C 	C 	0.89400 0.71530 0.33200 0.07100
H 	H 	0.87110 0.65020 0.33130 0.01200
C 	C 	0.11380 0.84360 0.38610 0.05400
C 	C 	0.14420 0.93970 0.40940 -0.11900
H 	H 	0.10400 0.99240 0.40900 0.06800
C 	C 	0.23270 0.95650 0.43280 0.06700
H 	H 	0.25230 0.02250 0.44710 0.01800
C 	C 	0.26360 0.79490 0.41720 0.08300
H 	H 	0.30480 0.74280 0.42060 0.01200
C 	C 	0.17510 0.77110 0.39190 -0.12500
H 	H 	0.15720 0.70430 0.37850 0.07300
C 	C 	0.56610 0.62620 0.13130 0.34200
C 	C 	0.55990 0.89700 0.37930 0.34800
Cu	Cu	0.42737 0.94242 0.47554 0.92100
O 	O 	0.48890 0.85480 0.58360 -0.39100
O 	O 	0.60910 0.95120 0.62330 -0.39400
O 	O 	0.60190 0.53030 0.92210 -0.40200
O 	O 	0.48270 0.62740 0.88150 -0.38900
N 	N 	0.29460 0.61440 0.93700 -0.18800
N 	N 	0.83890 0.70720 0.81220 -0.14400
C 	C 	0.61210 0.80010 0.70680 -0.05400
C 	C 	0.56410 0.73680 0.75410 0.00500
H 	H 	0.50170 0.74190 0.73970 0.06100
C 	C 	0.60740 0.66700 0.82160 -0.05700
C 	C 	0.69820 0.65890 0.84080 -0.06600
H 	H 	0.72840 0.61120 0.88780 0.07200
C 	C 	0.74440 0.71990 0.79170 0.08800
C 	C 	0.70370 0.79250 0.72540 -0.06700
H 	H 	0.73670 0.83550 0.69350 0.07000
C 	C 	0.87060 0.61480 0.81600 0.07000
H 	H 	0.83130 0.56030 0.80330 0.01300
C 	C 	0.95830 0.59950 0.83800 -0.11800
H 	H 	0.97940 0.53360 0.83910 0.06800
C 	C 	0.01770 0.67490 0.85870 0.04400
C 	C 	0.98240 0.77010 0.85310 -0.11000
H 	H 	0.02080 0.82550 0.86420 0.06500
C 	C 	0.89400 0.78470 0.83200 0.06700
H 	H 	0.87110 0.84980 0.83130 0.01400
C 	C 	0.11380 0.65640 0.88610 0.05700
C 	C 	0.14420 0.56030 0.90940 -0.12200
H 	H 	0.10400 0.50760 0.90900 0.07000
C 	C 	0.23270 0.54350 0.93280 0.07000
H 	H 	0.25230 0.47750 0.94710 0.01600
C 	C 	0.26360 0.70510 0.91720 0.08400
H 	H 	0.30480 0.75720 0.92060 0.01100
C 	C 	0.17510 0.72890 0.89190 -0.12700
H 	H 	0.15720 0.79570 0.87850 0.07400
C 	C 	0.56610 0.87380 0.63130 0.34200
C 	C 	0.55990 0.60300 0.87930 0.34900
Cu	Cu	0.57263 0.44242 0.02446 0.92100
O 	O 	0.51110 0.35480 0.91640 -0.39000
O 	O 	0.39090 0.45120 0.87670 -0.39500
O 	O 	0.39810 0.03030 0.57790 -0.40200
O 	O 	0.51730 0.12740 0.61850 -0.38900
N 	N 	0.70540 0.11440 0.56300 -0.18800
N 	N 	0.16110 0.20720 0.68780 -0.14500
C 	C 	0.38790 0.30010 0.79320 -0.05400
C 	C 	0.43590 0.23680 0.74590 0.00500
H 	H 	0.49830 0.24190 0.76030 0.06100
C 	C 	0.39260 0.16700 0.67840 -0.05700
C 	C 	0.30180 0.15890 0.65920 -0.06600
H 	H 	0.27160 0.11120 0.61220 0.07200
C 	C 	0.25560 0.21990 0.70830 0.08800
C 	C 	0.29630 0.29250 0.77460 -0.06700
H 	H 	0.26330 0.33550 0.80650 0.07000
C 	C 	0.12940 0.11480 0.68400 0.07300
H 	H 	0.16870 0.06030 0.69670 0.01200
C 	C 	0.04170 0.09950 0.66200 -0.12200
H 	H 	0.02060 0.03360 0.66090 0.06900
C 	C 	0.98230 0.17490 0.64130 0.04900
C 	C 	0.01760 0.27010 0.64690 -0.11800
H 	H 	0.97920 0.32550 0.63580 0.06800
C 	C 	0.10600 0.28470 0.66800 0.07100
H 	H 	0.12890 0.34980 0.66870 0.01200
C 	C 	0.88620 0.15640 0.61390 0.05400
C 	C 	0.85580 0.06030 0.59060 -0.11900
H 	H 	0.89600 0.00760 0.59100 0.06800
C 	C 	0.76730 0.04350 0.56720 0.06700
H 	H 	0.74770 0.97750 0.55290 0.01800
C 	C 	0.73640 0.20510 0.58280 0.08300
H 	H 	0.69520 0.25720 0.57940 0.01200
C 	C 	0.82490 0.22890 0.60810 -0.12500
H 	H 	0.84280 0.29570 0.62150 0.07300
C 	C 	0.43390 0.37380 0.86870 0.34200
C 	C 	0.44010 0.10300 0.62070 0.34800
