data_crystal

_cell_length_a 7.57390
_cell_length_b 8.61670
_cell_length_c 9.86700
_cell_angle_alpha 86.99000
_cell_angle_beta  89.87000
_cell_angle_gamma 85.24000

_symmetry_space_group_name_	'P 1'
_symmetry_space_group_name_H-M	'P 1'

loop_
_symmetry_equiv_pos_as_xyz
  x,y,z

loop_
_atom_site_label
_atom_site_type_symbol
_atom_site_fract_x
_atom_site_fract_y
_atom_site_fract_z
_atom_site_charge
Eu	Eu	0.56547 0.88473 0.83312 1.80200
O 	O 	0.41040 0.27780 0.96110 -0.47200
O 	O 	0.86690 0.76120 0.86470 -0.43100
O 	O 	0.57040 0.64450 0.72450 -0.45000
O 	O 	0.50140 0.16200 0.77240 -0.52100
O 	O 	0.30980 0.97060 0.99270 -0.57200
O 	O 	0.28290 0.76020 0.88190 -0.43300
N 	N 	0.03060 0.64900 0.03870 -0.10600
N 	N 	0.43380 0.45600 0.62800 -0.10200
C 	C 	0.42570 0.27310 0.83450 0.49100
C 	C 	0.92610 0.64250 0.93100 0.30700
C 	C 	0.87510 0.48840 0.89010 -0.22000
H 	H 	0.74640 0.48390 0.90570 0.11500
H 	H 	0.89610 0.48150 0.79150 0.09200
C 	C 	0.53450 0.57360 0.62210 0.26600
C 	C 	0.23480 0.84610 0.97420 0.41400
C 	C 	0.09120 0.79840 0.06970 -0.22600
H 	H 	0.13670 0.79230 0.16390 0.07500
H 	H 	0.98990 0.87880 0.06360 0.09000
C 	C 	0.34160 0.41440 0.75340 -0.30000
H 	H 	0.21860 0.39460 0.73040 0.11100
H 	H 	0.33540 0.50490 0.81160 0.14800
C 	C 	0.61020 0.62840 0.48940 -0.18700
H 	H 	0.56890 0.73970 0.47180 0.04700
H 	H 	0.74080 0.62190 0.49820 0.06400
Eu	Eu	0.43453 0.11527 0.16688 1.80100
O 	O 	0.58960 0.72220 0.03890 -0.47300
O 	O 	0.13310 0.23880 0.13530 -0.43200
O 	O 	0.42960 0.35550 0.27550 -0.45100
O 	O 	0.49860 0.83800 0.22760 -0.52100
O 	O 	0.69020 0.02940 0.00730 -0.57200
O 	O 	0.71710 0.23980 0.11810 -0.43300
N 	N 	0.96940 0.35100 0.96130 -0.10600
N 	N 	0.56620 0.54400 0.37200 -0.10200
C 	C 	0.57430 0.72690 0.16550 0.49100
C 	C 	0.07390 0.35750 0.06900 0.30700
C 	C 	0.12490 0.51160 0.10990 -0.22000
H 	H 	0.25360 0.51610 0.09430 0.11500
H 	H 	0.10390 0.51850 0.20850 0.09200
C 	C 	0.46550 0.42640 0.37790 0.26600
C 	C 	0.76520 0.15390 0.02580 0.41400
C 	C 	0.90880 0.20160 0.93030 -0.22600
H 	H 	0.86330 0.20770 0.83610 0.07500
H 	H 	0.01010 0.12120 0.93640 0.09000
C 	C 	0.65840 0.58560 0.24660 -0.30000
H 	H 	0.78140 0.60540 0.26960 0.11100
H 	H 	0.66460 0.49510 0.18840 0.14800
C 	C 	0.38980 0.37160 0.51060 -0.18700
H 	H 	0.43110 0.26030 0.52820 0.04700
H 	H 	0.25920 0.37810 0.50180 0.06400
