data_crystal

_cell_length_a 7.56980
_cell_length_b 8.60500
_cell_length_c 9.84000
_cell_angle_alpha 87.10000
_cell_angle_beta  89.92000
_cell_angle_gamma 85.22000

_symmetry_space_group_name_	'P 1'
_symmetry_space_group_name_H-M	'P 1'

loop_
_symmetry_equiv_pos_as_xyz
  x,y,z

loop_
_atom_site_label
_atom_site_type_symbol
_atom_site_fract_x
_atom_site_fract_y
_atom_site_fract_z
_atom_site_charge
Tb	Tb	0.43498 0.11530 0.16673 1.70100
O 	O 	0.13490 0.23890 0.13340 -0.41700
N 	N 	0.43310 0.45650 0.62740 -0.10200
C 	C 	0.12480 0.51220 0.11050 -0.21800
H 	H 	0.10140 0.51880 0.20910 0.09200
H 	H 	0.25390 0.51690 0.09680 0.11600
O 	O 	0.71650 0.23860 0.11940 -0.42200
N 	N 	0.96940 0.35000 0.96250 -0.11100
C 	C 	0.07440 0.35740 0.06710 0.30800
O 	O 	0.68990 0.02880 0.00780 -0.55000
C 	C 	0.90990 0.20080 0.92830 -0.21500
H 	H 	0.01110 0.12010 0.93330 0.09000
H 	H 	0.86340 0.20850 0.83390 0.07400
O 	O 	0.57030 0.64490 0.72450 -0.44200
C 	C 	0.76430 0.15330 0.02660 0.40700
O 	O 	0.50050 0.16150 0.77240 -0.50400
C 	C 	0.53490 0.57450 0.62310 0.27500
O 	O 	0.41070 0.27880 0.96200 -0.45600
C 	C 	0.39050 0.37250 0.50970 -0.19300
H 	H 	0.25980 0.37870 0.50070 0.06800
H 	H 	0.43180 0.26110 0.52760 0.05400
C 	C 	0.33970 0.41520 0.75560 -0.29900
H 	H 	0.21620 0.39590 0.73320 0.11300
H 	H 	0.33500 0.50550 0.81430 0.15000
C 	C 	0.42560 0.27280 0.83500 0.48200
Tb	Tb	0.56502 0.88470 0.83327 1.70000
O 	O 	0.86510 0.76110 0.86660 -0.41800
N 	N 	0.56690 0.54350 0.37260 -0.10200
C 	C 	0.87520 0.48780 0.88950 -0.21800
H 	H 	0.89860 0.48120 0.79090 0.09200
H 	H 	0.74610 0.48310 0.90320 0.11600
O 	O 	0.28350 0.76140 0.88060 -0.42200
N 	N 	0.03060 0.65000 0.03750 -0.11100
C 	C 	0.92560 0.64260 0.93290 0.30800
O 	O 	0.31010 0.97120 0.99220 -0.55000
C 	C 	0.09010 0.79920 0.07170 -0.21500
H 	H 	0.98890 0.87990 0.06670 0.09000
H 	H 	0.13660 0.79150 0.16610 0.07400
O 	O 	0.42970 0.35510 0.27550 -0.44200
C 	C 	0.23570 0.84670 0.97340 0.40700
O 	O 	0.49950 0.83850 0.22760 -0.50400
C 	C 	0.46510 0.42550 0.37690 0.27500
O 	O 	0.58930 0.72120 0.03800 -0.45600
C 	C 	0.60950 0.62750 0.49030 -0.19300
H 	H 	0.74020 0.62130 0.49930 0.06800
H 	H 	0.56820 0.73890 0.47240 0.05400
C 	C 	0.66030 0.58480 0.24440 -0.29900
H 	H 	0.78380 0.60410 0.26680 0.11300
H 	H 	0.66500 0.49450 0.18570 0.15000
C 	C 	0.57440 0.72720 0.16500 0.48200
