data_crystal

_cell_length_a 7.64970
_cell_length_b 8.73640
_cell_length_c 10.00640
_cell_angle_alpha 86.49800
_cell_angle_beta  89.45600
_cell_angle_gamma 85.13500

_symmetry_space_group_name_	'P 1'
_symmetry_space_group_name_H-M	'P 1'

loop_
_symmetry_equiv_pos_as_xyz
  x,y,z

loop_
_atom_site_label
_atom_site_type_symbol
_atom_site_fract_x
_atom_site_fract_y
_atom_site_fract_z
_atom_site_charge
La	La	0.43049 0.11532 0.16902 1.59500
O 	O 	0.12550 0.24257 0.13691 -0.39400
O 	O 	0.42570 0.36108 0.27972 -0.40100
O 	O 	0.59880 0.72430 0.04595 -0.42700
O 	O 	0.69820 0.03398 0.00663 -0.50500
O 	O 	0.49750 0.83180 0.23194 -0.46900
N 	N 	0.56870 0.54300 0.37290 -0.09400
N 	N 	0.97100 0.35290 0.96250 -0.09600
O 	O 	0.71430 0.24600 0.11300 -0.39800
C 	C 	0.91360 0.20510 0.93110 -0.23600
H 	H 	0.01360 0.12540 0.94010 0.09900
H 	H 	0.87240 0.21060 0.83730 0.08300
C 	C 	0.46390 0.42960 0.37990 0.24400
C 	C 	0.61240 0.62430 0.48960 -0.19100
H 	H 	0.57350 0.73470 0.47240 0.05600
H 	H 	0.74170 0.61610 0.49850 0.07000
C 	C 	0.11910 0.51160 0.10920 -0.22100
H 	H 	0.09580 0.51880 0.20620 0.09500
H 	H 	0.24710 0.51520 0.09530 0.11400
C 	C 	0.76600 0.16030 0.02460 0.38100
C 	C 	0.06910 0.35950 0.06960 0.28600
C 	C 	0.65850 0.58260 0.24870 -0.28200
H 	H 	0.66120 0.49400 0.19130 0.14300
H 	H 	0.78140 0.59950 0.26950 0.11100
C 	C 	0.57560 0.72550 0.16960 0.43900
La	La	0.56951 0.88468 0.83098 1.59400
O 	O 	0.87450 0.75743 0.86309 -0.39500
O 	O 	0.57430 0.63892 0.72028 -0.40200
O 	O 	0.40120 0.27570 0.95405 -0.42800
O 	O 	0.30180 0.96602 0.99337 -0.50500
O 	O 	0.50250 0.16820 0.76806 -0.46900
N 	N 	0.43130 0.45700 0.62710 -0.09400
N 	N 	0.02900 0.64710 0.03750 -0.09600
O 	O 	0.28570 0.75400 0.88700 -0.39800
C 	C 	0.08640 0.79490 0.06890 -0.23600
H 	H 	0.98640 0.87460 0.05990 0.09900
H 	H 	0.12760 0.78940 0.16270 0.08300
C 	C 	0.53610 0.57040 0.62010 0.24400
C 	C 	0.38760 0.37570 0.51040 -0.19100
H 	H 	0.42650 0.26530 0.52760 0.05600
H 	H 	0.25830 0.38390 0.50150 0.07000
C 	C 	0.88090 0.48840 0.89080 -0.22100
H 	H 	0.90420 0.48120 0.79380 0.09500
H 	H 	0.75290 0.48480 0.90470 0.11400
C 	C 	0.23400 0.83970 0.97540 0.38100
C 	C 	0.93090 0.64050 0.93040 0.28600
C 	C 	0.34150 0.41740 0.75130 -0.28200
H 	H 	0.33880 0.50600 0.80870 0.14300
H 	H 	0.21860 0.40050 0.73050 0.11100
C 	C 	0.42440 0.27450 0.83040 0.43900
