data_crystal

_cell_length_a 13.20630
_cell_length_b 11.27840
_cell_length_c 15.33340
_cell_angle_alpha 90.00000
_cell_angle_beta  103.85400
_cell_angle_gamma 90.00000

_symmetry_space_group_name_	'P 1'
_symmetry_space_group_name_H-M	'P 1'

loop_
_symmetry_equiv_pos_as_xyz
  x,y,z

loop_
_atom_site_label
_atom_site_type_symbol
_atom_site_fract_x
_atom_site_fract_y
_atom_site_fract_z
_atom_site_charge
Cd	Cd	0.19519 0.82076 0.17910 1.25400
O 	O 	0.30990 0.70020 0.29190 -0.26100
O 	O 	0.13760 0.62420 0.17099 -0.29300
O 	O 	0.32140 0.52510 0.36037 -0.27500
O 	O 	0.16130 0.44460 0.23416 -0.25200
O 	O 	0.00960 0.84400 0.13894 -0.26700
O 	O 	0.86860 0.85670 0.19356 -0.29500
O 	O 	0.12960 0.79590 0.01402 -0.25400
O 	O 	0.17100 0.71330 0.89571 -0.28600
C 	C 	0.28130 0.59600 0.29910 0.22600
C 	C 	0.18460 0.55100 0.22810 0.23100
C 	C 	0.96500 0.84910 0.20140 0.23200
C 	C 	0.19160 0.75240 0.97390 0.23700
Cd	Cd	0.69519 0.32076 0.17910 1.25500
O 	O 	0.80990 0.20020 0.29190 -0.26000
O 	O 	0.63760 0.12420 0.17099 -0.29300
O 	O 	0.82140 0.02510 0.36037 -0.27500
O 	O 	0.66130 0.94460 0.23416 -0.25200
O 	O 	0.50960 0.34400 0.13894 -0.26800
O 	O 	0.36860 0.35670 0.19356 -0.29500
O 	O 	0.62960 0.29590 0.01402 -0.25500
O 	O 	0.67100 0.21330 0.89571 -0.28700
C 	C 	0.78130 0.09600 0.29910 0.22600
C 	C 	0.68460 0.05100 0.22810 0.23100
C 	C 	0.46500 0.34910 0.20140 0.23400
C 	C 	0.69160 0.25240 0.97390 0.24000
Cd	Cd	0.80481 0.82076 0.32090 1.25500
O 	O 	0.69010 0.70020 0.20810 -0.26000
O 	O 	0.86240 0.62420 0.32901 -0.29300
O 	O 	0.67860 0.52510 0.13963 -0.27500
O 	O 	0.83870 0.44460 0.26584 -0.25200
O 	O 	0.99040 0.84400 0.36106 -0.26900
O 	O 	0.13140 0.85670 0.30644 -0.29500
O 	O 	0.87040 0.79590 0.48598 -0.25500
O 	O 	0.82900 0.71330 0.60429 -0.28600
C 	C 	0.71870 0.59600 0.20090 0.22600
C 	C 	0.81540 0.55100 0.27190 0.23000
C 	C 	0.03500 0.84910 0.29860 0.23500
C 	C 	0.80840 0.75240 0.52610 0.23900
Cd	Cd	0.30481 0.32076 0.32090 1.25500
O 	O 	0.19010 0.20020 0.20810 -0.26000
O 	O 	0.36240 0.12420 0.32901 -0.29300
O 	O 	0.17860 0.02510 0.13963 -0.27500
O 	O 	0.33870 0.94460 0.26584 -0.25200
O 	O 	0.49040 0.34400 0.36106 -0.26800
O 	O 	0.63140 0.35670 0.30644 -0.29500
O 	O 	0.37040 0.29590 0.48598 -0.25500
O 	O 	0.32900 0.21330 0.60429 -0.28600
C 	C 	0.21870 0.09600 0.20090 0.22600
C 	C 	0.31540 0.05100 0.27190 0.23100
C 	C 	0.53500 0.34910 0.29860 0.23400
C 	C 	0.30840 0.25240 0.52610 0.23900
Cd	Cd	0.80481 0.17924 0.82090 1.25500
O 	O 	0.69010 0.29980 0.70810 -0.26000
O 	O 	0.86240 0.37580 0.82901 -0.29300
O 	O 	0.67860 0.47490 0.63963 -0.27500
O 	O 	0.83870 0.55540 0.76584 -0.25200
O 	O 	0.99040 0.15600 0.86106 -0.26700
O 	O 	0.13140 0.14330 0.80644 -0.29500
O 	O 	0.87040 0.20410 0.98598 -0.25400
O 	O 	0.82900 0.28670 0.10429 -0.28600
C 	C 	0.71870 0.40400 0.70090 0.22600
C 	C 	0.81540 0.44900 0.77190 0.23100
C 	C 	0.03500 0.15090 0.79860 0.23200
C 	C 	0.80840 0.24760 0.02610 0.23700
Cd	Cd	0.30481 0.67924 0.82090 1.25500
O 	O 	0.19010 0.79980 0.70810 -0.26000
O 	O 	0.36240 0.87580 0.82901 -0.29300
O 	O 	0.17860 0.97490 0.63963 -0.27500
O 	O 	0.33870 0.05540 0.76584 -0.25200
O 	O 	0.49040 0.65600 0.86106 -0.26800
O 	O 	0.63140 0.64330 0.80644 -0.29500
O 	O 	0.37040 0.70410 0.98598 -0.25500
O 	O 	0.32900 0.78670 0.10429 -0.28700
C 	C 	0.21870 0.90400 0.70090 0.22600
C 	C 	0.31540 0.94900 0.77190 0.23100
C 	C 	0.53500 0.65090 0.79860 0.23400
C 	C 	0.30840 0.74760 0.02610 0.24000
Cd	Cd	0.19519 0.17924 0.67910 1.25500
O 	O 	0.30990 0.29980 0.79190 -0.26000
O 	O 	0.13760 0.37580 0.67099 -0.29300
O 	O 	0.32140 0.47490 0.86037 -0.27500
O 	O 	0.16130 0.55540 0.73416 -0.25200
O 	O 	0.00960 0.15600 0.63894 -0.26900
O 	O 	0.86860 0.14330 0.69356 -0.29500
O 	O 	0.12960 0.20410 0.51402 -0.25500
O 	O 	0.17100 0.28670 0.39571 -0.28600
C 	C 	0.28130 0.40400 0.79910 0.22600
C 	C 	0.18460 0.44900 0.72810 0.23000
C 	C 	0.96500 0.15090 0.70140 0.23500
C 	C 	0.19160 0.24760 0.47390 0.23900
Cd	Cd	0.69519 0.67924 0.67910 1.25500
O 	O 	0.80990 0.79980 0.79190 -0.26000
O 	O 	0.63760 0.87580 0.67099 -0.29300
O 	O 	0.82140 0.97490 0.86037 -0.27500
O 	O 	0.66130 0.05540 0.73416 -0.25200
O 	O 	0.50960 0.65600 0.63894 -0.26800
O 	O 	0.36860 0.64330 0.69356 -0.29500
O 	O 	0.62960 0.70410 0.51402 -0.25500
O 	O 	0.67100 0.78670 0.39571 -0.28600
C 	C 	0.78130 0.90400 0.79910 0.22600
C 	C 	0.68460 0.94900 0.72810 0.23100
C 	C 	0.46500 0.65090 0.70140 0.23400
C 	C 	0.69160 0.74760 0.47390 0.23900
