data_crystal

_cell_length_a 6.64670
_cell_length_b 15.29200
_cell_length_c 15.29200
_cell_angle_alpha 62.06220
_cell_angle_beta  81.66940
_cell_angle_gamma 98.33060

_symmetry_space_group_name_	'P 1'
_symmetry_space_group_name_H-M	'P 1'

loop_
_symmetry_equiv_pos_as_xyz
  x,y,z

loop_
_atom_site_label
_atom_site_type_symbol
_atom_site_fract_x
_atom_site_fract_y
_atom_site_fract_z
_atom_site_charge
Zn	Zn	0.61590 0.31374 0.42501 1.21800
Zn	Zn	0.04091 0.42501 0.26125 1.21700
Zn	Zn	0.30216 0.26125 0.31374 1.21800
Zn	Zn	0.38410 0.68626 0.57499 1.21800
Zn	Zn	0.95909 0.57499 0.73875 1.21700
Zn	Zn	0.69784 0.73875 0.68626 1.21800
H 	H 	0.28253 0.44568 0.57426 0.06300
H 	H 	0.85679 0.57426 0.98006 0.06200
H 	H 	0.83685 0.98006 0.44568 0.06300
H 	H 	0.71747 0.55432 0.42574 0.06300
H 	H 	0.14321 0.42574 0.01994 0.06200
H 	H 	0.16315 0.01994 0.55432 0.06300
C 	C 	0.23674 0.39297 0.43485 0.43900
C 	C 	0.11595 0.44559 0.46734 -0.21100
C 	C 	0.94131 0.47304 0.42789 0.18800
C 	C 	0.16778 0.46836 0.54438 -0.08300
C 	C 	0.67159 0.43485 0.17218 0.43800
C 	C 	0.58329 0.46734 0.08707 -0.20900
C 	C 	0.36920 0.42789 0.09907 0.18700
C 	C 	0.71216 0.54438 0.98726 -0.08300
C 	C 	0.84377 0.17218 0.39297 0.44000
C 	C 	0.67036 0.08707 0.44559 -0.21100
C 	C 	0.46827 0.09907 0.47304 0.18800
C 	C 	0.69942 0.98726 0.46836 -0.08300
C 	C 	0.76326 0.60703 0.56515 0.43900
C 	C 	0.88405 0.55441 0.53266 -0.21100
C 	C 	0.05869 0.52696 0.57211 0.18800
C 	C 	0.83222 0.53164 0.45562 -0.08300
C 	C 	0.32841 0.56515 0.82782 0.43800
C 	C 	0.41671 0.53266 0.91293 -0.20900
C 	C 	0.63080 0.57211 0.90093 0.18700
C 	C 	0.28784 0.45562 0.01274 -0.08300
C 	C 	0.15623 0.82782 0.60703 0.44000
C 	C 	0.32964 0.91293 0.55441 -0.21100
C 	C 	0.53173 0.90093 0.52696 0.18800
C 	C 	0.30058 0.01274 0.53164 -0.08300
O 	O 	0.37818 0.35935 0.47917 -0.48100
O 	O 	0.17541 0.36047 0.37838 -0.57700
O 	O 	0.87041 0.43768 0.36649 -0.55600
O 	O 	0.85735 0.47917 0.16148 -0.48000
O 	O 	0.55379 0.37838 0.26115 -0.57600
O 	O 	0.23690 0.36649 0.19583 -0.55700
O 	O 	0.01883 0.16148 0.35935 -0.48200
O 	O 	0.81494 0.26115 0.36047 -0.57600
O 	O 	0.43273 0.19583 0.43768 -0.55600
O 	O 	0.62182 0.64065 0.52083 -0.48100
O 	O 	0.82459 0.63953 0.62162 -0.57700
O 	O 	0.12959 0.56232 0.63351 -0.55600
O 	O 	0.14265 0.52083 0.83852 -0.48000
O 	O 	0.44621 0.62162 0.73885 -0.57600
O 	O 	0.76310 0.63351 0.80417 -0.55700
O 	O 	0.98117 0.83852 0.64065 -0.48200
O 	O 	0.18506 0.73885 0.63953 -0.57600
O 	O 	0.56727 0.80417 0.56232 -0.55600
