data_crystal

_cell_length_a 8.50900
_cell_length_b 13.15300
_cell_length_c 13.99450
_cell_angle_alpha 118.03000
_cell_angle_beta  90.64000
_cell_angle_gamma 90.00000

_symmetry_space_group_name_	'P 1'
_symmetry_space_group_name_H-M	'P 1'

loop_
_symmetry_equiv_pos_as_xyz
  x,y,z

loop_
_atom_site_label
_atom_site_type_symbol
_atom_site_fract_x
_atom_site_fract_y
_atom_site_fract_z
_atom_site_charge
Cu	Cu	0.55381 0.08962 0.58871 0.91700
Cu	Cu	0.94619 0.50091 0.41129 0.91700
Cu	Cu	0.44619 0.91038 0.41129 0.91700
Cu	Cu	0.05381 0.49909 0.58871 0.91700
H 	H 	0.65160 0.34140 0.66260 0.01600
H 	H 	0.80650 0.48790 0.79020 0.09600
H 	H 	0.89700 0.28570 0.93060 0.07800
H 	H 	0.73630 0.14580 0.80060 0.00900
H 	H 	0.97480 0.56710 0.94920 0.05900
H 	H 	0.09610 0.07160 0.72440 0.17100
H 	H 	0.00480 0.08250 0.62900 0.18700
H 	H 	0.90940 0.92040 0.64460 -0.04200
H 	H 	0.98670 0.87880 0.52840 -0.02200
H 	H 	0.13510 0.86890 0.70820 0.17100
H 	H 	0.22550 0.83940 0.59880 0.18200
H 	H 	0.84840 0.67880 0.33740 0.01600
H 	H 	0.69350 0.69770 0.20980 0.09600
H 	H 	0.60300 0.35510 0.06940 0.07800
H 	H 	0.76370 0.34520 0.19940 0.00900
H 	H 	0.52520 0.61790 0.05080 0.05800
H 	H 	0.40390 0.34720 0.27560 0.17100
H 	H 	0.49520 0.45350 0.37100 0.18700
H 	H 	0.59060 0.27580 0.35540 -0.04100
H 	H 	0.51330 0.35040 0.47160 -0.02100
H 	H 	0.36490 0.16070 0.29180 0.17100
H 	H 	0.27450 0.24060 0.40120 0.18200
H 	H 	0.34840 0.65860 0.33740 0.01600
H 	H 	0.19350 0.51210 0.20980 0.09600
H 	H 	0.10300 0.71430 0.06940 0.07800
H 	H 	0.26370 0.85420 0.19940 0.00900
H 	H 	0.02520 0.43290 0.05080 0.05900
H 	H 	0.90390 0.92840 0.27560 0.17100
H 	H 	0.99520 0.91750 0.37100 0.18700
H 	H 	0.09060 0.07960 0.35540 -0.04200
H 	H 	0.01330 0.12120 0.47160 -0.02200
H 	H 	0.86490 0.13110 0.29180 0.17100
H 	H 	0.77450 0.16060 0.40120 0.18200
H 	H 	0.15160 0.32120 0.66260 0.01600
H 	H 	0.30650 0.30230 0.79020 0.09600
H 	H 	0.39700 0.64490 0.93060 0.07800
H 	H 	0.23630 0.65480 0.80060 0.00900
H 	H 	0.47480 0.38210 0.94920 0.05800
H 	H 	0.59610 0.65280 0.72440 0.17100
H 	H 	0.50480 0.54650 0.62900 0.18700
H 	H 	0.40940 0.72420 0.64460 -0.04100
H 	H 	0.48670 0.64960 0.52840 -0.02100
H 	H 	0.63510 0.83930 0.70820 0.17100
H 	H 	0.72550 0.75940 0.59880 0.18200
C 	C 	0.70080 0.33052 0.71842 0.08800
C 	C 	0.79420 0.41814 0.79408 -0.15600
C 	C 	0.86830 0.40486 0.87652 0.11000
C 	C 	0.84610 0.29979 0.87718 -0.15200
C 	C 	0.75050 0.21647 0.79874 0.07500
C 	C 	0.96370 0.49995 0.95770 -0.07900
C 	C 	0.23550 0.03055 0.59188 0.46100
C 	C 	0.07960 0.03463 0.64492 -0.47500
C 	C 	0.00960 0.91413 0.60696 0.25500
C 	C 	0.12170 0.83666 0.62884 -0.47000
C 	C 	0.07100 0.71216 0.58250 0.46400
C 	C 	0.79920 0.61210 0.28158 0.08800
C 	C 	0.70580 0.62406 0.20592 -0.15600
C 	C 	0.63170 0.52834 0.12348 0.10900
C 	C 	0.65390 0.42261 0.12282 -0.15200
C 	C 	0.74950 0.41773 0.20126 0.07500
C 	C 	0.53630 0.54225 0.04230 -0.07900
C 	C 	0.26450 0.43867 0.40812 0.46100
C 	C 	0.42040 0.38971 0.35508 -0.47400
C 	C 	0.49040 0.30717 0.39304 0.25300
C 	C 	0.37830 0.20782 0.37116 -0.47000
C 	C 	0.42900 0.12966 0.41750 0.46400
C 	C 	0.29920 0.66948 0.28158 0.08800
C 	C 	0.20580 0.58186 0.20592 -0.15600
C 	C 	0.13170 0.59514 0.12348 0.11000
C 	C 	0.15390 0.70021 0.12282 -0.15200
C 	C 	0.24950 0.78353 0.20126 0.07500
C 	C 	0.03630 0.50005 0.04230 -0.07900
C 	C 	0.76450 0.96945 0.40812 0.46100
C 	C 	0.92040 0.96537 0.35508 -0.47500
C 	C 	0.99040 0.08587 0.39304 0.25500
C 	C 	0.87830 0.16334 0.37116 -0.47000
C 	C 	0.92900 0.28784 0.41750 0.46400
C 	C 	0.20080 0.38790 0.71842 0.08800
C 	C 	0.29420 0.37594 0.79408 -0.15600
C 	C 	0.36830 0.47166 0.87652 0.10900
C 	C 	0.34610 0.57739 0.87718 -0.15200
C 	C 	0.25050 0.58227 0.79874 0.07500
C 	C 	0.46370 0.45775 0.95770 -0.07900
C 	C 	0.73550 0.56133 0.59188 0.46100
C 	C 	0.57960 0.61029 0.64492 -0.47400
C 	C 	0.50960 0.69283 0.60696 0.25300
C 	C 	0.62170 0.79218 0.62884 -0.47000
C 	C 	0.57100 0.87034 0.58250 0.46400
N 	N 	0.67640 0.23040 0.72034 -0.19300
N 	N 	0.82360 0.51006 0.27966 -0.19300
N 	N 	0.32360 0.76960 0.27966 -0.19300
N 	N 	0.17640 0.48994 0.72034 -0.19300
O 	O 	0.34118 0.10147 0.64834 -0.43500
O 	O 	0.25047 0.95612 0.49524 -0.44000
O 	O 	0.09630 0.66364 0.63976 -0.43900
O 	O 	0.01100 0.66433 0.48904 -0.43500
O 	O 	0.15882 0.45313 0.35166 -0.43400
O 	O 	0.24953 0.46088 0.50476 -0.44100
O 	O 	0.40370 0.02388 0.36024 -0.43900
O 	O 	0.48900 0.17529 0.51096 -0.43600
O 	O 	0.65882 0.89853 0.35166 -0.43500
O 	O 	0.74953 0.04388 0.50476 -0.44000
O 	O 	0.90370 0.33636 0.36024 -0.43900
O 	O 	0.98900 0.33567 0.51096 -0.43500
O 	O 	0.84118 0.54687 0.64834 -0.43400
O 	O 	0.75047 0.53912 0.49524 -0.44100
O 	O 	0.59630 0.97612 0.63976 -0.43900
O 	O 	0.51100 0.82471 0.48904 -0.43600
