data_crystal

_cell_length_a 6.91490
_cell_length_b 22.11300
_cell_length_c 7.72090
_cell_angle_alpha 90.00000
_cell_angle_beta  90.00000
_cell_angle_gamma 90.00000

_symmetry_space_group_name_	'P 1'
_symmetry_space_group_name_H-M	'P 1'

loop_
_symmetry_equiv_pos_as_xyz
  x,y,z

loop_
_atom_site_label
_atom_site_type_symbol
_atom_site_fract_x
_atom_site_fract_y
_atom_site_fract_z
_atom_site_charge
Co	Co	0.54170 0.28748 0.75775 1.18300
Co	Co	0.45830 0.71252 0.75775 1.18300
Co	Co	0.04170 0.21252 0.24225 1.17900
Co	Co	0.95830 0.78748 0.24225 1.17900
H 	H 	0.33710 0.19640 0.86080 0.13200
H 	H 	0.38850 0.18470 0.67540 0.11900
H 	H 	0.55740 0.12540 0.89810 0.03800
H 	H 	0.64790 0.11230 0.61860 0.13400
H 	H 	0.84120 0.12350 0.72640 0.13900
H 	H 	0.49200 0.42420 0.66230 0.01300
H 	H 	0.68060 0.51160 0.63690 0.06600
H 	H 	0.15680 0.41600 0.77340 0.08200
H 	H 	0.96820 0.32860 0.79880 0.01600
H 	H 	0.66290 0.80360 0.86080 0.13200
H 	H 	0.61150 0.81530 0.67540 0.11900
H 	H 	0.44260 0.87460 0.89810 0.03800
H 	H 	0.35210 0.88770 0.61860 0.13400
H 	H 	0.15880 0.87650 0.72640 0.13900
H 	H 	0.50800 0.57580 0.66230 0.01300
H 	H 	0.31940 0.48840 0.63690 0.06600
H 	H 	0.84320 0.58400 0.77340 0.08200
H 	H 	0.03180 0.67140 0.79880 0.01600
H 	H 	0.83710 0.30360 0.13920 0.13300
H 	H 	0.88850 0.31530 0.32460 0.12100
H 	H 	0.05740 0.37460 0.10190 0.03900
H 	H 	0.14790 0.38770 0.38140 0.13300
H 	H 	0.34120 0.37650 0.27360 0.13800
H 	H 	0.99200 0.07580 0.33770 0.02000
H 	H 	0.18060 0.98840 0.36310 0.06400
H 	H 	0.65680 0.08400 0.22660 0.07900
H 	H 	0.46820 0.17140 0.20120 0.01600
H 	H 	0.16290 0.69640 0.13920 0.13300
H 	H 	0.11150 0.68470 0.32460 0.12100
H 	H 	0.94260 0.62540 0.10190 0.03900
H 	H 	0.85210 0.61230 0.38140 0.13300
H 	H 	0.65880 0.62350 0.27360 0.13800
H 	H 	0.00800 0.92420 0.33770 0.02000
H 	H 	0.81940 0.01160 0.36310 0.06400
H 	H 	0.34320 0.91600 0.22660 0.07900
H 	H 	0.53180 0.82860 0.20120 0.01600
C 	C 	0.73130 0.19870 0.95920 0.29700
C 	C 	0.60420 0.16240 0.83640 -0.01000
C 	C 	0.72220 0.14330 0.68300 -0.34800
C 	C 	0.78400 0.19450 0.55040 0.46100
C 	C 	0.62700 0.42260 0.68490 0.05500
C 	C 	0.73900 0.47450 0.66970 -0.11600
C 	C 	0.93650 0.47200 0.70270 0.04900
C 	C 	0.02190 0.41770 0.75080 -0.12600
C 	C 	0.91000 0.36580 0.76600 0.05700
C 	C 	0.26870 0.80130 0.95920 0.29700
C 	C 	0.39580 0.83760 0.83640 -0.01000
C 	C 	0.27780 0.85670 0.68300 -0.34800
C 	C 	0.21600 0.80550 0.55040 0.46100
C 	C 	0.37300 0.57740 0.68490 0.05500
C 	C 	0.26100 0.52550 0.66970 -0.11600
C 	C 	0.06350 0.52800 0.70270 0.04900
C 	C 	0.97810 0.58230 0.75080 -0.12600
C 	C 	0.09000 0.63420 0.76600 0.05700
C 	C 	0.23130 0.30130 0.04080 0.30000
C 	C 	0.10420 0.33760 0.16360 -0.01600
C 	C 	0.22220 0.35670 0.31700 -0.34500
C 	C 	0.28400 0.30550 0.44960 0.45900
C 	C 	0.12700 0.07740 0.31510 0.04400
C 	C 	0.23900 0.02550 0.33030 -0.11000
C 	C 	0.43650 0.02800 0.29730 0.04300
C 	C 	0.52190 0.08230 0.24920 -0.11300
C 	C 	0.41000 0.13420 0.23400 0.04800
C 	C 	0.76870 0.69870 0.04080 0.30000
C 	C 	0.89580 0.66240 0.16360 -0.01600
C 	C 	0.77780 0.64330 0.31700 -0.34500
C 	C 	0.71600 0.69450 0.44960 0.45900
C 	C 	0.87300 0.92260 0.31510 0.04400
C 	C 	0.76100 0.97450 0.33030 -0.11000
C 	C 	0.56350 0.97200 0.29730 0.04300
C 	C 	0.47810 0.91770 0.24920 -0.11300
C 	C 	0.59000 0.86580 0.23400 0.04800
N 	N 	0.43470 0.19830 0.78010 -0.32600
N 	N 	0.71200 0.36820 0.73300 -0.20600
N 	N 	0.56530 0.80170 0.78010 -0.32600
N 	N 	0.28800 0.63180 0.73300 -0.20600
N 	N 	0.93470 0.30170 0.21990 -0.32200
N 	N 	0.21200 0.13180 0.26700 -0.20400
N 	N 	0.06530 0.69830 0.21990 -0.32200
N 	N 	0.78800 0.86820 0.26700 -0.20400
O 	O 	0.84370 0.17080 0.06150 -0.37500
O 	O 	0.70400 0.25510 0.96330 -0.41500
O 	O 	0.74640 0.24700 0.58140 -0.45500
O 	O 	0.88560 0.17290 0.43320 -0.45600
O 	O 	0.15630 0.82920 0.06150 -0.37500
O 	O 	0.29600 0.74490 0.96330 -0.41500
O 	O 	0.25360 0.75300 0.58140 -0.45500
O 	O 	0.11440 0.82710 0.43320 -0.45600
O 	O 	0.34370 0.32920 0.93850 -0.38000
O 	O 	0.20400 0.24490 0.03670 -0.41800
O 	O 	0.24640 0.25300 0.41860 -0.45700
O 	O 	0.38560 0.32710 0.56680 -0.45900
O 	O 	0.65630 0.67080 0.93850 -0.38000
O 	O 	0.79600 0.75510 0.03670 -0.41800
O 	O 	0.75360 0.74700 0.41860 -0.45700
O 	O 	0.61440 0.67290 0.56680 -0.45900
