data_crystal

_cell_length_a 10.66000
_cell_length_b 11.37700
_cell_length_c 12.50900
_cell_angle_alpha 86.24000
_cell_angle_beta  81.85000
_cell_angle_gamma 89.07000

_symmetry_space_group_name_	'P 1'
_symmetry_space_group_name_H-M	'P 1'

loop_
_symmetry_equiv_pos_as_xyz
  x,y,z

loop_
_atom_site_label
_atom_site_type_symbol
_atom_site_fract_x
_atom_site_fract_y
_atom_site_fract_z
_atom_site_charge
O 	O 	0.50300 0.32280 0.64170 -0.35200
O 	O 	0.30740 0.38860 0.63910 -0.34900
C 	C 	0.39650 0.31690 0.61060 0.31400
Dy	Dy	0.57331 0.51408 0.23813 1.62600
Zn	Zn	0.36811 0.16410 0.20067 1.20800
C 	C 	0.62080 0.88550 0.08900 -0.14100
N 	N 	0.35220 0.12650 0.37700 -0.21500
C 	C 	0.30110 0.01350 0.54550 -0.09900
H 	H 	0.27560 0.94240 0.58240 0.07300
C 	C 	0.32720 0.10840 0.60190 0.01600
H 	H 	0.31730 0.10210 0.67710 0.03700
C 	C 	0.38180 0.21790 0.43230 -0.00500
C 	C 	0.36870 0.21450 0.54520 -0.05400
C 	C 	0.16800 0.34790 0.14710 0.06200
H 	H 	0.23700 0.38340 0.10380 -0.00700
C 	C 	0.31340 0.02510 0.43330 0.05700
H 	H 	0.29430 0.96120 0.39590 0.01700
C 	C 	0.08410 0.19510 0.26480 0.05400
H 	H 	0.09460 0.12390 0.30350 0.00400
N 	N 	0.18660 0.24500 0.20420 -0.23700
C 	C 	0.96430 0.24480 0.27220 -0.08800
H 	H 	0.89640 0.20770 0.31560 0.07500
C 	C 	0.05110 0.40170 0.15100 -0.09500
H 	H 	0.04230 0.47250 0.11100 0.08000
O 	O 	0.72270 0.35880 0.28120 -0.36300
N 	N 	0.53990 0.06640 0.16360 -0.22900
C 	C 	0.65980 0.10660 0.15610 0.08400
H 	H 	0.67300 0.18060 0.17980 -0.00300
C 	C 	0.81670 0.40770 0.21980 0.26500
C 	C 	0.38140 0.92010 0.14440 0.27500
C 	C 	0.60000 0.76200 0.05530 0.44500
C 	C 	0.43420 0.32420 0.36190 0.28700
C 	C 	0.51980 0.95760 0.13150 0.01600
C 	C 	0.74360 0.92880 0.08020 0.06800
H 	H 	0.81200 0.88330 0.05170 0.01200
C 	C 	0.94610 0.35050 0.21440 0.00300
C 	C 	0.76390 0.04020 0.11400 -0.13200
H 	H 	0.84560 0.06980 0.10850 0.08500
O 	O 	0.60790 0.68010 0.12600 -0.48100
O 	O 	0.29880 0.99840 0.17480 -0.39300
O 	O 	0.58260 0.74850 0.95890 -0.45500
O 	O 	0.80190 0.50260 0.16410 -0.35600
O 	O 	0.44720 0.31790 0.25910 -0.50800
O 	O 	0.46820 0.41280 0.40480 -0.36000
O 	O 	0.35770 0.81730 0.12510 -0.24200
O 	O 	0.49700 0.67720 0.35830 -0.35100
O 	O 	0.69260 0.61140 0.36090 -0.34800
C 	C 	0.60350 0.68310 0.38940 0.31400
Dy	Dy	0.42669 0.48592 0.76187 1.62600
Zn	Zn	0.63189 0.83590 0.79933 1.20800
C 	C 	0.37920 0.11450 0.91100 -0.14100
N 	N 	0.64780 0.87350 0.62300 -0.21500
C 	C 	0.69890 0.98650 0.45450 -0.09900
H 	H 	0.72440 0.05760 0.41760 0.07300
C 	C 	0.67280 0.89160 0.39810 0.01600
H 	H 	0.68270 0.89790 0.32290 0.03700
C 	C 	0.61820 0.78210 0.56770 -0.00500
C 	C 	0.63130 0.78550 0.45480 -0.05400
C 	C 	0.83200 0.65210 0.85290 0.06200
H 	H 	0.76300 0.61660 0.89620 -0.00700
C 	C 	0.68660 0.97490 0.56670 0.05700
H 	H 	0.70570 0.03880 0.60410 0.01700
C 	C 	0.91590 0.80490 0.73520 0.05400
H 	H 	0.90540 0.87610 0.69650 0.00400
N 	N 	0.81340 0.75500 0.79580 -0.23700
C 	C 	0.03570 0.75520 0.72780 -0.08800
H 	H 	0.10360 0.79230 0.68440 0.07500
C 	C 	0.94890 0.59830 0.84900 -0.09500
H 	H 	0.95770 0.52750 0.88900 0.08000
O 	O 	0.27730 0.64120 0.71880 -0.36300
N 	N 	0.46010 0.93360 0.83640 -0.22900
C 	C 	0.34020 0.89340 0.84390 0.08400
H 	H 	0.32700 0.81940 0.82020 -0.00300
C 	C 	0.18330 0.59230 0.78020 0.26500
C 	C 	0.61860 0.07990 0.85560 0.27500
C 	C 	0.40000 0.23800 0.94470 0.44500
C 	C 	0.56580 0.67580 0.63810 0.28700
C 	C 	0.48020 0.04240 0.86850 0.01600
C 	C 	0.25640 0.07120 0.91980 0.06800
H 	H 	0.18800 0.11670 0.94830 0.01200
C 	C 	0.05390 0.64950 0.78560 0.00300
C 	C 	0.23610 0.95980 0.88600 -0.13200
H 	H 	0.15440 0.93020 0.89150 0.08500
O 	O 	0.39210 0.31990 0.87400 -0.48100
O 	O 	0.70120 0.00160 0.82520 -0.39300
O 	O 	0.41740 0.25150 0.04110 -0.45500
O 	O 	0.19810 0.49740 0.83590 -0.35600
O 	O 	0.55280 0.68210 0.74090 -0.50800
O 	O 	0.53180 0.58720 0.59520 -0.36000
O 	O 	0.64230 0.18270 0.87490 -0.24200
