data_crystal

_cell_length_a 8.33280
_cell_length_b 17.50890
_cell_length_c 7.93840
_cell_angle_alpha 90.00000
_cell_angle_beta  109.24700
_cell_angle_gamma 90.00000

_symmetry_space_group_name_	'P 1'
_symmetry_space_group_name_H-M	'P 1'

loop_
_symmetry_equiv_pos_as_xyz
  x,y,z

loop_
_atom_site_label
_atom_site_type_symbol
_atom_site_fract_x
_atom_site_fract_y
_atom_site_fract_z
_atom_site_charge
Sm	Sm	0.28088 0.52218 0.25680 2.00900
N 	N 	0.96800 0.76510 0.11000 -0.05200
N 	N 	0.87630 0.82910 0.07790 -0.13100
H 	H 	0.90930 0.87260 0.12780 0.06900
O 	O 	0.08520 0.61860 0.12480 -0.54800
O 	O 	0.84820 0.58110 0.92290 -0.57600
O 	O 	0.61500 0.93590 0.99780 -0.58400
O 	O 	0.46920 0.86820 0.76340 -0.45100
O 	O 	0.52130 0.45800 0.20460 -0.43200
O 	O 	0.70010 0.45710 0.04710 -0.40700
C 	C 	0.93890 0.62970 0.01760 0.52900
C 	C 	0.87290 0.70850 0.00980 -0.11000
C 	C 	0.71520 0.73900 0.90990 0.05900
H 	H 	0.62420 0.71310 0.83010 0.02100
C 	C 	0.72270 0.81480 0.95410 -0.07400
C 	C 	0.59370 0.87650 0.90220 0.40200
C 	C 	0.56520 0.47490 0.07200 0.27300
Sm	Sm	0.71912 0.02218 0.24320 2.00600
N 	N 	0.03200 0.26510 0.39000 -0.04900
N 	N 	0.12370 0.32910 0.42210 -0.13100
H 	H 	0.09070 0.37260 0.37220 0.06900
O 	O 	0.91480 0.11860 0.37520 -0.55600
O 	O 	0.15180 0.08110 0.57710 -0.58000
O 	O 	0.38500 0.43590 0.50220 -0.58500
O 	O 	0.53080 0.36820 0.73660 -0.45100
O 	O 	0.47870 0.95800 0.29540 -0.43000
O 	O 	0.29990 0.95710 0.45290 -0.40400
C 	C 	0.06110 0.12970 0.48240 0.54300
C 	C 	0.12710 0.20850 0.49020 -0.11000
C 	C 	0.28480 0.23900 0.59010 0.05800
H 	H 	0.37580 0.21310 0.66990 0.02200
C 	C 	0.27730 0.31480 0.54590 -0.07500
C 	C 	0.40630 0.37650 0.59780 0.40200
C 	C 	0.43480 0.97490 0.42800 0.27300
Sm	Sm	0.71912 0.47782 0.74320 2.01000
N 	N 	0.03200 0.23490 0.89000 -0.05100
N 	N 	0.12370 0.17090 0.92210 -0.13100
H 	H 	0.09070 0.12740 0.87220 0.06900
O 	O 	0.91480 0.38140 0.87520 -0.54800
O 	O 	0.15180 0.41890 0.07710 -0.57600
O 	O 	0.38500 0.06410 0.00220 -0.58400
O 	O 	0.53080 0.13180 0.23660 -0.45100
O 	O 	0.47870 0.54200 0.79540 -0.43200
O 	O 	0.29990 0.54290 0.95290 -0.40700
C 	C 	0.06110 0.37030 0.98240 0.52900
C 	C 	0.12710 0.29150 0.99020 -0.11000
C 	C 	0.28480 0.26100 0.09010 0.05900
H 	H 	0.37580 0.28690 0.16990 0.02100
C 	C 	0.27730 0.18520 0.04590 -0.07400
C 	C 	0.40630 0.12350 0.09780 0.40200
C 	C 	0.43480 0.52510 0.92800 0.27300
Sm	Sm	0.28088 0.97782 0.75680 2.00600
N 	N 	0.96800 0.73490 0.61000 -0.04900
N 	N 	0.87630 0.67090 0.57790 -0.13100
H 	H 	0.90930 0.62740 0.62780 0.06900
O 	O 	0.08520 0.88140 0.62480 -0.55600
O 	O 	0.84820 0.91890 0.42290 -0.58000
O 	O 	0.61500 0.56410 0.49780 -0.58500
O 	O 	0.46920 0.63180 0.26340 -0.45100
O 	O 	0.52130 0.04200 0.70460 -0.43000
O 	O 	0.70010 0.04290 0.54710 -0.40400
C 	C 	0.93890 0.87030 0.51760 0.54300
C 	C 	0.87290 0.79150 0.50980 -0.11000
C 	C 	0.71520 0.76100 0.40990 0.05800
H 	H 	0.62420 0.78690 0.33010 0.02200
C 	C 	0.72270 0.68520 0.45410 -0.07500
C 	C 	0.59370 0.62350 0.40220 0.40200
C 	C 	0.56520 0.02510 0.57200 0.27300
