data_crystal

_cell_length_a 8.29830
_cell_length_b 17.36520
_cell_length_c 7.83470
_cell_angle_alpha 90.00000
_cell_angle_beta  108.51000
_cell_angle_gamma 90.00000

_symmetry_space_group_name_	'P 1'
_symmetry_space_group_name_H-M	'P 1'

loop_
_symmetry_equiv_pos_as_xyz
  x,y,z

loop_
_atom_site_label
_atom_site_type_symbol
_atom_site_fract_x
_atom_site_fract_y
_atom_site_fract_z
_atom_site_charge
Dy	Dy	0.22284 0.47759 0.24840 1.80300
N 	N 	0.52940 0.23480 0.39100 -0.13300
H 	H 	0.42680 0.23970 0.32020 0.11800
N 	N 	0.61830 0.16980 0.42180 -0.07400
O 	O 	0.41150 0.38220 0.37800 -0.51900
O 	O 	0.65410 0.42090 0.57270 -0.53800
O 	O 	0.02650 0.12720 0.72750 -0.44400
O 	O 	0.87230 0.06170 0.49180 -0.53300
O 	O 	0.98310 0.54180 0.29370 -0.40200
O 	O 	0.80300 0.54580 0.45390 -0.37600
C 	C 	0.56160 0.37160 0.48220 0.49600
C 	C 	0.62560 0.29150 0.48820 -0.07800
C 	C 	0.78180 0.26130 0.58650 0.04900
H 	H 	0.87300 0.28770 0.66490 0.02800
C 	C 	0.77430 0.18380 0.54430 -0.08500
C 	C 	0.89900 0.12120 0.59000 0.41800
C 	C 	0.93820 0.52590 0.42810 0.26700
Dy	Dy	0.77716 0.97759 0.25160 1.79300
N 	N 	0.47060 0.73480 0.10900 -0.13200
H 	H 	0.57320 0.73970 0.17980 0.11800
N 	N 	0.38170 0.66980 0.07820 -0.07500
O 	O 	0.58850 0.88220 0.12200 -0.51700
O 	O 	0.34590 0.92090 0.92730 -0.53000
O 	O 	0.97350 0.62720 0.77250 -0.43800
O 	O 	0.12770 0.56170 0.00820 -0.53300
O 	O 	0.01690 0.04180 0.20630 -0.39900
O 	O 	0.19700 0.04580 0.04610 -0.37200
C 	C 	0.43840 0.87160 0.01780 0.48900
C 	C 	0.37440 0.79150 0.01180 -0.07800
C 	C 	0.21820 0.76130 0.91350 0.04900
H 	H 	0.12700 0.78770 0.83510 0.02800
C 	C 	0.22570 0.68380 0.95570 -0.08300
C 	C 	0.10100 0.62120 0.91000 0.41100
C 	C 	0.06180 0.02590 0.07190 0.26800
Dy	Dy	0.77716 0.52241 0.75160 1.80400
N 	N 	0.47060 0.76520 0.60900 -0.13200
H 	H 	0.57320 0.76030 0.67980 0.11900
N 	N 	0.38170 0.83020 0.57820 -0.07300
O 	O 	0.58850 0.61780 0.62200 -0.51800
O 	O 	0.34590 0.57910 0.42730 -0.53700
O 	O 	0.97350 0.87280 0.27250 -0.44300
O 	O 	0.12770 0.93830 0.50820 -0.53200
O 	O 	0.01690 0.45820 0.70630 -0.40200
O 	O 	0.19700 0.45420 0.54610 -0.37600
C 	C 	0.43840 0.62840 0.51780 0.49600
C 	C 	0.37440 0.70850 0.51180 -0.07800
C 	C 	0.21820 0.73870 0.41350 0.04900
H 	H 	0.12700 0.71230 0.33510 0.02800
C 	C 	0.22570 0.81620 0.45570 -0.08500
C 	C 	0.10100 0.87880 0.41000 0.41800
C 	C 	0.06180 0.47410 0.57190 0.26700
Dy	Dy	0.22284 0.02241 0.74840 1.79300
N 	N 	0.52940 0.26520 0.89100 -0.13200
H 	H 	0.42680 0.26030 0.82020 0.11800
N 	N 	0.61830 0.33020 0.92180 -0.07500
O 	O 	0.41150 0.11780 0.87800 -0.51700
O 	O 	0.65410 0.07910 0.07270 -0.53000
O 	O 	0.02650 0.37280 0.22750 -0.43800
O 	O 	0.87230 0.43830 0.99180 -0.53300
O 	O 	0.98310 0.95820 0.79370 -0.39900
O 	O 	0.80300 0.95420 0.95390 -0.37200
C 	C 	0.56160 0.12840 0.98220 0.48900
C 	C 	0.62560 0.20850 0.98820 -0.07800
C 	C 	0.78180 0.23870 0.08650 0.04900
H 	H 	0.87300 0.21230 0.16490 0.02800
C 	C 	0.77430 0.31620 0.04430 -0.08300
C 	C 	0.89900 0.37880 0.09000 0.41100
C 	C 	0.93820 0.97410 0.92810 0.26800
