data_crystal

_cell_length_a 21.64610
_cell_length_b 11.57920
_cell_length_c 19.70160
_cell_angle_alpha 90.00000
_cell_angle_beta  93.86600
_cell_angle_gamma 90.00000

_symmetry_space_group_name_	'P 1'
_symmetry_space_group_name_H-M	'P 1'

loop_
_symmetry_equiv_pos_as_xyz
  x,y,z

loop_
_atom_site_label
_atom_site_type_symbol
_atom_site_fract_x
_atom_site_fract_y
_atom_site_fract_z
_atom_site_charge
Co	Co	0.15118 0.34623 0.68016 1.17900
Co	Co	0.06187 0.19230 0.55659 1.14200
N 	N 	0.38300 0.28550 0.45280 -0.23700
H 	H 	0.39580 0.29390 0.49580 0.12700
N 	N 	0.78440 0.45700 0.63650 -0.23400
H 	H 	0.75420 0.47370 0.66270 0.12600
N 	N 	0.17660 0.52420 0.69440 -0.22300
N 	N 	0.11360 0.05720 0.51390 -0.24700
O 	O 	0.19972 0.34000 0.59496 -0.41600
O 	O 	0.11704 0.31810 0.52230 -0.44400
O 	O 	0.14180 0.18240 0.28841 -0.35500
O 	O 	0.23155 0.20560 0.24488 -0.35000
O 	O 	0.41520 0.29000 0.34330 -0.14500
O 	O 	0.80415 0.40130 0.53060 -0.23600
O 	O 	0.00088 0.30720 0.59580 -0.44200
O 	O 	0.06293 0.40360 0.67065 -0.44600
O 	O 	0.96670 0.57920 0.86660 -0.39900
O 	O 	0.87912 0.67190 0.84627 -0.48700
C 	C 	0.17460 0.32070 0.53660 0.34100
C 	C 	0.19830 0.20670 0.29500 0.26900
C 	C 	0.21590 0.29650 0.47940 -0.03900
C 	C 	0.18920 0.26400 0.41640 -0.02600
H 	H 	0.14540 0.25840 0.40900 0.05800
C 	C 	0.22720 0.23990 0.36400 -0.01400
C 	C 	0.29110 0.24680 0.37400 -0.11600
H 	H 	0.31640 0.23040 0.33770 0.11400
C 	C 	0.31800 0.27790 0.43790 0.14000
C 	C 	0.28010 0.30200 0.49040 -0.10100
H 	H 	0.29820 0.32240 0.53400 0.08300
C 	C 	0.42710 0.28120 0.40780 0.23200
C 	C 	0.49340 0.29670 0.43580 -0.03500
C 	C 	0.53890 0.26690 0.39160 -0.01500
H 	H 	0.52720 0.23620 0.34790 0.05800
C 	C 	0.60060 0.28210 0.41160 -0.06900
H 	H 	0.63120 0.25850 0.38210 0.05700
C 	C 	0.61910 0.33160 0.47430 0.02300
C 	C 	0.68150 0.35300 0.49560 -0.05100
H 	H 	0.71270 0.33110 0.46650 0.05900
C 	C 	0.69870 0.40420 0.55650 -0.04600
C 	C 	0.65280 0.43900 0.59790 -0.00200
H 	H 	0.66420 0.47530 0.64020 0.03400
C 	C 	0.59190 0.42190 0.57910 -0.08100
H 	H 	0.56150 0.44850 0.60790 0.06700
C 	C 	0.57270 0.36580 0.51770 0.03100
C 	C 	0.50990 0.34760 0.49540 -0.06100
H 	H 	0.47850 0.37230 0.52350 0.05100
C 	C 	0.76740 0.42090 0.57340 0.22400
C 	C 	0.84550 0.47130 0.66580 0.11900
C 	C 	0.89750 0.42100 0.63830 -0.07800
H 	H 	0.89300 0.37930 0.59670 0.09000
C 	C 	0.95550 0.43260 0.67240 -0.06500
C 	C 	0.96260 0.49310 0.73330 0.00400
H 	H 	0.00260 0.50080 0.75600 0.05600
C 	C 	0.91170 0.54220 0.76100 -0.05900
C 	C 	0.85350 0.53290 0.72680 -0.08400
H 	H 	0.81880 0.56880 0.74510 0.07000
C 	C 	0.01090 0.37520 0.64400 0.38900
C 	C 	0.91980 0.60200 0.82790 0.32400
C 	C 	0.19760 0.58950 0.64640 0.08500
H 	H 	0.20570 0.55330 0.60460 0.01800
C 	C 	0.20880 0.70550 0.65210 -0.13100
H 	H 	0.22040 0.74920 0.61410 0.07800
C 	C 	0.20290 0.75710 0.71400 0.06000
H 	H 	0.21780 0.83300 0.72340 0.01100
C 	C 	0.17440 0.69390 0.76140 -0.13000
H 	H 	0.16270 0.72960 0.80210 0.07900
C 	C 	0.16260 0.57870 0.75020 0.08400
H 	H 	0.14340 0.53610 0.78430 0.00700
C 	C 	0.08800 0.99340 0.46130 0.06000
H 	H 	0.04720 0.01270 0.44410 -0.01900
C 	C 	0.11730 0.90220 0.43110 -0.12900
H 	H 	0.09730 0.85980 0.39460 0.08100
C 	C 	0.17600 0.87580 0.45580 0.05500
H 	H 	0.19710 0.81210 0.43770 0.02200
C 	C 	0.20510 0.94280 0.50780 -0.13500
H 	H 	0.24700 0.93050 0.52370 0.07900
C 	C 	0.16890 0.02830 0.53490 0.09500
H 	H 	0.18690 0.06960 0.57290 -0.00400
O 	O 	0.41920 0.20900 0.35690 -0.13000
Co	Co	0.84882 0.84623 0.81984 1.17900
Co	Co	0.93813 0.69230 0.94341 1.14300
N 	N 	0.61700 0.78550 0.04720 -0.23600
H 	H 	0.60420 0.79390 0.00420 0.12800
N 	N 	0.21560 0.95700 0.86350 -0.23400
H 	H 	0.24580 0.97370 0.83730 0.12600
N 	N 	0.82340 0.02420 0.80560 -0.22200
N 	N 	0.88640 0.55720 0.98610 -0.24800
O 	O 	0.80028 0.84000 0.90504 -0.41600
O 	O 	0.88296 0.81810 0.97770 -0.44400
O 	O 	0.85820 0.68240 0.21159 -0.35500
O 	O 	0.76845 0.70560 0.25512 -0.35000
O 	O 	0.58480 0.79000 0.15670 -0.14500
O 	O 	0.19585 0.90130 0.96940 -0.23600
O 	O 	0.99912 0.80720 0.90420 -0.44200
O 	O 	0.93707 0.90360 0.82935 -0.44600
O 	O 	0.03330 0.07920 0.63340 -0.39900
O 	O 	0.12088 0.17190 0.65373 -0.48700
C 	C 	0.82540 0.82070 0.96340 0.34000
C 	C 	0.80170 0.70670 0.20500 0.26900
C 	C 	0.78410 0.79650 0.02060 -0.03900
C 	C 	0.81080 0.76400 0.08360 -0.02700
H 	H 	0.85460 0.75840 0.09100 0.05800
C 	C 	0.77280 0.73990 0.13600 -0.01400
C 	C 	0.70890 0.74680 0.12600 -0.11600
H 	H 	0.68360 0.73040 0.16230 0.11400
C 	C 	0.68200 0.77790 0.06210 0.14000
C 	C 	0.71990 0.80200 0.00960 -0.10000
H 	H 	0.70180 0.82240 0.96600 0.08200
C 	C 	0.57290 0.78120 0.09220 0.23300
C 	C 	0.50660 0.79670 0.06420 -0.03700
C 	C 	0.46110 0.76690 0.10840 -0.01300
H 	H 	0.47280 0.73620 0.15210 0.05800
C 	C 	0.39940 0.78210 0.08840 -0.07000
H 	H 	0.36880 0.75850 0.11790 0.05700
C 	C 	0.38090 0.83160 0.02570 0.02400
C 	C 	0.31850 0.85300 0.00440 -0.05200
H 	H 	0.28730 0.83110 0.03350 0.05900
C 	C 	0.30130 0.90420 0.94350 -0.04600
C 	C 	0.34720 0.93900 0.90210 -0.00300
H 	H 	0.33580 0.97530 0.85980 0.03400
C 	C 	0.40810 0.92190 0.92090 -0.07900
H 	H 	0.43850 0.94850 0.89210 0.06600
C 	C 	0.42730 0.86580 0.98230 0.02800
C 	C 	0.49010 0.84760 0.00460 -0.05800
H 	H 	0.52150 0.87230 0.97650 0.04900
C 	C 	0.23260 0.92090 0.92660 0.22400
C 	C 	0.15450 0.97130 0.83420 0.11800
C 	C 	0.10250 0.92100 0.86170 -0.07800
H 	H 	0.10700 0.87930 0.90330 0.09000
C 	C 	0.04450 0.93260 0.82760 -0.06500
C 	C 	0.03740 0.99310 0.76670 0.00400
H 	H 	0.99740 0.00080 0.74400 0.05600
C 	C 	0.08830 0.04220 0.73900 -0.05900
C 	C 	0.14650 0.03290 0.77320 -0.08400
H 	H 	0.18120 0.06880 0.75490 0.07000
C 	C 	0.98910 0.87520 0.85600 0.38800
C 	C 	0.08020 0.10200 0.67210 0.32400
C 	C 	0.80240 0.08950 0.85360 0.08500
H 	H 	0.79430 0.05330 0.89540 0.01800
C 	C 	0.79120 0.20550 0.84790 -0.13100
H 	H 	0.77960 0.24920 0.88590 0.07800
C 	C 	0.79710 0.25710 0.78600 0.06000
H 	H 	0.78220 0.33300 0.77660 0.01100
C 	C 	0.82560 0.19390 0.73860 -0.13000
H 	H 	0.83730 0.22960 0.69790 0.07900
C 	C 	0.83740 0.07870 0.74980 0.08400
H 	H 	0.85660 0.03610 0.71570 0.00700
C 	C 	0.91200 0.49340 0.03870 0.06000
H 	H 	0.95280 0.51270 0.05590 -0.01900
C 	C 	0.88270 0.40220 0.06890 -0.12900
H 	H 	0.90270 0.35980 0.10540 0.08200
C 	C 	0.82400 0.37580 0.04420 0.05500
H 	H 	0.80290 0.31210 0.06230 0.02200
C 	C 	0.79490 0.44280 0.99220 -0.13600
H 	H 	0.75300 0.43050 0.97630 0.07900
C 	C 	0.83110 0.52830 0.96510 0.09600
H 	H 	0.81310 0.56960 0.92710 -0.00400
O 	O 	0.58080 0.70900 0.14310 -0.13000
Co	Co	0.84882 0.65377 0.31984 1.18000
Co	Co	0.93813 0.80770 0.44341 1.14300
N 	N 	0.61700 0.71450 0.54720 -0.23600
H 	H 	0.60420 0.70610 0.50420 0.12800
N 	N 	0.21560 0.54300 0.36350 -0.23400
H 	H 	0.24580 0.52630 0.33730 0.12600
N 	N 	0.82340 0.47580 0.30560 -0.22300
N 	N 	0.88640 0.94280 0.48610 -0.24700
O 	O 	0.80028 0.66000 0.40504 -0.41600
O 	O 	0.88296 0.68190 0.47770 -0.44400
O 	O 	0.85820 0.81760 0.71159 -0.35500
O 	O 	0.76845 0.79440 0.75512 -0.35000
O 	O 	0.58480 0.71000 0.65670 -0.14500
O 	O 	0.19585 0.59870 0.46940 -0.23600
O 	O 	0.99912 0.69280 0.40420 -0.44200
O 	O 	0.93707 0.59640 0.32935 -0.44600
O 	O 	0.03330 0.42080 0.13340 -0.39900
O 	O 	0.12088 0.32810 0.15373 -0.48700
C 	C 	0.82540 0.67930 0.46340 0.34100
C 	C 	0.80170 0.79330 0.70500 0.26900
C 	C 	0.78410 0.70350 0.52060 -0.03900
C 	C 	0.81080 0.73600 0.58360 -0.02600
H 	H 	0.85460 0.74160 0.59100 0.05800
C 	C 	0.77280 0.76010 0.63600 -0.01400
C 	C 	0.70890 0.75320 0.62600 -0.11600
H 	H 	0.68360 0.76960 0.66230 0.11400
C 	C 	0.68200 0.72210 0.56210 0.14000
C 	C 	0.71990 0.69800 0.50960 -0.10100
H 	H 	0.70180 0.67760 0.46600 0.08300
C 	C 	0.57290 0.71880 0.59220 0.23200
C 	C 	0.50660 0.70330 0.56420 -0.03500
C 	C 	0.46110 0.73310 0.60840 -0.01500
H 	H 	0.47280 0.76380 0.65210 0.05800
C 	C 	0.39940 0.71790 0.58840 -0.06900
H 	H 	0.36880 0.74150 0.61790 0.05700
C 	C 	0.38090 0.66840 0.52570 0.02300
C 	C 	0.31850 0.64700 0.50440 -0.05100
H 	H 	0.28730 0.66890 0.53350 0.05900
C 	C 	0.30130 0.59580 0.44350 -0.04600
C 	C 	0.34720 0.56100 0.40210 -0.00200
H 	H 	0.33580 0.52470 0.35980 0.03400
C 	C 	0.40810 0.57810 0.42090 -0.08100
H 	H 	0.43850 0.55150 0.39210 0.06700
C 	C 	0.42730 0.63420 0.48230 0.03100
C 	C 	0.49010 0.65240 0.50460 -0.06100
H 	H 	0.52150 0.62770 0.47650 0.05100
C 	C 	0.23260 0.57910 0.42660 0.22400
C 	C 	0.15450 0.52870 0.33420 0.11900
C 	C 	0.10250 0.57900 0.36170 -0.07800
H 	H 	0.10700 0.62070 0.40330 0.09000
C 	C 	0.04450 0.56740 0.32760 -0.06500
C 	C 	0.03740 0.50690 0.26670 0.00400
H 	H 	0.99740 0.49920 0.24400 0.05600
C 	C 	0.08830 0.45780 0.23900 -0.05900
C 	C 	0.14650 0.46710 0.27320 -0.08400
H 	H 	0.18120 0.43120 0.25490 0.07000
C 	C 	0.98910 0.62480 0.35600 0.38900
C 	C 	0.08020 0.39800 0.17210 0.32400
C 	C 	0.80240 0.41050 0.35360 0.08500
H 	H 	0.79430 0.44670 0.39540 0.01800
C 	C 	0.79120 0.29450 0.34790 -0.13100
H 	H 	0.77960 0.25080 0.38590 0.07800
C 	C 	0.79710 0.24290 0.28600 0.06000
H 	H 	0.78220 0.16700 0.27660 0.01100
C 	C 	0.82560 0.30610 0.23860 -0.13000
H 	H 	0.83730 0.27040 0.19790 0.07900
C 	C 	0.83740 0.42130 0.24980 0.08400
H 	H 	0.85660 0.46390 0.21570 0.00700
C 	C 	0.91200 0.00660 0.53870 0.06000
H 	H 	0.95280 0.98730 0.55590 -0.01900
C 	C 	0.88270 0.09780 0.56890 -0.12900
H 	H 	0.90270 0.14020 0.60540 0.08100
C 	C 	0.82400 0.12420 0.54420 0.05500
H 	H 	0.80290 0.18790 0.56230 0.02200
C 	C 	0.79490 0.05720 0.49220 -0.13500
H 	H 	0.75300 0.06950 0.47630 0.07900
C 	C 	0.83110 0.97170 0.46510 0.09500
H 	H 	0.81310 0.93040 0.42710 -0.00400
O 	O 	0.58080 0.79100 0.64310 -0.13000
Co	Co	0.15118 0.15377 0.18016 1.17900
Co	Co	0.06187 0.30770 0.05659 1.14300
N 	N 	0.38300 0.21450 0.95280 -0.23600
H 	H 	0.39580 0.20610 0.99580 0.12800
N 	N 	0.78440 0.04300 0.13650 -0.23400
H 	H 	0.75420 0.02630 0.16270 0.12600
N 	N 	0.17660 0.97580 0.19440 -0.22200
N 	N 	0.11360 0.44280 0.01390 -0.24800
O 	O 	0.19972 0.16000 0.09496 -0.41600
O 	O 	0.11704 0.18190 0.02230 -0.44400
O 	O 	0.14180 0.31760 0.78841 -0.35500
O 	O 	0.23155 0.29440 0.74488 -0.35000
O 	O 	0.41520 0.21000 0.84330 -0.14500
O 	O 	0.80415 0.09870 0.03060 -0.23600
O 	O 	0.00088 0.19280 0.09580 -0.44200
O 	O 	0.06293 0.09640 0.17065 -0.44600
O 	O 	0.96670 0.92080 0.36660 -0.39900
O 	O 	0.87912 0.82810 0.34627 -0.48700
C 	C 	0.17460 0.17930 0.03660 0.34000
C 	C 	0.19830 0.29330 0.79500 0.26900
C 	C 	0.21590 0.20350 0.97940 -0.03900
C 	C 	0.18920 0.23600 0.91640 -0.02700
H 	H 	0.14540 0.24160 0.90900 0.05800
C 	C 	0.22720 0.26010 0.86400 -0.01400
C 	C 	0.29110 0.25320 0.87400 -0.11600
H 	H 	0.31640 0.26960 0.83770 0.11400
C 	C 	0.31800 0.22210 0.93790 0.14000
C 	C 	0.28010 0.19800 0.99040 -0.10000
H 	H 	0.29820 0.17760 0.03400 0.08200
C 	C 	0.42710 0.21880 0.90780 0.23300
C 	C 	0.49340 0.20330 0.93580 -0.03700
C 	C 	0.53890 0.23310 0.89160 -0.01300
H 	H 	0.52720 0.26380 0.84790 0.05800
C 	C 	0.60060 0.21790 0.91160 -0.07000
H 	H 	0.63120 0.24150 0.88210 0.05700
C 	C 	0.61910 0.16840 0.97430 0.02400
C 	C 	0.68150 0.14700 0.99560 -0.05200
H 	H 	0.71270 0.16890 0.96650 0.05900
C 	C 	0.69870 0.09580 0.05650 -0.04600
C 	C 	0.65280 0.06100 0.09790 -0.00300
H 	H 	0.66420 0.02470 0.14020 0.03400
C 	C 	0.59190 0.07810 0.07910 -0.07900
H 	H 	0.56150 0.05150 0.10790 0.06600
C 	C 	0.57270 0.13420 0.01770 0.02800
C 	C 	0.50990 0.15240 0.99540 -0.05800
H 	H 	0.47850 0.12770 0.02350 0.04900
C 	C 	0.76740 0.07910 0.07340 0.22400
C 	C 	0.84550 0.02870 0.16580 0.11800
C 	C 	0.89750 0.07900 0.13830 -0.07800
H 	H 	0.89300 0.12070 0.09670 0.09000
C 	C 	0.95550 0.06740 0.17240 -0.06500
C 	C 	0.96260 0.00690 0.23330 0.00400
H 	H 	0.00260 0.99920 0.25600 0.05600
C 	C 	0.91170 0.95780 0.26100 -0.05900
C 	C 	0.85350 0.96710 0.22680 -0.08400
H 	H 	0.81880 0.93120 0.24510 0.07000
C 	C 	0.01090 0.12480 0.14400 0.38800
C 	C 	0.91980 0.89800 0.32790 0.32400
C 	C 	0.19760 0.91050 0.14640 0.08500
H 	H 	0.20570 0.94670 0.10460 0.01800
C 	C 	0.20880 0.79450 0.15210 -0.13100
H 	H 	0.22040 0.75080 0.11410 0.07800
C 	C 	0.20290 0.74290 0.21400 0.06000
H 	H 	0.21780 0.66700 0.22340 0.01100
C 	C 	0.17440 0.80610 0.26140 -0.13000
H 	H 	0.16270 0.77040 0.30210 0.07900
C 	C 	0.16260 0.92130 0.25020 0.08400
H 	H 	0.14340 0.96390 0.28430 0.00700
C 	C 	0.08800 0.50660 0.96130 0.06000
H 	H 	0.04720 0.48730 0.94410 -0.01900
C 	C 	0.11730 0.59780 0.93110 -0.12900
H 	H 	0.09730 0.64020 0.89460 0.08200
C 	C 	0.17600 0.62420 0.95580 0.05500
H 	H 	0.19710 0.68790 0.93770 0.02200
C 	C 	0.20510 0.55720 0.00780 -0.13600
H 	H 	0.24700 0.56950 0.02370 0.07900
C 	C 	0.16890 0.47170 0.03490 0.09600
H 	H 	0.18690 0.43040 0.07290 -0.00400
O 	O 	0.41920 0.29100 0.85690 -0.13000
