data_crystal

_cell_length_a 7.85900
_cell_length_b 13.25300
_cell_length_c 17.45200
_cell_angle_alpha 90.00000
_cell_angle_beta  105.25800
_cell_angle_gamma 90.00000

_symmetry_space_group_name_	'P 1'
_symmetry_space_group_name_H-M	'P 1'

loop_
_symmetry_equiv_pos_as_xyz
  x,y,z

loop_
_atom_site_label
_atom_site_type_symbol
_atom_site_fract_x
_atom_site_fract_y
_atom_site_fract_z
_atom_site_charge
Cu	Cu	0.72744 0.60358 0.55339 0.92800
O 	O 	0.83000 0.50350 0.49760 -0.63300
H 	H 	0.74620 0.44940 0.47570 0.21200
N 	N 	0.69090 0.69240 0.45550 -0.17800
C 	C 	0.77530 0.42620 0.65970 0.38100
Cu	Cu	0.95180 0.55050 0.42103 0.92100
O 	O 	0.91610 0.39380 0.64770 -0.41300
N 	N 	0.80890 0.68040 0.40970 -0.17900
C 	C 	0.70840 0.36760 0.71920 -0.09900
O 	O 	0.69000 0.50130 0.62860 -0.42000
N 	N 	0.65760 0.81670 0.37320 -0.09400
C 	C 	0.54770 0.39240 0.73400 0.00800
H 	H 	0.48120 0.44570 0.70700 0.04100
O 	O 	0.00610 0.17700 0.90710 -0.36200
N 	N 	0.59800 0.90600 0.33360 -0.25000
H 	H 	0.51950 0.94180 0.34700 0.15100
H 	H 	0.64150 0.92580 0.29570 0.15400
C 	C 	0.48730 0.33770 0.78880 -0.05100
H 	H 	0.37900 0.35370 0.79780 0.06600
O 	O 	0.82160 0.06070 0.83930 -0.36400
C 	C 	0.58700 0.25820 0.83120 -0.02500
O 	O 	0.62710 0.16050 0.94880 -0.31800
C 	C 	0.52140 0.20230 0.89240 0.31300
O 	O 	0.35510 0.20390 0.88380 -0.36500
C 	C 	0.74750 0.23490 0.81650 -0.06000
C 	C 	0.86750 0.15110 0.85890 0.33400
C 	C 	0.80720 0.28860 0.76040 0.02800
H 	H 	0.91410 0.27160 0.75040 0.04600
C 	C 	0.78760 0.75780 0.36190 0.10400
H 	H 	0.85280 0.77020 0.32550 0.01300
C 	C 	0.60220 0.77570 0.43310 0.10200
H 	H 	0.51580 0.80220 0.45490 0.01200
Cu	Cu	0.27256 0.10358 0.94661 0.92700
O 	O 	0.17000 0.00350 0.00240 -0.63400
H 	H 	0.25380 0.94940 0.02430 0.21000
N 	N 	0.30910 0.19240 0.04450 -0.17900
C 	C 	0.22470 0.92620 0.84030 0.38300
Cu	Cu	0.04820 0.05050 0.07897 0.92100
O 	O 	0.08390 0.89380 0.85230 -0.41300
N 	N 	0.19110 0.18040 0.09030 -0.17900
C 	C 	0.29160 0.86760 0.78080 -0.09900
O 	O 	0.31000 0.00130 0.87140 -0.42100
N 	N 	0.34240 0.31670 0.12680 -0.09400
C 	C 	0.45230 0.89240 0.76600 0.00800
H 	H 	0.51880 0.94570 0.79300 0.04100
O 	O 	0.99390 0.67700 0.59290 -0.36200
N 	N 	0.40200 0.40600 0.16640 -0.25000
H 	H 	0.48050 0.44180 0.15300 0.15100
H 	H 	0.35850 0.42580 0.20430 0.15400
C 	C 	0.51270 0.83770 0.71120 -0.05100
H 	H 	0.62100 0.85370 0.70220 0.06600
O 	O 	0.17840 0.56070 0.66070 -0.36400
C 	C 	0.41300 0.75820 0.66880 -0.02500
O 	O 	0.37290 0.66050 0.55120 -0.31800
C 	C 	0.47860 0.70230 0.60760 0.31300
O 	O 	0.64490 0.70390 0.61620 -0.36500
C 	C 	0.25250 0.73490 0.68350 -0.06000
C 	C 	0.13250 0.65110 0.64110 0.33400
C 	C 	0.19280 0.78860 0.73960 0.02800
H 	H 	0.08590 0.77160 0.74960 0.04600
C 	C 	0.21240 0.25780 0.13810 0.10400
H 	H 	0.14720 0.27020 0.17450 0.01300
C 	C 	0.39780 0.27570 0.06690 0.10200
H 	H 	0.48420 0.30220 0.04510 0.01200
Cu	Cu	0.27256 0.39642 0.44661 0.92700
O 	O 	0.17000 0.49650 0.50240 -0.63400
H 	H 	0.25380 0.55060 0.52430 0.21100
N 	N 	0.30910 0.30760 0.54450 -0.17900
C 	C 	0.22470 0.57380 0.34030 0.38100
Cu	Cu	0.04820 0.44950 0.57897 0.92100
O 	O 	0.08390 0.60620 0.35230 -0.41300
N 	N 	0.19110 0.31960 0.59030 -0.17900
C 	C 	0.29160 0.63240 0.28080 -0.09900
O 	O 	0.31000 0.49870 0.37140 -0.42000
N 	N 	0.34240 0.18330 0.62680 -0.09400
C 	C 	0.45230 0.60760 0.26600 0.00800
H 	H 	0.51880 0.55430 0.29300 0.04100
O 	O 	0.99390 0.82300 0.09290 -0.36200
N 	N 	0.40200 0.09400 0.66640 -0.25000
H 	H 	0.48050 0.05820 0.65300 0.15100
H 	H 	0.35850 0.07420 0.70430 0.15400
C 	C 	0.51270 0.66230 0.21120 -0.05100
H 	H 	0.62100 0.64630 0.20220 0.06600
O 	O 	0.17840 0.93930 0.16070 -0.36400
C 	C 	0.41300 0.74180 0.16880 -0.02500
O 	O 	0.37290 0.83950 0.05120 -0.31800
C 	C 	0.47860 0.79770 0.10760 0.31300
O 	O 	0.64490 0.79610 0.11620 -0.36500
C 	C 	0.25250 0.76510 0.18350 -0.06000
C 	C 	0.13250 0.84890 0.14110 0.33400
C 	C 	0.19280 0.71140 0.23960 0.02800
H 	H 	0.08590 0.72840 0.24960 0.04600
C 	C 	0.21240 0.24220 0.63810 0.10400
H 	H 	0.14720 0.22980 0.67450 0.01300
C 	C 	0.39780 0.22430 0.56690 0.10200
H 	H 	0.48420 0.19780 0.54510 0.01200
Cu	Cu	0.72744 0.89642 0.05339 0.92700
O 	O 	0.83000 0.99650 0.99760 -0.63400
H 	H 	0.74620 0.05060 0.97570 0.21000
N 	N 	0.69090 0.80760 0.95550 -0.17900
C 	C 	0.77530 0.07380 0.15970 0.38300
Cu	Cu	0.95180 0.94950 0.92103 0.92100
O 	O 	0.91610 0.10620 0.14770 -0.41300
N 	N 	0.80890 0.81960 0.90970 -0.17900
C 	C 	0.70840 0.13240 0.21920 -0.09900
O 	O 	0.69000 0.99870 0.12860 -0.42100
N 	N 	0.65760 0.68330 0.87320 -0.09400
C 	C 	0.54770 0.10760 0.23400 0.00800
H 	H 	0.48120 0.05430 0.20700 0.04100
O 	O 	0.00610 0.32300 0.40710 -0.36200
N 	N 	0.59800 0.59400 0.83360 -0.25000
H 	H 	0.51950 0.55820 0.84700 0.15100
H 	H 	0.64150 0.57420 0.79570 0.15400
C 	C 	0.48730 0.16230 0.28880 -0.05100
H 	H 	0.37900 0.14630 0.29780 0.06600
O 	O 	0.82160 0.43930 0.33930 -0.36400
C 	C 	0.58700 0.24180 0.33120 -0.02500
O 	O 	0.62710 0.33950 0.44880 -0.31800
C 	C 	0.52140 0.29770 0.39240 0.31300
O 	O 	0.35510 0.29610 0.38380 -0.36500
C 	C 	0.74750 0.26510 0.31650 -0.06000
C 	C 	0.86750 0.34890 0.35890 0.33400
C 	C 	0.80720 0.21140 0.26040 0.02800
H 	H 	0.91410 0.22840 0.25040 0.04600
C 	C 	0.78760 0.74220 0.86190 0.10400
H 	H 	0.85280 0.72980 0.82550 0.01300
C 	C 	0.60220 0.72430 0.93310 0.10200
H 	H 	0.51580 0.69780 0.95490 0.01200
