data_crystal

_cell_length_a 10.60200
_cell_length_b 11.33000
_cell_length_c 12.44600
_cell_angle_alpha 86.27000
_cell_angle_beta  82.02000
_cell_angle_gamma 89.22000

_symmetry_space_group_name_	'P 1'
_symmetry_space_group_name_H-M	'P 1'

loop_
_symmetry_equiv_pos_as_xyz
  x,y,z

loop_
_atom_site_label
_atom_site_type_symbol
_atom_site_fract_x
_atom_site_fract_y
_atom_site_fract_z
_atom_site_charge
Gd	Gd	0.42748 0.98598 0.26144 1.45700
Zn	Zn	0.63184 0.33770 0.29809 1.21100
O 	O 	0.53420 0.08880 0.09370 -0.34000
O 	O 	0.55300 0.18390 0.24000 -0.49400
O 	O 	0.19730 0.99880 0.33540 -0.34000
O 	O 	0.27590 0.14200 0.21750 -0.34500
O 	O 	0.41740 0.74910 0.54270 -0.45400
O 	O 	0.70050 0.50260 0.32490 -0.40100
O 	O 	0.69400 0.11340 0.86120 -0.33200
O 	O 	0.39200 0.82020 0.37690 -0.45200
O 	O 	0.49800 0.17890 0.85840 -0.33800
O 	O 	0.64160 0.68250 0.37660 -0.24300
N 	N 	0.45970 0.43460 0.33540 -0.23100
N 	N 	0.81300 0.25700 0.29450 -0.24000
N 	N 	0.64770 0.37540 0.12270 -0.21900
C 	C 	0.47890 0.54290 0.36820 0.02200
C 	C 	0.56630 0.17770 0.13700 0.29100
C 	C 	0.39990 0.73700 0.44640 0.44900
C 	C 	0.61860 0.58040 0.35610 0.28400
C 	C 	0.37890 0.61470 0.41140 -0.15100
C 	C 	0.61870 0.28380 0.06740 -0.00200
C 	C 	0.18250 0.09340 0.27930 0.27200
C 	C 	0.34000 0.39440 0.34290 0.09500
H 	H 	0.32640 0.32000 0.31930 -0.00400
C 	C 	0.60460 0.18490 0.88950 0.31900
C 	C 	0.25600 0.57110 0.41910 0.08200
H 	H 	0.18700 0.61650 0.44750 0.00800
C 	C 	0.05330 0.15050 0.28420 0.00300
C 	C 	0.23650 0.46070 0.38490 -0.14500
H 	H 	0.15450 0.43090 0.39000 0.09000
C 	C 	0.63240 0.28750 0.95440 -0.06400
C 	C 	0.03510 0.25680 0.22640 -0.09300
H 	H 	0.10310 0.29430 0.18270 0.07700
C 	C 	0.94860 0.10020 0.34820 -0.09600
H 	H 	0.95720 0.02990 0.38950 0.08200
C 	C 	0.83120 0.15430 0.35080 0.06700
H 	H 	0.76150 0.11820 0.39330 -0.00400
C 	C 	0.91510 0.30610 0.23450 0.06400
H 	H 	0.90460 0.37780 0.19590 0.00200
C 	C 	0.68640 0.47630 0.06670 0.06800
H 	H 	0.70520 0.54050 0.10450 0.01300
C 	C 	0.67370 0.39210 0.89870 0.02700
H 	H 	0.68440 0.39790 0.82310 0.03400
C 	C 	0.69930 0.48820 0.95450 -0.10900
H 	H 	0.72470 0.55970 0.91740 0.07600
Gd	Gd	0.57252 0.01402 0.73856 1.45800
Zn	Zn	0.36816 0.66230 0.70191 1.21200
O 	O 	0.46580 0.91120 0.90630 -0.33900
O 	O 	0.44700 0.81610 0.76000 -0.49300
O 	O 	0.80270 0.00120 0.66460 -0.33900
O 	O 	0.72410 0.85800 0.78250 -0.34400
O 	O 	0.58260 0.25090 0.45730 -0.45300
O 	O 	0.29950 0.49740 0.67510 -0.40000
O 	O 	0.30600 0.88660 0.13880 -0.33200
O 	O 	0.60800 0.17980 0.62310 -0.45200
O 	O 	0.50200 0.82110 0.14160 -0.33800
O 	O 	0.35840 0.31750 0.62340 -0.24300
N 	N 	0.54030 0.56540 0.66460 -0.23100
N 	N 	0.18700 0.74300 0.70550 -0.24000
N 	N 	0.35230 0.62460 0.87730 -0.21900
C 	C 	0.52110 0.45710 0.63180 0.02200
C 	C 	0.43370 0.82230 0.86300 0.29100
C 	C 	0.60010 0.26300 0.55360 0.44900
C 	C 	0.38140 0.41960 0.64390 0.28400
C 	C 	0.62110 0.38530 0.58860 -0.15100
C 	C 	0.38130 0.71620 0.93260 -0.00200
C 	C 	0.81750 0.90660 0.72070 0.27200
C 	C 	0.66000 0.60560 0.65710 0.09500
H 	H 	0.67360 0.68000 0.68070 -0.00400
C 	C 	0.39540 0.81510 0.11050 0.31900
C 	C 	0.74400 0.42890 0.58090 0.08200
H 	H 	0.81300 0.38350 0.55250 0.00800
C 	C 	0.94670 0.84950 0.71580 0.00300
C 	C 	0.76350 0.53930 0.61510 -0.14500
H 	H 	0.84550 0.56910 0.61000 0.09000
C 	C 	0.36760 0.71250 0.04560 -0.06400
C 	C 	0.96490 0.74320 0.77360 -0.09300
H 	H 	0.89690 0.70570 0.81730 0.07700
C 	C 	0.05140 0.89980 0.65180 -0.09600
H 	H 	0.04280 0.97010 0.61050 0.08200
C 	C 	0.16880 0.84570 0.64920 0.06700
H 	H 	0.23850 0.88180 0.60670 -0.00400
C 	C 	0.08490 0.69390 0.76550 0.06400
H 	H 	0.09540 0.62220 0.80410 0.00200
C 	C 	0.31360 0.52370 0.93330 0.06800
H 	H 	0.29480 0.45950 0.89550 0.01300
C 	C 	0.32630 0.60790 0.10130 0.02700
H 	H 	0.31560 0.60210 0.17690 0.03400
C 	C 	0.30070 0.51180 0.04550 -0.10900
H 	H 	0.27530 0.44030 0.08260 0.07600
