data_crystal

_cell_length_a 10.59000
_cell_length_b 11.33300
_cell_length_c 12.46400
_cell_angle_alpha 86.46000
_cell_angle_beta  82.19000
_cell_angle_gamma 89.17000

_symmetry_space_group_name_	'P 1'
_symmetry_space_group_name_H-M	'P 1'

loop_
_symmetry_equiv_pos_as_xyz
  x,y,z

loop_
_atom_site_label
_atom_site_type_symbol
_atom_site_fract_x
_atom_site_fract_y
_atom_site_fract_z
_atom_site_charge
Eu	Eu	0.07151 0.51475 0.23896 1.78000
Zn	Zn	0.13215 0.83727 0.79891 1.21300
O 	O 	0.99600 0.67960 0.35900 -0.37100
O 	O 	0.03460 0.59000 0.59360 -0.38300
O 	O 	0.05380 0.68380 0.74000 -0.53100
O 	O 	0.22470 0.35880 0.28360 -0.38300
O 	O 	0.30280 0.50180 0.16670 -0.37800
O 	O 	0.79880 0.99760 0.17380 -0.40200
O 	O 	0.85800 0.81880 0.12120 -0.25100
O 	O 	0.10660 0.68060 0.12380 -0.51300
O 	O 	0.08390 0.75100 0.95760 -0.46600
N 	N 	0.14690 0.87590 0.62380 -0.21800
N 	N 	0.68650 0.24350 0.20500 -0.24100
N 	N 	0.03960 0.06600 0.16400 -0.23100
C 	C 	0.06690 0.67830 0.63730 0.30200
C 	C 	0.11700 0.78470 0.56890 -0.00900
C 	C 	0.12960 0.78900 0.45620 -0.06100
C 	C 	0.16880 0.89590 0.40080 0.02700
H 	H 	0.17750 0.90250 0.32540 0.03100
C 	C 	0.19450 0.99060 0.45650 -0.11100
H 	H 	0.21870 0.06240 0.42000 0.07800
C 	C 	0.18380 0.97740 0.56980 0.06200
H 	H 	0.20300 0.04100 0.60830 0.01600
C 	C 	0.58340 0.19440 0.26610 0.05900
H 	H 	0.59360 0.12290 0.30470 0.00300
C 	C 	0.46490 0.24470 0.27400 -0.09300
H 	H 	0.39680 0.20810 0.31800 0.07600
C 	C 	0.44650 0.34970 0.21650 0.00200
C 	C 	0.55090 0.40010 0.15210 -0.10100
H 	H 	0.54200 0.47050 0.11120 0.08000
C 	C 	0.66740 0.34560 0.14890 0.07000
H 	H 	0.73680 0.38110 0.10570 -0.01400
C 	C 	0.31750 0.40700 0.22240 0.27600
C 	C 	0.88120 0.92130 0.14210 0.29400
C 	C 	0.02050 0.95820 0.13060 0.00900
C 	C 	0.12100 0.88620 0.08910 -0.15600
C 	C 	0.09980 0.76370 0.05420 0.46500
C 	C 	0.24360 0.92940 0.08210 0.08100
H 	H 	0.31270 0.88380 0.05420 0.00600
C 	C 	0.26310 0.04000 0.11620 -0.14500
H 	H 	0.34520 0.06990 0.11110 0.08900
C 	C 	0.15970 0.10610 0.15820 0.09400
H 	H 	0.17320 0.17990 0.18310 -0.01000
C 	C 	0.10280 0.68690 0.39070 0.32300
O 	O 	0.19280 0.61680 0.36180 -0.36700
Eu	Eu	0.92849 0.48525 0.76104 1.77900
Zn	Zn	0.86785 0.16273 0.20109 1.21200
O 	O 	0.00400 0.32040 0.64100 -0.37100
O 	O 	0.96540 0.41000 0.40640 -0.38300
O 	O 	0.94620 0.31620 0.26000 -0.53100
O 	O 	0.77530 0.64120 0.71640 -0.38300
O 	O 	0.69720 0.49820 0.83330 -0.37800
O 	O 	0.20120 0.00240 0.82620 -0.40200
O 	O 	0.14200 0.18120 0.87880 -0.25100
O 	O 	0.89340 0.31940 0.87620 -0.51300
O 	O 	0.91610 0.24900 0.04240 -0.46600
N 	N 	0.85310 0.12410 0.37620 -0.21800
N 	N 	0.31350 0.75650 0.79500 -0.24100
N 	N 	0.96040 0.93400 0.83600 -0.23100
C 	C 	0.93310 0.32170 0.36270 0.30200
C 	C 	0.88300 0.21530 0.43110 -0.00900
C 	C 	0.87040 0.21100 0.54380 -0.06100
C 	C 	0.83120 0.10410 0.59920 0.02700
H 	H 	0.82250 0.09750 0.67460 0.03100
C 	C 	0.80550 0.00940 0.54350 -0.11100
H 	H 	0.78130 0.93760 0.58000 0.07800
C 	C 	0.81620 0.02260 0.43020 0.06200
H 	H 	0.79700 0.95900 0.39170 0.01600
C 	C 	0.41660 0.80560 0.73390 0.05900
H 	H 	0.40640 0.87710 0.69530 0.00300
C 	C 	0.53510 0.75530 0.72600 -0.09300
H 	H 	0.60320 0.79190 0.68200 0.07600
C 	C 	0.55350 0.65030 0.78350 0.00200
C 	C 	0.44910 0.59990 0.84790 -0.10100
H 	H 	0.45800 0.52950 0.88880 0.08000
C 	C 	0.33260 0.65440 0.85110 0.07000
H 	H 	0.26320 0.61890 0.89430 -0.01400
C 	C 	0.68250 0.59300 0.77760 0.27600
C 	C 	0.11880 0.07870 0.85790 0.29400
C 	C 	0.97950 0.04180 0.86940 0.00900
C 	C 	0.87900 0.11380 0.91090 -0.15600
C 	C 	0.90020 0.23630 0.94580 0.46500
C 	C 	0.75640 0.07060 0.91790 0.08100
H 	H 	0.68730 0.11620 0.94580 0.00600
C 	C 	0.73690 0.96000 0.88380 -0.14500
H 	H 	0.65480 0.93010 0.88890 0.08900
C 	C 	0.84030 0.89390 0.84180 0.09400
H 	H 	0.82680 0.82010 0.81690 -0.01000
C 	C 	0.89720 0.31310 0.60930 0.32300
O 	O 	0.80720 0.38320 0.63820 -0.36700
