data_crystal

_cell_length_a 10.45800
_cell_length_b 12.27400
_cell_length_c 12.40100
_cell_angle_alpha 86.14000
_cell_angle_beta  79.87000
_cell_angle_gamma 76.58000

_symmetry_space_group_name_	'P 1'
_symmetry_space_group_name_H-M	'P 1'

loop_
_symmetry_equiv_pos_as_xyz
  x,y,z

loop_
_atom_site_label
_atom_site_type_symbol
_atom_site_fract_x
_atom_site_fract_y
_atom_site_fract_z
_atom_site_charge
O 	O 	0.13450 0.90120 0.97560 -0.44900
La	La	0.95736 0.12531 0.82907 1.57200
Zn	Zn	0.18644 0.35029 0.19024 1.21300
O 	O 	0.18640 0.26080 0.04680 -0.43200
N 	N 	0.17180 0.39400 0.35870 -0.22500
C 	C 	0.01170 0.44990 0.87270 0.00200
O 	O 	0.03980 0.15790 0.44800 -0.25300
O 	O 	0.94680 0.28080 0.67600 -0.39100
N 	N 	0.60920 0.72570 0.82680 -0.23100
O 	O 	0.14770 0.17580 0.66690 -0.33700
C 	C 	0.12790 0.38190 0.90050 -0.13500
C 	C 	0.87740 0.41740 0.88760 0.32400
C 	C 	0.14400 0.26750 0.95850 0.40800
C 	C 	0.12700 0.32130 0.43400 -0.00000
C 	C 	0.08990 0.22530 0.38510 0.29200
C 	C 	0.38620 0.74520 0.92250 -0.06800
H 	H 	0.32660 0.71890 0.97700 0.05900
C 	C 	0.20730 0.48140 0.39290 0.08000
H 	H 	0.23680 0.53230 0.34090 0.00600
N 	N 	0.00710 0.55460 0.83170 -0.22400
C 	C 	0.34330 0.84000 0.86060 -0.06000
C 	C 	0.24190 0.42490 0.87950 0.06200
H 	H 	0.32200 0.38170 0.89610 0.00900
C 	C 	0.11720 0.59480 0.81320 0.08300
H 	H 	0.11260 0.66760 0.78540 0.00300
C 	C 	0.11700 0.33440 0.54550 -0.08000
C 	C 	0.20090 0.90580 0.88200 0.37000
C 	C 	0.51860 0.69010 0.90270 0.04100
H 	H 	0.54620 0.62530 0.94380 0.01300
C 	C 	0.23730 0.53120 0.83410 -0.13500
H 	H 	0.31400 0.55920 0.81800 0.08300
C 	C 	0.15840 0.42450 0.57870 0.03600
H 	H 	0.15650 0.43410 0.65280 0.02500
C 	C 	0.20220 0.49960 0.50170 -0.11800
H 	H 	0.22780 0.56150 0.52300 0.07700
C 	C 	0.06640 0.25690 0.63410 0.33700
C 	C 	0.43500 0.87490 0.78030 -0.05800
H 	H 	0.40860 0.93700 0.73550 0.06700
C 	C 	0.56540 0.81760 0.76690 0.03900
H 	H 	0.62660 0.84350 0.71360 0.00700
O 	O 	0.77850 0.49470 0.87280 -0.42100
O 	O 	0.11220 0.22090 0.28240 -0.41000
O 	O 	0.12620 0.18480 0.91430 -0.39900
O 	O 	0.15790 0.96450 0.80320 -0.39800
O 	O 	0.87210 0.31910 0.91270 -0.38400
O 	O 	0.86550 0.09880 0.02440 -0.44900
La	La	0.04264 0.87469 0.17093 1.57200
Zn	Zn	0.81356 0.64971 0.80976 1.21300
O 	O 	0.81360 0.73920 0.95320 -0.43200
N 	N 	0.82820 0.60600 0.64130 -0.22500
C 	C 	0.98830 0.55010 0.12730 0.00200
O 	O 	0.96020 0.84210 0.55200 -0.25300
O 	O 	0.05320 0.71920 0.32400 -0.39100
N 	N 	0.39080 0.27430 0.17320 -0.23100
O 	O 	0.85230 0.82420 0.33310 -0.33700
C 	C 	0.87210 0.61810 0.09950 -0.13500
C 	C 	0.12260 0.58260 0.11240 0.32400
C 	C 	0.85600 0.73250 0.04150 0.40800
C 	C 	0.87300 0.67870 0.56600 -0.00000
C 	C 	0.91010 0.77470 0.61490 0.29200
C 	C 	0.61380 0.25480 0.07750 -0.06800
H 	H 	0.67340 0.28110 0.02300 0.05900
C 	C 	0.79270 0.51860 0.60710 0.08000
H 	H 	0.76320 0.46770 0.65910 0.00600
N 	N 	0.99290 0.44540 0.16830 -0.22400
C 	C 	0.65670 0.16000 0.13940 -0.06000
C 	C 	0.75810 0.57510 0.12050 0.06200
H 	H 	0.67800 0.61830 0.10390 0.00900
C 	C 	0.88280 0.40520 0.18680 0.08300
H 	H 	0.88740 0.33240 0.21460 0.00300
C 	C 	0.88300 0.66560 0.45450 -0.08000
C 	C 	0.79910 0.09420 0.11800 0.37000
C 	C 	0.48140 0.30990 0.09730 0.04100
H 	H 	0.45380 0.37470 0.05620 0.01300
C 	C 	0.76270 0.46880 0.16590 -0.13500
H 	H 	0.68600 0.44080 0.18200 0.08300
C 	C 	0.84160 0.57550 0.42130 0.03600
H 	H 	0.84350 0.56590 0.34720 0.02500
C 	C 	0.79780 0.50040 0.49830 -0.11800
H 	H 	0.77220 0.43850 0.47700 0.07700
C 	C 	0.93360 0.74310 0.36590 0.33700
C 	C 	0.56500 0.12510 0.21970 -0.05800
H 	H 	0.59140 0.06300 0.26450 0.06700
C 	C 	0.43460 0.18240 0.23310 0.03900
H 	H 	0.37340 0.15650 0.28640 0.00700
O 	O 	0.22150 0.50530 0.12720 -0.42100
O 	O 	0.88780 0.77910 0.71760 -0.41000
O 	O 	0.87380 0.81520 0.08570 -0.39900
O 	O 	0.84210 0.03550 0.19680 -0.39800
O 	O 	0.12790 0.68090 0.08730 -0.38400
