data_crystal

_cell_length_a 14.48020
_cell_length_b 14.48020
_cell_length_c 8.78840
_cell_angle_alpha 90.00000
_cell_angle_beta  90.00000
_cell_angle_gamma 120.00000

_symmetry_space_group_name_	'P 1'
_symmetry_space_group_name_H-M	'P 1'

loop_
_symmetry_equiv_pos_as_xyz
  x,y,z

loop_
_atom_site_label
_atom_site_type_symbol
_atom_site_fract_x
_atom_site_fract_y
_atom_site_fract_z
_atom_site_charge
Ag	Ag	0.89594 0.59922 0.10093 0.52500
C 	C 	0.91100 0.53060 0.78390 0.32300
C 	C 	0.95690 0.51520 0.63610 -0.12700
C 	C 	0.99230 0.59320 0.52200 0.03400
C 	C 	0.98250 0.68630 0.53520 -0.09100
H 	H 	0.95530 0.69760 0.62460 0.05800
C 	C 	0.01160 0.75790 0.42190 -0.04300
H 	H 	0.00290 0.81690 0.43320 0.02500
C 	C 	0.05570 0.74420 0.28460 -0.05400
H 	H 	0.07620 0.79460 0.20730 0.01000
C 	C 	0.06790 0.65690 0.26610 -0.12700
H 	H 	0.09740 0.64900 0.17640 0.05400
C 	C 	0.96410 0.42230 0.61700 0.02700
C 	C 	0.56460 0.31870 0.36070 -0.01400
H 	H 	0.50640 0.25160 0.39790 0.02200
H 	H 	0.55390 0.37560 0.39820 0.02700
C 	C 	0.65260 0.42130 0.13810 -0.02000
H 	H 	0.65250 0.42240 0.02770 0.03400
H 	H 	0.64300 0.47930 0.17400 0.03200
N 	N 	0.56280 0.31860 0.19230 -0.14000
O 	O 	0.81330 0.47480 0.80900 -0.34800
O 	O 	0.97660 0.60080 0.87330 -0.34700
Ag	Ag	0.40078 0.29672 0.10093 0.52500
C 	C 	0.46940 0.38040 0.78390 0.32200
C 	C 	0.48480 0.44170 0.63610 -0.12800
C 	C 	0.40680 0.39910 0.52200 0.03500
C 	C 	0.31370 0.29620 0.53520 -0.09100
H 	H 	0.30240 0.25770 0.62460 0.05800
C 	C 	0.24210 0.25370 0.42190 -0.04300
H 	H 	0.18310 0.18600 0.43320 0.02500
C 	C 	0.25580 0.31150 0.28460 -0.05400
H 	H 	0.20540 0.28160 0.20730 0.00900
C 	C 	0.34310 0.41100 0.26610 -0.12700
H 	H 	0.35100 0.44840 0.17640 0.05300
C 	C 	0.57770 0.54180 0.61700 0.02700
C 	C 	0.68130 0.24590 0.36070 -0.01400
H 	H 	0.74840 0.25480 0.39790 0.02200
H 	H 	0.62440 0.17830 0.39820 0.02700
C 	C 	0.57870 0.23130 0.13810 -0.02000
H 	H 	0.57760 0.23010 0.02770 0.03300
H 	H 	0.52070 0.16370 0.17400 0.03100
N 	N 	0.68140 0.24420 0.19230 -0.14000
O 	O 	0.52520 0.33850 0.80900 -0.34800
O 	O 	0.39920 0.37580 0.87330 -0.34900
Ag	Ag	0.70328 0.10406 0.10093 0.52300
C 	C 	0.61960 0.08900 0.78390 0.32200
C 	C 	0.55830 0.04310 0.63610 -0.12700
C 	C 	0.60090 0.00770 0.52200 0.03400
C 	C 	0.70380 0.01750 0.53520 -0.09200
H 	H 	0.74230 0.04470 0.62460 0.05800
C 	C 	0.74630 0.98840 0.42190 -0.04200
H 	H 	0.81400 0.99710 0.43320 0.02500
C 	C 	0.68850 0.94430 0.28460 -0.05400
H 	H 	0.71840 0.92380 0.20730 0.00900
C 	C 	0.58900 0.93210 0.26610 -0.12700
H 	H 	0.55160 0.90260 0.17640 0.05300
C 	C 	0.45820 0.03590 0.61700 0.02700
C 	C 	0.75410 0.43540 0.36070 -0.01400
H 	H 	0.74520 0.49360 0.39790 0.02200
H 	H 	0.82170 0.44610 0.39820 0.02700
C 	C 	0.76870 0.34740 0.13810 -0.01900
H 	H 	0.76990 0.34750 0.02770 0.03300
H 	H 	0.83630 0.35700 0.17400 0.03100
N 	N 	0.75580 0.43720 0.19230 -0.14000
O 	O 	0.66150 0.18670 0.80900 -0.34700
O 	O 	0.62420 0.02340 0.87330 -0.34600
Ag	Ag	0.10406 0.40078 0.89907 0.52400
C 	C 	0.08900 0.46940 0.21610 0.32200
C 	C 	0.04310 0.48480 0.36390 -0.12700
C 	C 	0.00770 0.40680 0.47800 0.03400
C 	C 	0.01750 0.31370 0.46480 -0.09100
H 	H 	0.04470 0.30240 0.37540 0.05800
C 	C 	0.98840 0.24210 0.57810 -0.04300
H 	H 	0.99710 0.18310 0.56680 0.02500
C 	C 	0.94430 0.25580 0.71540 -0.05400
H 	H 	0.92380 0.20540 0.79270 0.01000
C 	C 	0.93210 0.34310 0.73390 -0.12700
H 	H 	0.90260 0.35100 0.82360 0.05400
C 	C 	0.03590 0.57770 0.38300 0.02700
C 	C 	0.43540 0.68130 0.63930 -0.01400
H 	H 	0.49360 0.74840 0.60210 0.02200
H 	H 	0.44610 0.62440 0.60180 0.02700
C 	C 	0.34740 0.57870 0.86190 -0.02000
H 	H 	0.34750 0.57760 0.97230 0.03400
H 	H 	0.35700 0.52070 0.82600 0.03200
N 	N 	0.43720 0.68140 0.80770 -0.14000
O 	O 	0.18670 0.52520 0.19100 -0.34800
O 	O 	0.02340 0.39920 0.12670 -0.34700
Ag	Ag	0.59922 0.70328 0.89907 0.52500
C 	C 	0.53060 0.61960 0.21610 0.32200
C 	C 	0.51520 0.55830 0.36390 -0.12800
C 	C 	0.59320 0.60090 0.47800 0.03500
C 	C 	0.68630 0.70380 0.46480 -0.09100
H 	H 	0.69760 0.74230 0.37540 0.05800
C 	C 	0.75790 0.74630 0.57810 -0.04300
H 	H 	0.81690 0.81400 0.56680 0.02500
C 	C 	0.74420 0.68850 0.71540 -0.05400
H 	H 	0.79460 0.71840 0.79270 0.00900
C 	C 	0.65690 0.58900 0.73390 -0.12700
H 	H 	0.64900 0.55160 0.82360 0.05300
C 	C 	0.42230 0.45820 0.38300 0.02700
C 	C 	0.31870 0.75410 0.63930 -0.01400
H 	H 	0.25160 0.74520 0.60210 0.02200
H 	H 	0.37560 0.82170 0.60180 0.02700
C 	C 	0.42130 0.76870 0.86190 -0.02000
H 	H 	0.42240 0.76990 0.97230 0.03300
H 	H 	0.47930 0.83630 0.82600 0.03100
N 	N 	0.31860 0.75580 0.80770 -0.14000
O 	O 	0.47480 0.66150 0.19100 -0.34800
O 	O 	0.60080 0.62420 0.12670 -0.34900
Ag	Ag	0.29672 0.89594 0.89907 0.52300
C 	C 	0.38040 0.91100 0.21610 0.32200
C 	C 	0.44170 0.95690 0.36390 -0.12700
C 	C 	0.39910 0.99230 0.47800 0.03400
C 	C 	0.29620 0.98250 0.46480 -0.09200
H 	H 	0.25770 0.95530 0.37540 0.05800
C 	C 	0.25370 0.01160 0.57810 -0.04200
H 	H 	0.18600 0.00290 0.56680 0.02500
C 	C 	0.31150 0.05570 0.71540 -0.05400
H 	H 	0.28160 0.07620 0.79270 0.00900
C 	C 	0.41100 0.06790 0.73390 -0.12700
H 	H 	0.44840 0.09740 0.82360 0.05300
C 	C 	0.54180 0.96410 0.38300 0.02700
C 	C 	0.24590 0.56460 0.63930 -0.01400
H 	H 	0.25480 0.50640 0.60210 0.02200
H 	H 	0.17830 0.55390 0.60180 0.02700
C 	C 	0.23130 0.65260 0.86190 -0.01900
H 	H 	0.23010 0.65250 0.97230 0.03300
H 	H 	0.16370 0.64300 0.82600 0.03100
N 	N 	0.24420 0.56280 0.80770 -0.14000
O 	O 	0.33850 0.81330 0.19100 -0.34700
O 	O 	0.37580 0.97660 0.12670 -0.34600
Ag	Ag	0.66667 0.33333 0.68141 0.57500
N 	N 	0.66667 0.33333 0.42060 -0.14300
Ag	Ag	0.33333 0.66667 0.31859 0.57500
N 	N 	0.33333 0.66667 0.57940 -0.14300
