data_crystal

_cell_length_a 15.27800
_cell_length_b 7.66400
_cell_length_c 15.55300
_cell_angle_alpha 90.00000
_cell_angle_beta  105.41000
_cell_angle_gamma 90.00000

_symmetry_space_group_name_	'P 1'
_symmetry_space_group_name_H-M	'P 1'

loop_
_symmetry_equiv_pos_as_xyz
  x,y,z

loop_
_atom_site_label
_atom_site_type_symbol
_atom_site_fract_x
_atom_site_fract_y
_atom_site_fract_z
_atom_site_charge
Cd	Cd	0.31942 0.56599 0.15534 1.13500
C 	C 	0.26380 0.70400 0.02910 -0.32200
C 	C 	0.46310 0.60630 0.22760 -0.29600
N 	N 	0.29220 0.81480 0.23430 -0.20400
C 	C 	0.24660 0.39200 0.22770 -0.33100
C 	C 	0.20780 0.31480 0.26570 -0.20700
N 	N 	0.23620 0.79600 0.97090 -0.26800
Cd	Cd	0.81942 0.06599 0.15534 1.13500
C 	C 	0.76380 0.20400 0.02910 -0.32700
C 	C 	0.96310 0.10630 0.22760 -0.29700
N 	N 	0.79220 0.31480 0.23430 -0.20500
C 	C 	0.74660 0.89200 0.22770 -0.33000
C 	C 	0.70780 0.81480 0.26570 -0.20700
N 	N 	0.73620 0.29600 0.97090 -0.26400
Cd	Cd	0.68058 0.56599 0.34466 1.13500
C 	C 	0.73620 0.70400 0.47090 -0.33500
C 	C 	0.53690 0.60630 0.27240 -0.29800
C 	C 	0.75340 0.39200 0.27230 -0.32800
N 	N 	0.76380 0.79600 0.52910 -0.25700
Cd	Cd	0.18058 0.06599 0.34466 1.13500
C 	C 	0.23620 0.20400 0.47090 -0.33500
C 	C 	0.03690 0.10630 0.27240 -0.29800
C 	C 	0.25340 0.89200 0.27230 -0.32700
N 	N 	0.26380 0.29600 0.52910 -0.25700
Cd	Cd	0.68058 0.43401 0.84466 1.13100
C 	C 	0.53690 0.39370 0.77240 -0.30000
N 	N 	0.70780 0.18520 0.76570 -0.20700
C 	C 	0.75340 0.60800 0.77230 -0.33600
C 	C 	0.79220 0.68520 0.73430 -0.21100
Cd	Cd	0.18058 0.93401 0.84466 1.13000
C 	C 	0.03690 0.89370 0.77240 -0.30300
N 	N 	0.20780 0.68520 0.76570 -0.20700
C 	C 	0.25340 0.10800 0.77230 -0.33300
C 	C 	0.29220 0.18520 0.73430 -0.21000
Cd	Cd	0.31942 0.43401 0.65534 1.13100
C 	C 	0.46310 0.39370 0.72760 -0.30100
C 	C 	0.24660 0.60800 0.72770 -0.33200
Cd	Cd	0.81942 0.93401 0.65534 1.13000
C 	C 	0.96310 0.89370 0.72760 -0.30000
C 	C 	0.74660 0.10800 0.72770 -0.32900
