data_crystal

_cell_length_a 16.10480
_cell_length_b 8.25640
_cell_length_c 22.99790
_cell_angle_alpha 90.00000
_cell_angle_beta  103.99500
_cell_angle_gamma 90.00000

_symmetry_space_group_name_	'P 1'
_symmetry_space_group_name_H-M	'P 1'

loop_
_symmetry_equiv_pos_as_xyz
  x,y,z

loop_
_atom_site_label
_atom_site_type_symbol
_atom_site_fract_x
_atom_site_fract_y
_atom_site_fract_z
_atom_site_charge
Zn	Zn	0.30150 0.15520 0.42620 1.22000
Zn	Zn	0.64890 0.34980 0.42730 1.22800
Zn	Zn	0.26400 0.38240 0.30450 1.19800
P 	P 	0.68090 0.51070 0.31070 0.54300
P 	P 	0.23200 0.49040 0.45590 0.55100
P 	P 	0.44830 0.28910 0.36700 0.52000
O 	O 	0.24390 0.36120 0.41030 -0.53900
O 	O 	0.17110 0.42350 0.49250 -0.49500
O 	O 	0.40990 0.15850 0.40150 -0.44700
O 	O 	0.71350 0.49430 0.38100 -0.58600
O 	O 	0.47480 0.20300 0.31510 -0.47800
O 	O 	0.58510 0.48400 0.29470 -0.46900
O 	O 	0.18920 0.63410 0.41800 -0.49100
O 	O 	0.52550 0.37150 0.40990 -0.43200
O 	O 	0.31790 0.53600 0.49680 -0.49700
O 	O 	0.38140 0.42120 0.34380 -0.48800
O 	O 	0.70560 0.67750 0.29280 -0.51300
O 	O 	0.72740 0.37920 0.28280 -0.46100
Zn	Zn	0.80150 0.65520 0.42620 1.22200
Zn	Zn	0.14890 0.84980 0.42730 1.22400
Zn	Zn	0.76400 0.88240 0.30450 1.20000
P 	P 	0.18090 0.01070 0.31070 0.53800
P 	P 	0.73200 0.99040 0.45590 0.55200
P 	P 	0.94830 0.78910 0.36700 0.58000
O 	O 	0.74390 0.86120 0.41030 -0.53100
O 	O 	0.67110 0.92350 0.49250 -0.48000
O 	O 	0.90990 0.65850 0.40150 -0.43200
O 	O 	0.21350 0.99430 0.38100 -0.59100
O 	O 	0.97480 0.70300 0.31510 -0.43700
O 	O 	0.08510 0.98400 0.29470 -0.49500
O 	O 	0.68920 0.13410 0.41800 -0.47800
O 	O 	0.02550 0.87150 0.40990 -0.50200
O 	O 	0.81790 0.03600 0.49680 -0.48700
O 	O 	0.88140 0.92120 0.34380 -0.47700
O 	O 	0.20560 0.17750 0.29280 -0.52200
O 	O 	0.22740 0.87920 0.28280 -0.46600
Zn	Zn	0.69850 0.15520 0.07380 1.22000
Zn	Zn	0.35110 0.34980 0.07270 1.22700
Zn	Zn	0.73600 0.38240 0.19550 1.20100
P 	P 	0.31910 0.51070 0.18930 0.54200
P 	P 	0.76800 0.49040 0.04410 0.55200
P 	P 	0.55170 0.28910 0.13300 0.52000
O 	O 	0.75610 0.36120 0.08970 -0.52800
O 	O 	0.82890 0.42350 0.00750 -0.46500
O 	O 	0.59010 0.15850 0.09850 -0.44700
O 	O 	0.28650 0.49430 0.11900 -0.59100
O 	O 	0.52520 0.20300 0.18490 -0.47800
O 	O 	0.41490 0.48400 0.20530 -0.46900
O 	O 	0.81080 0.63410 0.08200 -0.46700
O 	O 	0.47450 0.37150 0.09010 -0.43200
O 	O 	0.68210 0.53600 0.00320 -0.49500
O 	O 	0.61860 0.42120 0.15620 -0.48700
O 	O 	0.29440 0.67750 0.20720 -0.51400
O 	O 	0.27260 0.37920 0.21720 -0.47000
Zn	Zn	0.19850 0.65520 0.07380 1.21800
Zn	Zn	0.85110 0.84980 0.07270 1.23000
Zn	Zn	0.23600 0.88240 0.19550 1.19900
P 	P 	0.81910 0.01070 0.18930 0.53500
P 	P 	0.26800 0.99040 0.04410 0.55200
P 	P 	0.05170 0.78910 0.13300 0.46000
O 	O 	0.25610 0.86120 0.08970 -0.53500
O 	O 	0.32890 0.92350 0.00750 -0.47900
O 	O 	0.09010 0.65850 0.09850 -0.46200
O 	O 	0.78650 0.99430 0.11900 -0.58200
O 	O 	0.02520 0.70300 0.18490 -0.50700
O 	O 	0.91490 0.98400 0.20530 -0.42900
O 	O 	0.31080 0.13410 0.08200 -0.48200
O 	O 	0.97450 0.87150 0.09010 -0.36200
O 	O 	0.18210 0.03600 0.00320 -0.50600
O 	O 	0.11860 0.92120 0.15620 -0.49500
O 	O 	0.79440 0.17750 0.20720 -0.50500
O 	O 	0.77260 0.87920 0.21720 -0.45900
Zn	Zn	0.69850 0.84480 0.57380 1.22000
Zn	Zn	0.35110 0.65020 0.57270 1.22600
Zn	Zn	0.73600 0.61760 0.69550 1.20100
P 	P 	0.31910 0.48930 0.68930 0.54200
P 	P 	0.76800 0.50960 0.54410 0.55200
P 	P 	0.55170 0.71090 0.63300 0.52000
O 	O 	0.75610 0.63880 0.58970 -0.52800
O 	O 	0.82890 0.57650 0.50750 -0.46600
O 	O 	0.59010 0.84150 0.59850 -0.44700
O 	O 	0.28650 0.50570 0.61900 -0.59100
O 	O 	0.52520 0.79700 0.68490 -0.47800
O 	O 	0.41490 0.51600 0.70530 -0.46900
O 	O 	0.81080 0.36590 0.58200 -0.46700
O 	O 	0.47450 0.62850 0.59010 -0.43200
O 	O 	0.68210 0.46400 0.50320 -0.49600
O 	O 	0.61860 0.57880 0.65620 -0.48700
O 	O 	0.29440 0.32250 0.70720 -0.51500
O 	O 	0.27260 0.62080 0.71720 -0.47000
Zn	Zn	0.19850 0.34480 0.57380 1.21800
Zn	Zn	0.85110 0.15020 0.57270 1.23000
Zn	Zn	0.23600 0.11760 0.69550 1.19900
P 	P 	0.81910 0.98930 0.68930 0.53600
P 	P 	0.26800 0.00960 0.54410 0.55100
P 	P 	0.05170 0.21090 0.63300 0.46000
O 	O 	0.25610 0.13880 0.58970 -0.53600
O 	O 	0.32890 0.07650 0.50750 -0.48000
O 	O 	0.09010 0.34150 0.59850 -0.46200
O 	O 	0.78650 0.00570 0.61900 -0.58300
O 	O 	0.02520 0.29700 0.68490 -0.50700
O 	O 	0.91490 0.01600 0.70530 -0.42900
O 	O 	0.31080 0.86590 0.58200 -0.48200
O 	O 	0.97450 0.12850 0.59010 -0.36200
O 	O 	0.18210 0.96400 0.50320 -0.50700
O 	O 	0.11860 0.07880 0.65620 -0.49500
O 	O 	0.79440 0.82250 0.70720 -0.50500
O 	O 	0.77260 0.12080 0.71720 -0.45900
Zn	Zn	0.30150 0.84480 0.92620 1.21900
Zn	Zn	0.64890 0.65020 0.92730 1.22700
Zn	Zn	0.26400 0.61760 0.80450 1.19700
P 	P 	0.68090 0.48930 0.81070 0.54200
P 	P 	0.23200 0.50960 0.95590 0.55100
P 	P 	0.44830 0.71090 0.86700 0.52000
O 	O 	0.24390 0.63880 0.91030 -0.53900
O 	O 	0.17110 0.57650 0.99250 -0.49600
O 	O 	0.40990 0.84150 0.90150 -0.44800
O 	O 	0.71350 0.50570 0.88100 -0.58700
O 	O 	0.47480 0.79700 0.81510 -0.47800
O 	O 	0.58510 0.51600 0.79470 -0.46900
O 	O 	0.18920 0.36590 0.91800 -0.49100
O 	O 	0.52550 0.62850 0.90990 -0.43300
O 	O 	0.31790 0.46400 0.99680 -0.49800
O 	O 	0.38140 0.57880 0.84380 -0.48800
O 	O 	0.70560 0.32250 0.79280 -0.51300
O 	O 	0.72740 0.62080 0.78280 -0.46100
Zn	Zn	0.80150 0.34480 0.92620 1.22100
Zn	Zn	0.14890 0.15020 0.92730 1.22300
Zn	Zn	0.76400 0.11760 0.80450 1.20000
P 	P 	0.18090 0.98930 0.81070 0.53800
P 	P 	0.73200 0.00960 0.95590 0.55200
P 	P 	0.94830 0.21090 0.86700 0.58000
O 	O 	0.74390 0.13880 0.91030 -0.53100
O 	O 	0.67110 0.07650 0.99250 -0.48200
O 	O 	0.90990 0.34150 0.90150 -0.43300
O 	O 	0.21350 0.00570 0.88100 -0.59100
O 	O 	0.97480 0.29700 0.81510 -0.43700
O 	O 	0.08510 0.01600 0.79470 -0.49500
O 	O 	0.68920 0.86590 0.91800 -0.47900
O 	O 	0.02550 0.12850 0.90990 -0.50200
O 	O 	0.81790 0.96400 0.99680 -0.48900
O 	O 	0.88140 0.07880 0.84380 -0.47800
O 	O 	0.20560 0.82250 0.79280 -0.52200
O 	O 	0.22740 0.12080 0.78280 -0.46600
Zn	Zn	0.50000 0.33000 0.25000 1.22400
Zn	Zn	0.00000 0.83000 0.25000 1.19700
Zn	Zn	0.50000 0.67000 0.75000 1.22400
Zn	Zn	0.00000 0.17000 0.75000 1.19700
