data_crystal

_cell_length_a 7.65690
_cell_length_b 15.24100
_cell_length_c 7.65890
_cell_angle_alpha 90.00000
_cell_angle_beta  92.74000
_cell_angle_gamma 90.00000

_symmetry_space_group_name_	'P 1'
_symmetry_space_group_name_H-M	'P 1'

loop_
_symmetry_equiv_pos_as_xyz
  x,y,z

loop_
_atom_site_label
_atom_site_type_symbol
_atom_site_fract_x
_atom_site_fract_y
_atom_site_fract_z
_atom_site_charge
Zn	Zn	0.19340 0.30000 0.90660 1.20900
Zn	Zn	0.91850 0.29540 0.21000 1.21200
Zn	Zn	0.19320 0.45600 0.19200 1.21200
Zn	Zn	0.87930 0.43570 0.90310 1.20800
P 	P 	0.07760 0.38260 0.55660 0.52000
P 	P 	0.99840 0.12560 0.98840 0.53000
P 	P 	0.54480 0.36200 0.08280 0.50500
O 	O 	0.04800 0.37150 0.05500 -0.93500
O 	O 	0.42200 0.28500 0.03300 -0.43700
O 	O 	0.23100 0.35720 0.68600 -0.45000
O 	O 	0.07200 0.18960 0.85900 -0.44700
O 	O 	0.02300 0.30160 0.44700 -0.44800
O 	O 	0.67400 0.32890 0.23200 -0.43200
O 	O 	0.93100 0.17300 0.14800 -0.44700
O 	O 	0.13300 0.45670 0.43500 -0.45400
O 	O 	0.84500 0.07510 0.89400 -0.39300
O 	O 	0.44100 0.44110 0.15600 -0.45000
O 	O 	0.64300 0.38920 0.92300 -0.46100
O 	O 	0.92000 0.41560 0.65400 -0.45300
O 	O 	0.14300 0.06030 0.04700 -0.39200
Zn	Zn	0.80660 0.80000 0.09340 1.20700
Zn	Zn	0.08150 0.79540 0.79000 1.20900
Zn	Zn	0.80680 0.95600 0.80800 1.19400
Zn	Zn	0.12070 0.93570 0.09690 1.18500
P 	P 	0.92240 0.88260 0.44340 0.52400
P 	P 	0.00160 0.62560 0.01160 0.53000
P 	P 	0.45520 0.86200 0.91720 0.50900
O 	O 	0.95200 0.87150 0.94500 -0.94500
O 	O 	0.57800 0.78500 0.96700 -0.44700
O 	O 	0.76900 0.85720 0.31400 -0.46800
O 	O 	0.92800 0.68960 0.14100 -0.46300
O 	O 	0.97700 0.80160 0.55300 -0.45800
O 	O 	0.32600 0.82890 0.76800 -0.44800
O 	O 	0.06900 0.67300 0.85200 -0.46700
O 	O 	0.86700 0.95670 0.56500 -0.49100
O 	O 	0.15500 0.57510 0.10600 -0.45100
O 	O 	0.55900 0.94110 0.84400 -0.48400
O 	O 	0.35700 0.88920 0.07700 -0.49000
O 	O 	0.08000 0.91560 0.34600 -0.48700
O 	O 	0.85700 0.56030 0.95300 -0.45600
