data_crystal

_cell_length_a 10.45030
_cell_length_b 11.43800
_cell_length_c 16.64570
_cell_angle_alpha 90.00000
_cell_angle_beta  90.00000
_cell_angle_gamma 108.22500

_symmetry_space_group_name_	'P 1'
_symmetry_space_group_name_H-M	'P 1'

loop_
_symmetry_equiv_pos_as_xyz
  x,y,z

loop_
_atom_site_label
_atom_site_type_symbol
_atom_site_fract_x
_atom_site_fract_y
_atom_site_fract_z
_atom_site_charge
Mg	Mg	0.34922 0.96698 0.54001 1.44100
Mg	Mg	0.79412 0.04626 0.76271 1.47000
Mg	Mg	0.31341 0.10564 0.91995 1.45500
Mg	Mg	0.15078 0.53302 0.04001 1.44100
Mg	Mg	0.70588 0.45374 0.26271 1.47000
Mg	Mg	0.18659 0.39436 0.41995 1.45400
Mg	Mg	0.65078 0.03302 0.45999 1.44100
Mg	Mg	0.20588 0.95374 0.23729 1.47000
Mg	Mg	0.68659 0.89436 0.08005 1.45500
Mg	Mg	0.84922 0.46698 0.95999 1.44100
Mg	Mg	0.29412 0.54626 0.73729 1.47000
Mg	Mg	0.81341 0.60564 0.58005 1.45400
H 	H 	0.17800 0.99750 0.72320 -0.04100
H 	H 	0.47600 0.83150 0.82470 -0.05900
H 	H 	0.32200 0.50250 0.22320 -0.04200
H 	H 	0.02400 0.66850 0.32470 -0.06400
H 	H 	0.82200 0.00250 0.27680 -0.04100
H 	H 	0.52400 0.16850 0.17530 -0.05900
H 	H 	0.67800 0.49750 0.77680 -0.04200
H 	H 	0.97600 0.33150 0.67530 -0.06400
C 	C 	0.27220 0.01890 0.72821 0.10900
C 	C 	0.47981 0.05498 0.69682 -0.11600
C 	C 	0.47091 0.08030 0.77801 -0.08300
C 	C 	0.59236 0.06602 0.64027 0.41900
C 	C 	0.56902 0.12060 0.84428 0.35200
C 	C 	0.52381 0.80385 0.78452 0.11300
C 	C 	0.56527 0.69353 0.68976 -0.10200
C 	C 	0.67838 0.79505 0.70236 -0.09100
C 	C 	0.81101 0.84416 0.66255 0.34400
C 	C 	0.52729 0.58680 0.63434 0.37600
C 	C 	0.22780 0.48110 0.22821 0.10900
C 	C 	0.02019 0.44502 0.19682 -0.12000
C 	C 	0.02909 0.41970 0.27801 -0.08400
C 	C 	0.90764 0.43398 0.14027 0.42100
C 	C 	0.93098 0.37940 0.34428 0.35300
C 	C 	0.97619 0.69615 0.28452 0.11900
C 	C 	0.93473 0.80647 0.18976 -0.10100
C 	C 	0.82162 0.70495 0.20236 -0.09100
C 	C 	0.68899 0.65584 0.16255 0.34500
C 	C 	0.97271 0.91320 0.13434 0.38100
C 	C 	0.72780 0.98110 0.27179 0.10900
C 	C 	0.52019 0.94502 0.30318 -0.11600
C 	C 	0.52909 0.91970 0.22199 -0.08300
C 	C 	0.40764 0.93398 0.35973 0.41900
C 	C 	0.43098 0.87940 0.15572 0.35200
C 	C 	0.47619 0.19615 0.21548 0.11300
C 	C 	0.43473 0.30647 0.31024 -0.10200
C 	C 	0.32162 0.20495 0.29764 -0.09100
C 	C 	0.18899 0.15584 0.33745 0.34400
C 	C 	0.47271 0.41320 0.36566 0.37600
C 	C 	0.77220 0.51890 0.77179 0.10900
C 	C 	0.97981 0.55498 0.80318 -0.12000
C 	C 	0.97091 0.58030 0.72199 -0.08400
C 	C 	0.09236 0.56602 0.85973 0.42100
C 	C 	0.06902 0.62060 0.65572 0.35300
C 	C 	0.02381 0.30385 0.71548 0.11900
C 	C 	0.06527 0.19353 0.81024 -0.10100
C 	C 	0.17838 0.29505 0.79764 -0.09100
C 	C 	0.31101 0.34416 0.83745 0.34500
C 	C 	0.02729 0.08680 0.86566 0.38100
N 	N 	0.35160 0.01534 0.66585 -0.29200
N 	N 	0.33786 0.05787 0.79698 -0.26600
N 	N 	0.64984 0.86507 0.76286 -0.25700
N 	N 	0.46806 0.70059 0.74307 -0.25400
N 	N 	0.14840 0.48466 0.16585 -0.29200
N 	N 	0.16214 0.44213 0.29698 -0.26600
N 	N 	0.85016 0.63493 0.26286 -0.25800
N 	N 	0.03194 0.79941 0.24307 -0.25900
N 	N 	0.64840 0.98466 0.33415 -0.29200
N 	N 	0.66214 0.94213 0.20302 -0.26600
N 	N 	0.35016 0.13493 0.23714 -0.25700
N 	N 	0.53194 0.29941 0.25693 -0.25400
N 	N 	0.85160 0.51534 0.83415 -0.29200
N 	N 	0.83786 0.55787 0.70302 -0.26600
N 	N 	0.14984 0.36507 0.73714 -0.25800
N 	N 	0.96806 0.20059 0.75693 -0.25900
O 	O 	0.55595 0.04401 0.56688 -0.78700
O 	O 	0.71146 0.09440 0.66197 -0.57000
O 	O 	0.52343 0.14443 0.91098 -0.55600
O 	O 	0.69073 0.12949 0.83480 -0.53500
O 	O 	0.88754 0.94495 0.68973 -0.47400
O 	O 	0.84057 0.78921 0.60315 -0.54000
O 	O 	0.40548 0.51961 0.63778 -0.49700
O 	O 	0.61103 0.56376 0.58803 -0.55600
O 	O 	0.94405 0.45599 0.06688 -0.78600
O 	O 	0.78854 0.40560 0.16197 -0.56900
O 	O 	0.97657 0.35557 0.41098 -0.55700
O 	O 	0.80927 0.37051 0.33480 -0.53400
O 	O 	0.61246 0.55505 0.18973 -0.47500
O 	O 	0.65943 0.71079 0.10315 -0.53900
O 	O 	0.09452 0.98039 0.13778 -0.50300
O 	O 	0.88897 0.93624 0.08803 -0.55600
O 	O 	0.44405 0.95599 0.43312 -0.78700
O 	O 	0.28854 0.90560 0.33803 -0.57000
O 	O 	0.47657 0.85557 0.08902 -0.55600
O 	O 	0.30927 0.87051 0.16520 -0.53500
O 	O 	0.11246 0.05505 0.31027 -0.47400
O 	O 	0.15943 0.21079 0.39685 -0.54000
O 	O 	0.59452 0.48039 0.36222 -0.49700
O 	O 	0.38897 0.43624 0.41197 -0.55600
O 	O 	0.05595 0.54401 0.93312 -0.78600
O 	O 	0.21146 0.59440 0.83803 -0.56900
O 	O 	0.02343 0.64443 0.58902 -0.55700
O 	O 	0.19073 0.62949 0.66520 -0.53400
O 	O 	0.38754 0.44495 0.81027 -0.47500
O 	O 	0.34057 0.28921 0.89685 -0.53900
O 	O 	0.90548 0.01961 0.86222 -0.50300
O 	O 	0.11103 0.06376 0.91197 -0.55600
