data_crystal

_cell_length_a 9.10750
_cell_length_b 12.50600
_cell_length_c 12.50600
_cell_angle_alpha 113.53200
_cell_angle_beta  101.39700
_cell_angle_gamma 78.60310

_symmetry_space_group_name_	'P 1'
_symmetry_space_group_name_H-M	'P 1'

loop_
_symmetry_equiv_pos_as_xyz
  x,y,z

loop_
_atom_site_label
_atom_site_type_symbol
_atom_site_fract_x
_atom_site_fract_y
_atom_site_fract_z
_atom_site_charge
Cu	Cu	0.68399 0.77371 0.17371 0.91500
Cu	Cu	0.82927 0.76034 0.37128 0.91400
Cu	Cu	0.31601 0.17371 0.77371 0.91400
Cu	Cu	0.17073 0.37128 0.76034 0.91300
H 	H 	0.44080 0.94010 0.08510 0.00900
H 	H 	0.26490 0.94280 0.92840 0.07500
H 	H 	0.39950 0.60170 0.76550 0.08100
H 	H 	0.58040 0.61000 0.92440 0.00700
H 	H 	0.94440 0.93300 0.61480 0.01700
H 	H 	0.12260 0.94460 0.77580 0.08200
H 	H 	0.23480 0.59300 0.62860 0.07400
H 	H 	0.05320 0.59310 0.47070 0.01200
H 	H 	0.48120 0.53790 0.32850 0.05600
H 	H 	0.30080 0.60200 0.14140 0.03600
H 	H 	0.26910 0.50120 0.17900 0.01600
H 	H 	0.50940 0.39370 0.12450 0.14300
H 	H 	0.53120 0.49220 0.07980 0.15300
H 	H 	0.37470 0.72220 0.45780 0.13300
H 	H 	0.27050 0.74650 0.34870 0.14100
H 	H 	0.24420 0.64240 0.38360 0.13500
H 	H 	0.16690 0.85870 0.20250 0.07000
H 	H 	0.23910 0.03420 0.35300 0.00300
H 	H 	0.20410 0.94500 0.40440 0.02600
H 	H 	0.96150 0.05970 0.44110 0.14800
H 	H 	0.00610 0.15160 0.39740 0.13900
H 	H 	0.12500 0.02850 0.16030 0.08500
H 	H 	0.00570 0.94000 0.08100 0.09900
H 	H 	0.95610 0.05410 0.19110 0.08900
H 	H 	0.55920 0.08510 0.94010 0.00900
H 	H 	0.73510 0.92840 0.94280 0.07500
H 	H 	0.60050 0.76550 0.60170 0.08100
H 	H 	0.41960 0.92440 0.61000 0.00700
H 	H 	0.05560 0.61480 0.93300 0.01700
H 	H 	0.87740 0.77580 0.94460 0.08200
H 	H 	0.76520 0.62860 0.59300 0.07400
H 	H 	0.94680 0.47070 0.59310 0.01200
H 	H 	0.51880 0.32850 0.53790 0.05600
H 	H 	0.69920 0.14140 0.60200 0.03600
H 	H 	0.73090 0.17900 0.50120 0.01600
H 	H 	0.49060 0.12450 0.39370 0.14300
H 	H 	0.46880 0.07980 0.49220 0.15300
H 	H 	0.62530 0.45780 0.72220 0.13300
H 	H 	0.72950 0.34870 0.74650 0.14100
H 	H 	0.75580 0.38360 0.64240 0.13500
H 	H 	0.83310 0.20250 0.85870 0.07000
H 	H 	0.76090 0.35300 0.03420 0.00300
H 	H 	0.79590 0.40440 0.94500 0.02600
H 	H 	0.03850 0.44110 0.05970 0.14800
H 	H 	0.99390 0.39740 0.15160 0.13900
H 	H 	0.87500 0.16030 0.02850 0.08500
H 	H 	0.99430 0.08100 0.94000 0.09900
H 	H 	0.04390 0.19110 0.05410 0.08900
C 	C 	0.43460 0.86930 0.01770 0.08100
C 	C 	0.32760 0.87140 0.92500 -0.13300
C 	C 	0.31070 0.77250 0.82850 0.06900
C 	C 	0.40690 0.67420 0.83060 -0.13700
C 	C 	0.51420 0.67950 0.92630 0.09200
C 	C 	0.00340 0.86230 0.61790 0.08000
C 	C 	0.10940 0.87010 0.71510 -0.12500
C 	C 	0.19650 0.76940 0.72380 0.04900
C 	C 	0.17520 0.66450 0.62890 -0.11900
C 	C 	0.06640 0.66540 0.53480 0.06100
C 	C 	0.55440 0.66910 0.29710 0.32900
C 	C 	0.43210 0.60020 0.29680 -0.07500
C 	C 	0.34960 0.54090 0.17350 0.04300
C 	C 	0.45510 0.45140 0.08960 -0.37600
C 	C 	0.37320 0.38700 0.97120 0.42800
C 	C 	0.32030 0.68550 0.37910 -0.34500
C 	C 	0.95920 0.86410 0.24530 0.34500
C 	C 	0.08630 0.92320 0.23880 -0.11900
C 	C 	0.15740 0.99770 0.36170 0.07300
C 	C 	0.04720 0.09509 0.43671 -0.36500
C 	C 	0.11910 0.16190 0.56150 0.42600
C 	C 	0.03920 0.99246 0.16114 -0.23600
C 	C 	0.56540 0.01770 0.86930 0.08100
C 	C 	0.67240 0.92500 0.87140 -0.13300
C 	C 	0.68930 0.82850 0.77250 0.06900
C 	C 	0.59310 0.83060 0.67420 -0.13700
C 	C 	0.48580 0.92630 0.67950 0.09200
C 	C 	0.99660 0.61790 0.86230 0.08000
C 	C 	0.89060 0.71510 0.87010 -0.12500
C 	C 	0.80350 0.72380 0.76940 0.04900
C 	C 	0.82480 0.62890 0.66450 -0.11900
C 	C 	0.93360 0.53480 0.66540 0.06100
C 	C 	0.44560 0.29710 0.66910 0.32900
C 	C 	0.56790 0.29680 0.60020 -0.07500
C 	C 	0.65040 0.17350 0.54090 0.04300
C 	C 	0.54490 0.08960 0.45140 -0.37600
C 	C 	0.62680 0.97120 0.38700 0.42800
C 	C 	0.67970 0.37910 0.68550 -0.34500
C 	C 	0.04080 0.24530 0.86410 0.34500
C 	C 	0.91370 0.23880 0.92320 -0.11900
C 	C 	0.84260 0.36170 0.99770 0.07300
C 	C 	0.95280 0.43671 0.09509 -0.36500
C 	C 	0.88090 0.56150 0.16190 0.42600
C 	C 	0.96080 0.16114 0.99246 -0.23600
N 	N 	0.52970 0.77640 0.02020 -0.19900
N 	N 	0.97840 0.76330 0.52910 -0.19100
N 	N 	0.47030 0.02020 0.77640 -0.19900
N 	N 	0.02160 0.52910 0.76330 -0.19100
O 	O 	0.53410 0.71101 0.21899 -0.40400
O 	O 	0.66820 0.67654 0.37526 -0.39400
O 	O 	0.39380 0.27454 0.93406 -0.42100
O 	O 	0.29130 0.44406 0.91374 -0.42400
O 	O 	0.85640 0.83776 0.15824 -0.40000
O 	O 	0.96820 0.84083 0.33537 -0.41100
O 	O 	0.21500 0.10269 0.61091 -0.42600
O 	O 	0.07600 0.26961 0.60559 -0.43300
O 	O 	0.46590 0.21899 0.71101 -0.40400
O 	O 	0.33180 0.37526 0.67654 -0.39400
O 	O 	0.60620 0.93406 0.27454 -0.42100
O 	O 	0.70870 0.91374 0.44406 -0.42400
O 	O 	0.14360 0.15824 0.83776 -0.40000
O 	O 	0.03180 0.33537 0.84083 -0.41100
O 	O 	0.78500 0.61091 0.10269 -0.42600
O 	O 	0.92400 0.60559 0.26961 -0.43300
