data_crystal

_cell_length_a 8.40850
_cell_length_b 9.80700
_cell_length_c 21.01900
_cell_angle_alpha 90.00000
_cell_angle_beta  90.00000
_cell_angle_gamma 90.00000

_symmetry_space_group_name_	'P 1'
_symmetry_space_group_name_H-M	'P 1'

loop_
_symmetry_equiv_pos_as_xyz
  x,y,z

loop_
_atom_site_label
_atom_site_type_symbol
_atom_site_fract_x
_atom_site_fract_y
_atom_site_fract_z
_atom_site_charge
Cd	Cd	0.00436 0.39250 0.71694 1.13900
Cd	Cd	0.19393 0.83749 0.52263 1.14900
Cd	Cd	0.49564 0.60750 0.21694 1.14000
Cd	Cd	0.30607 0.16251 0.02263 1.14900
Cd	Cd	0.99564 0.89250 0.78306 1.13900
Cd	Cd	0.80607 0.33749 0.97737 1.15000
Cd	Cd	0.50436 0.10750 0.28306 1.14000
Cd	Cd	0.69393 0.66251 0.47737 1.15000
H 	H 	0.81500 0.81800 0.68650 0.16900
H 	H 	0.06600 0.09400 0.57900 0.22700
H 	H 	0.71700 0.99650 0.65370 -0.01700
H 	H 	0.83560 0.08490 0.56230 -0.02000
H 	H 	0.68500 0.18200 0.18650 0.17000
H 	H 	0.43400 0.90600 0.07900 0.22700
H 	H 	0.78300 0.00350 0.15370 -0.01700
H 	H 	0.66440 0.91510 0.06230 -0.01900
H 	H 	0.18500 0.31800 0.81350 0.17000
H 	H 	0.93400 0.59400 0.92100 0.22600
H 	H 	0.28300 0.49650 0.84630 -0.01800
H 	H 	0.16440 0.58490 0.93770 -0.01800
H 	H 	0.31500 0.68200 0.31350 0.17000
H 	H 	0.56600 0.40600 0.42100 0.22700
H 	H 	0.21700 0.50350 0.34630 -0.01900
H 	H 	0.33560 0.41510 0.43770 -0.01800
C 	C 	0.90110 0.11700 0.68708 0.31500
C 	C 	0.83340 0.99370 0.65118 -0.01600
C 	C 	0.88310 0.00300 0.58113 0.02800
C 	C 	0.82570 0.87910 0.54494 0.28300
C 	C 	0.59890 0.88300 0.18708 0.31500
C 	C 	0.66660 0.00630 0.15118 -0.01700
C 	C 	0.61690 0.99700 0.08113 0.02700
C 	C 	0.67430 0.12090 0.04494 0.28300
C 	C 	0.09890 0.61700 0.81292 0.31200
C 	C 	0.16660 0.49370 0.84882 -0.01100
C 	C 	0.11690 0.50300 0.91887 0.02400
C 	C 	0.17430 0.37910 0.95506 0.28600
C 	C 	0.40110 0.38300 0.31292 0.31200
C 	C 	0.33340 0.50630 0.34882 -0.01100
C 	C 	0.38310 0.49700 0.41887 0.02100
C 	C 	0.32570 0.62090 0.45506 0.28600
O 	O 	0.95400 0.10370 0.74225 -0.57600
O 	O 	0.89830 0.22750 0.65761 -0.53000
O 	O 	0.88720 0.86971 0.67804 -0.52300
O 	O 	0.05100 0.01220 0.57627 -0.57900
O 	O 	0.92130 0.80160 0.51708 -0.57400
O 	O 	0.67840 0.85720 0.54351 -0.47700
O 	O 	0.54600 0.89630 0.24225 -0.57600
O 	O 	0.60170 0.77250 0.15761 -0.53100
O 	O 	0.61280 0.13029 0.17804 -0.52300
O 	O 	0.44900 0.98780 0.07627 -0.57500
O 	O 	0.57870 0.19840 0.01708 -0.57500
O 	O 	0.82160 0.14280 0.04351 -0.47700
O 	O 	0.04600 0.60370 0.75775 -0.57600
O 	O 	0.10170 0.72750 0.84239 -0.52900
O 	O 	0.11280 0.36971 0.82196 -0.52300
O 	O 	0.94900 0.51220 0.92373 -0.57800
O 	O 	0.07870 0.30160 0.98292 -0.57400
O 	O 	0.32160 0.35720 0.95649 -0.47800
O 	O 	0.45400 0.39630 0.25775 -0.57700
O 	O 	0.39830 0.27250 0.34239 -0.53100
O 	O 	0.38720 0.63029 0.32196 -0.52300
O 	O 	0.55100 0.48780 0.42373 -0.57500
O 	O 	0.42130 0.69840 0.48292 -0.57500
O 	O 	0.17840 0.64280 0.45649 -0.47800
