data_crystal

_cell_length_a 10.80770
_cell_length_b 14.81090
_cell_length_c 20.33000
_cell_angle_alpha 94.01600
_cell_angle_beta  92.26700
_cell_angle_gamma 109.77900

_symmetry_space_group_name_	'P 1'
_symmetry_space_group_name_H-M	'P 1'

loop_
_symmetry_equiv_pos_as_xyz
  x,y,z

loop_
_atom_site_label
_atom_site_type_symbol
_atom_site_fract_x
_atom_site_fract_y
_atom_site_fract_z
_atom_site_charge
Cd	Cd	0.69487 0.60868 0.33275 1.18200
Cd	Cd	0.80919 0.87519 0.31828 1.18200
O 	O 	0.60080 0.75400 0.32050 -0.50300
O 	O 	0.47550 0.60320 0.32770 -0.41500
O 	O 	0.02670 0.87830 0.31900 -0.41600
O 	O 	0.90550 0.72880 0.33440 -0.49700
O 	O 	0.85060 0.60010 0.68790 -0.25100
O 	O 	0.50330 0.61860 0.98580 -0.24000
O 	O 	0.65990 0.90920 0.66730 -0.25300
O 	O 	0.01300 0.89900 0.98150 -0.07400
N 	N 	0.69570 0.62510 0.44480 -0.27200
N 	N 	0.66170 0.62090 0.65060 -0.24600
H 	H 	0.58890 0.62860 0.66360 0.10400
N 	N 	0.71010 0.62100 0.01640 -0.24900
H 	H 	0.78710 0.62640 0.00110 0.13200
N 	N 	0.69940 0.60610 0.22150 -0.27800
N 	N 	0.81480 0.88000 0.43000 -0.27700
N 	N 	0.84860 0.88910 0.63680 -0.25300
H 	H 	0.92190 0.88250 0.65230 0.10400
N 	N 	0.79600 0.86820 0.99960 -0.24900
H 	H 	0.71790 0.86180 0.98150 0.13000
N 	N 	0.80590 0.85990 0.20640 -0.27400
C 	C 	0.48960 0.69040 0.32480 0.35900
C 	C 	0.36900 0.71880 0.32750 -0.09200
C 	C 	0.37480 0.81190 0.31980 -0.00300
H 	H 	0.45700 0.86000 0.31390 0.01600
C 	C 	0.25950 0.83620 0.32060 -0.03000
H 	H 	0.26460 0.90070 0.31580 0.06100
C 	C 	0.13840 0.76630 0.32840 -0.08500
C 	C 	0.13430 0.67410 0.33730 -0.00900
H 	H 	0.05240 0.62610 0.34380 0.02000
C 	C 	0.24810 0.64990 0.33700 -0.02500
H 	H 	0.24300 0.58590 0.34340 0.05900
C 	C 	0.01480 0.79270 0.32730 0.35700
C 	C 	0.58940 0.62850 0.47510 0.10800
H 	H 	0.51670 0.63130 0.44850 -0.01800
C 	C 	0.57880 0.62820 0.54230 -0.21500
H 	H 	0.50080 0.63180 0.56050 0.08400
C 	C 	0.67960 0.62270 0.58350 0.20500
C 	C 	0.79160 0.62010 0.55310 -0.21700
H 	H 	0.86570 0.61780 0.57870 0.11700
C 	C 	0.79410 0.62090 0.48560 0.11200
H 	H 	0.87160 0.61830 0.46620 -0.03800
C 	C 	0.74530 0.60840 0.69920 0.22400
C 	C 	0.70130 0.60880 0.76800 -0.05100
C 	C 	0.75270 0.56170 0.81210 -0.02500
H 	H 	0.80740 0.52700 0.79720 0.04900
C 	C 	0.72480 0.56520 0.87780 -0.03400
H 	H 	0.76020 0.53260 0.90790 0.04100
C 	C 	0.64440 0.61630 0.90040 -0.04600
C 	C 	0.59020 0.66050 0.85560 -0.02700
H 	H 	0.53300 0.69320 0.87020 0.04500
C 	C 	0.61740 0.65790 0.79030 -0.03700
H 	H 	0.57980 0.68920 0.76010 0.03000
C 	C 	0.61070 0.61850 0.97060 0.22600
C 	C 	0.70070 0.61570 0.08460 0.22500
C 	C 	0.81400 0.62470 0.12290 -0.22600
H 	H 	0.89490 0.63450 0.10290 0.10700
C 	C 	0.80880 0.61930 0.19000 0.11800
H 	H 	0.88750 0.62530 0.21520 -0.03300
C 	C 	0.59020 0.59620 0.18350 0.11400
H 	H 	0.51010 0.58500 0.20460 -0.01800
C 	C 	0.58670 0.60110 0.11620 -0.22300
H 	H 	0.50660 0.59440 0.09200 0.13100
C 	C 	0.92350 0.87910 0.46470 0.10400
H 	H 	0.99620 0.87640 0.44100 -0.01700
C 	C 	0.93490 0.88190 0.53210 -0.21400
H 	H 	0.01360 0.88040 0.55380 0.08200
C 	C 	0.83080 0.88700 0.56920 0.21200
C 	C 	0.72170 0.88990 0.53410 -0.23100
H 	H 	0.64860 0.89490 0.55660 0.12500
C 	C 	0.71800 0.88550 0.46650 0.12400
H 	H 	0.63990 0.88650 0.44390 -0.03900
C 	C 	0.76510 0.90030 0.68170 0.22900
C 	C 	0.80600 0.89750 0.75310 -0.05600
C 	C 	0.89830 0.85580 0.77320 -0.03400
H 	H 	0.94180 0.83010 0.74110 0.02800
C 	C 	0.92620 0.85210 0.84000 -0.03000
H 	H 	0.99160 0.82630 0.85340 0.05200
C 	C 	0.85950 0.88570 0.88760 -0.04500
C 	C 	0.76780 0.92640 0.86700 -0.03600
H 	H 	0.72240 0.95080 0.89880 0.03900
C 	C 	0.74200 0.93160 0.80070 -0.02400
H 	H 	0.67850 0.95930 0.78760 0.04600
C 	C 	0.89420 0.87920 0.95730 0.22600
C 	C 	0.80450 0.86580 0.06770 0.21400
C 	C 	0.92100 0.88000 0.10660 -0.21500
H 	H 	0.00220 0.89100 0.08670 0.12500
C 	C 	0.91560 0.87780 0.17340 0.11400
H 	H 	0.99620 0.88980 0.19870 -0.01500
C 	C 	0.69490 0.84370 0.16820 0.11300
H 	H 	0.61440 0.82960 0.18930 -0.03300
C 	C 	0.68990 0.84620 0.10110 -0.22000
H 	H 	0.60780 0.83450 0.07720 0.10700
O 	O 	0.99000 0.85500 0.96890 -0.17100
Cd	Cd	0.30513 0.39132 0.66725 1.18100
Cd	Cd	0.19081 0.12481 0.68172 1.18100
O 	O 	0.39920 0.24600 0.67950 -0.50400
O 	O 	0.52450 0.39680 0.67230 -0.41600
O 	O 	0.97330 0.12170 0.68100 -0.41700
O 	O 	0.09450 0.27120 0.66560 -0.49800
O 	O 	0.14940 0.39990 0.31210 -0.25100
O 	O 	0.49670 0.38140 0.01420 -0.24000
O 	O 	0.34010 0.09080 0.33270 -0.25300
O 	O 	0.98700 0.10100 0.01850 -0.07400
N 	N 	0.30430 0.37490 0.55520 -0.27200
N 	N 	0.33830 0.37910 0.34940 -0.24600
H 	H 	0.41110 0.37140 0.33640 0.10400
N 	N 	0.28990 0.37900 0.98360 -0.24900
H 	H 	0.21290 0.37360 0.99890 0.13200
N 	N 	0.30060 0.39390 0.77850 -0.27800
N 	N 	0.18520 0.12000 0.57000 -0.27700
N 	N 	0.15140 0.11090 0.36320 -0.25300
H 	H 	0.07810 0.11750 0.34770 0.10400
N 	N 	0.20400 0.13180 0.00040 -0.24900
H 	H 	0.28210 0.13820 0.01850 0.13000
N 	N 	0.19410 0.14010 0.79360 -0.27400
C 	C 	0.51040 0.30960 0.67520 0.35900
C 	C 	0.63100 0.28120 0.67250 -0.09200
C 	C 	0.62520 0.18810 0.68020 -0.00300
H 	H 	0.54300 0.14000 0.68610 0.01600
C 	C 	0.74050 0.16380 0.67940 -0.03000
H 	H 	0.73540 0.09930 0.68420 0.06100
C 	C 	0.86160 0.23370 0.67160 -0.08500
C 	C 	0.86570 0.32590 0.66270 -0.00900
H 	H 	0.94760 0.37390 0.65620 0.02000
C 	C 	0.75190 0.35010 0.66300 -0.02500
H 	H 	0.75700 0.41410 0.65660 0.05900
C 	C 	0.98520 0.20730 0.67270 0.35700
C 	C 	0.41060 0.37150 0.52490 0.10800
H 	H 	0.48330 0.36870 0.55150 -0.01800
C 	C 	0.42120 0.37180 0.45770 -0.21500
H 	H 	0.49920 0.36820 0.43950 0.08400
C 	C 	0.32040 0.37730 0.41650 0.20500
C 	C 	0.20840 0.37990 0.44690 -0.21700
H 	H 	0.13430 0.38220 0.42130 0.11700
C 	C 	0.20590 0.37910 0.51440 0.11200
H 	H 	0.12840 0.38170 0.53380 -0.03800
C 	C 	0.25470 0.39160 0.30080 0.22400
C 	C 	0.29870 0.39120 0.23200 -0.05100
C 	C 	0.24730 0.43830 0.18790 -0.02500
H 	H 	0.19260 0.47300 0.20280 0.04900
C 	C 	0.27520 0.43480 0.12220 -0.03400
H 	H 	0.23980 0.46740 0.09210 0.04100
C 	C 	0.35560 0.38370 0.09960 -0.04600
C 	C 	0.40980 0.33950 0.14440 -0.02700
H 	H 	0.46700 0.30680 0.12980 0.04500
C 	C 	0.38260 0.34210 0.20970 -0.03700
H 	H 	0.42020 0.31080 0.23990 0.03000
C 	C 	0.38930 0.38150 0.02940 0.22600
C 	C 	0.29930 0.38430 0.91540 0.22500
C 	C 	0.18600 0.37530 0.87710 -0.22600
H 	H 	0.10510 0.36550 0.89710 0.10700
C 	C 	0.19120 0.38070 0.81000 0.11800
H 	H 	0.11250 0.37470 0.78480 -0.03300
C 	C 	0.40980 0.40380 0.81650 0.11400
H 	H 	0.48990 0.41500 0.79540 -0.01800
C 	C 	0.41330 0.39890 0.88380 -0.22300
H 	H 	0.49340 0.40560 0.90800 0.13100
C 	C 	0.07650 0.12090 0.53530 0.10400
H 	H 	0.00380 0.12360 0.55900 -0.01700
C 	C 	0.06510 0.11810 0.46790 -0.21400
H 	H 	0.98640 0.11960 0.44620 0.08200
C 	C 	0.16920 0.11300 0.43080 0.21200
C 	C 	0.27830 0.11010 0.46590 -0.23100
H 	H 	0.35140 0.10510 0.44340 0.12500
C 	C 	0.28200 0.11450 0.53350 0.12400
H 	H 	0.36010 0.11350 0.55610 -0.03900
C 	C 	0.23490 0.09970 0.31830 0.22900
C 	C 	0.19400 0.10250 0.24690 -0.05600
C 	C 	0.10170 0.14420 0.22680 -0.03400
H 	H 	0.05820 0.16990 0.25890 0.02800
C 	C 	0.07380 0.14790 0.16000 -0.03000
H 	H 	0.00840 0.17370 0.14660 0.05200
C 	C 	0.14050 0.11430 0.11240 -0.04500
C 	C 	0.23220 0.07360 0.13300 -0.03600
H 	H 	0.27760 0.04920 0.10120 0.03900
C 	C 	0.25800 0.06840 0.19930 -0.02400
H 	H 	0.32150 0.04070 0.21240 0.04600
C 	C 	0.10580 0.12080 0.04270 0.22600
C 	C 	0.19550 0.13420 0.93230 0.21400
C 	C 	0.07900 0.12000 0.89340 -0.21500
H 	H 	0.99780 0.10900 0.91330 0.12500
C 	C 	0.08440 0.12220 0.82660 0.11400
H 	H 	0.00380 0.11020 0.80130 -0.01500
C 	C 	0.30510 0.15630 0.83180 0.11300
H 	H 	0.38560 0.17040 0.81070 -0.03300
C 	C 	0.31010 0.15380 0.89890 -0.22000
H 	H 	0.39220 0.16550 0.92280 0.10700
O 	O 	0.01000 0.14500 0.03110 -0.17100
