data_crystal

_cell_length_a 12.34840
_cell_length_b 12.46600
_cell_length_c 14.09800
_cell_angle_alpha 97.14800
_cell_angle_beta  108.38400
_cell_angle_gamma 119.31500

_symmetry_space_group_name_	'P 1'
_symmetry_space_group_name_H-M	'P 1'

loop_
_symmetry_equiv_pos_as_xyz
  x,y,z

loop_
_atom_site_label
_atom_site_type_symbol
_atom_site_fract_x
_atom_site_fract_y
_atom_site_fract_z
_atom_site_charge
Cu	Cu	0.09316 0.42791 0.58510 0.69900
Cu	Cu	0.83913 0.31478 0.41109 0.70500
Cu	Cu	0.10148 0.50696 0.40835 0.70400
Mn	Mn	0.11058 0.01112 0.10698 1.26600
Mn	Mn	0.25358 0.31832 0.05971 1.16100
S 	S 	0.96085 0.28992 0.33229 -0.55300
S 	S 	0.94951 0.36372 0.66347 -0.55900
S 	S 	0.29938 0.62158 0.65959 -0.55900
O 	O 	0.07580 0.12690 0.20693 -0.46500
O 	O 	0.86250 0.98420 0.18659 -0.37000
O 	O 	0.89700 0.10410 0.78120 -0.44400
O 	O 	0.78010 0.18950 0.79990 -0.33000
O 	O 	0.61980 0.65620 0.78420 -0.53900
O 	O 	0.66830 0.85350 0.78334 -0.47500
O 	O 	0.11310 0.11260 0.99459 -1.17400
N 	N 	0.09670 0.27690 0.51690 -0.28900
N 	N 	0.75620 0.17520 0.47610 -0.28400
N 	N 	0.30480 0.57600 0.47070 -0.29100
C 	C 	0.03870 0.22440 0.41020 0.13600
C 	C 	0.04060 0.12150 0.36090 -0.17200
C 	C 	0.10170 0.07140 0.42320 0.08900
H 	H 	0.10270 0.00190 0.39200 0.00700
C 	C 	0.16160 0.12620 0.53320 -0.17200
H 	H 	0.20400 0.09460 0.57670 0.08700
C 	C 	0.15670 0.22840 0.57640 0.10300
H 	H 	0.19690 0.26510 0.64990 -0.05000
C 	C 	0.98650 0.07280 0.24220 0.37000
C 	C 	0.65010 0.05360 0.41250 0.09300
H 	H 	0.61550 0.03540 0.33940 -0.03000
C 	C 	0.59040 0.95450 0.45100 -0.16000
H 	H 	0.51630 0.87110 0.40510 0.08300
C 	C 	0.64300 0.98200 0.55980 0.08100
H 	H 	0.60470 0.91660 0.58780 0.01100
C 	C 	0.75240 0.10650 0.62660 -0.16000
C 	C 	0.80770 0.20310 0.58150 0.13600
C 	C 	0.81380 0.13670 0.74530 0.36600
C 	C 	0.38200 0.62450 0.57650 0.14800
C 	C 	0.52280 0.67580 0.62070 -0.19300
C 	C 	0.58280 0.67420 0.55310 0.10700
H 	H 	0.67630 0.70720 0.58080 -0.00100
C 	C 	0.50370 0.62340 0.44400 -0.18200
H 	H 	0.54270 0.62140 0.39760 0.08200
C 	C 	0.36610 0.57600 0.40660 0.10900
H 	H 	0.31260 0.54220 0.33360 -0.05600
C 	C 	0.61060 0.73340 0.73970 0.43700
H 	H 	0.13300 0.09800 0.95600 0.52900
Cu	Cu	0.90684 0.57209 0.41490 0.69800
Cu	Cu	0.16087 0.68522 0.58891 0.70400
Cu	Cu	0.89852 0.49304 0.59165 0.70400
Mn	Mn	0.88942 0.98888 0.89302 1.26600
Mn	Mn	0.74642 0.68168 0.94029 1.16100
S 	S 	0.03915 0.71008 0.66771 -0.55300
S 	S 	0.05049 0.63628 0.33653 -0.55900
S 	S 	0.70062 0.37842 0.34041 -0.55900
O 	O 	0.92420 0.87310 0.79307 -0.46500
O 	O 	0.13750 0.01580 0.81341 -0.37000
O 	O 	0.10300 0.89590 0.21880 -0.44400
O 	O 	0.21990 0.81050 0.20010 -0.33000
O 	O 	0.38020 0.34380 0.21580 -0.53900
O 	O 	0.33170 0.14650 0.21666 -0.47500
O 	O 	0.88690 0.88740 0.00541 -1.17400
N 	N 	0.90330 0.72310 0.48310 -0.28900
N 	N 	0.24380 0.82480 0.52390 -0.28400
N 	N 	0.69520 0.42400 0.52930 -0.29100
C 	C 	0.96130 0.77560 0.58980 0.13600
C 	C 	0.95940 0.87850 0.63910 -0.17200
C 	C 	0.89830 0.92860 0.57680 0.08900
H 	H 	0.89730 0.99810 0.60800 0.00700
C 	C 	0.83840 0.87380 0.46680 -0.17200
H 	H 	0.79600 0.90540 0.42330 0.08700
C 	C 	0.84330 0.77160 0.42360 0.10300
H 	H 	0.80310 0.73490 0.35010 -0.05000
C 	C 	0.01350 0.92720 0.75780 0.37000
C 	C 	0.34990 0.94640 0.58750 0.09300
H 	H 	0.38450 0.96460 0.66060 -0.03000
C 	C 	0.40960 0.04550 0.54900 -0.16000
H 	H 	0.48370 0.12890 0.59490 0.08300
C 	C 	0.35700 0.01800 0.44020 0.08100
H 	H 	0.39530 0.08340 0.41220 0.01100
C 	C 	0.24760 0.89350 0.37340 -0.16000
C 	C 	0.19230 0.79690 0.41850 0.13600
C 	C 	0.18620 0.86330 0.25470 0.36600
C 	C 	0.61800 0.37550 0.42350 0.14800
C 	C 	0.47720 0.32420 0.37930 -0.19300
C 	C 	0.41720 0.32580 0.44690 0.10700
H 	H 	0.32370 0.29280 0.41920 -0.00100
C 	C 	0.49630 0.37660 0.55600 -0.18200
H 	H 	0.45730 0.37860 0.60240 0.08200
C 	C 	0.63390 0.42400 0.59340 0.10900
H 	H 	0.68740 0.45780 0.66640 -0.05600
C 	C 	0.38940 0.26660 0.26030 0.43700
H 	H 	0.86700 0.90200 0.04400 0.52900
