data_crystal

_cell_length_a 8.49100
_cell_length_b 19.91500
_cell_length_c 22.07700
_cell_angle_alpha 90.00000
_cell_angle_beta  90.00000
_cell_angle_gamma 90.00000

_symmetry_space_group_name_	'P 1'
_symmetry_space_group_name_H-M	'P 1'

loop_
_symmetry_equiv_pos_as_xyz
  x,y,z

loop_
_atom_site_label
_atom_site_type_symbol
_atom_site_fract_x
_atom_site_fract_y
_atom_site_fract_z
_atom_site_charge
K 	K 	0.14830 0.00610 0.65120 0.66000
K 	K 	0.35170 0.99390 0.15120 0.66000
K 	K 	0.85170 0.50610 0.84880 0.66000
K 	K 	0.64830 0.49390 0.34880 0.66000
Cu	Cu	0.00160 0.07260 0.40672 0.87700
Cu	Cu	0.69480 0.16900 0.36400 0.88000
Cu	Cu	0.49840 0.92740 0.90672 0.87800
Cu	Cu	0.80520 0.83100 0.86400 0.87900
Cu	Cu	0.99840 0.57260 0.09328 0.87700
Cu	Cu	0.30520 0.66900 0.13600 0.87900
Cu	Cu	0.50160 0.42740 0.59328 0.87700
Cu	Cu	0.19480 0.33100 0.63600 0.87900
H 	H 	0.84479 0.16238 0.46065 0.16000
H 	H 	0.83196 0.94859 0.55058 0.07300
H 	H 	0.64787 0.97264 0.62970 0.00500
H 	H 	0.64728 0.08252 0.66964 0.06900
H 	H 	0.77126 0.17040 0.61987 0.00400
H 	H 	0.94629 0.14676 0.54056 0.06700
H 	H 	0.33271 0.88046 0.46387 0.04800
H 	H 	0.40840 0.85631 0.36415 0.03300
H 	H 	0.32198 0.92469 0.28009 0.04900
H 	H 	0.91556 0.09437 0.20849 0.09300
H 	H 	0.83708 0.18128 0.14834 0.00500
H 	H 	0.86651 0.29227 0.18848 0.07100
H 	H 	0.96292 0.30999 0.28588 0.00400
H 	H 	0.05768 0.21749 0.34365 0.06600
H 	H 	0.35555 0.14718 0.18535 0.03500
H 	H 	0.31197 0.26192 0.17362 0.03500
H 	H 	0.43234 0.34040 0.23974 0.04600
H 	H 	0.77723 0.98539 0.25715 0.08200
H 	H 	0.87116 0.88269 0.29085 0.00900
H 	H 	0.84601 0.84983 0.39415 0.06900
H 	H 	0.71551 0.91238 0.46170 0.00400
H 	H 	0.64767 0.02530 0.43362 0.06800
H 	H 	0.65331 0.23620 0.49616 0.06700
H 	H 	0.76184 0.28892 0.58537 -0.00800
H 	H 	0.91637 0.38288 0.57525 0.04100
H 	H 	0.98726 0.42111 0.48364 0.00000
H 	H 	0.89191 0.37111 0.39210 0.07400
H 	H 	0.65521 0.83762 0.96065 0.16000
H 	H 	0.66804 0.05141 0.05058 0.07200
H 	H 	0.85213 0.02736 0.12970 0.00700
H 	H 	0.85272 0.91748 0.16964 0.06700
H 	H 	0.72874 0.82960 0.11987 0.00500
H 	H 	0.55371 0.85324 0.04056 0.06500
H 	H 	0.16729 0.11954 0.96387 0.04800
H 	H 	0.09160 0.14369 0.86415 0.03300
H 	H 	0.17802 0.07531 0.78009 0.04800
H 	H 	0.58444 0.90563 0.70849 0.09200
H 	H 	0.66292 0.81872 0.64834 0.00600
H 	H 	0.63349 0.70773 0.68848 0.07100
H 	H 	0.53708 0.69001 0.78588 0.00500
H 	H 	0.44232 0.78251 0.84365 0.06600
H 	H 	0.14445 0.85282 0.68535 0.03500
H 	H 	0.18803 0.73808 0.67362 0.03500
H 	H 	0.06766 0.65960 0.73974 0.04600
H 	H 	0.72277 0.01461 0.75715 0.08200
H 	H 	0.62884 0.11731 0.79085 0.00900
H 	H 	0.65399 0.15017 0.89415 0.06900
H 	H 	0.78449 0.08762 0.96170 0.00400
H 	H 	0.85233 0.97470 0.93362 0.06900
H 	H 	0.84669 0.76380 0.99616 0.06600
H 	H 	0.73816 0.71108 0.08537 -0.00800
H 	H 	0.58363 0.61712 0.07525 0.04100
H 	H 	0.51274 0.57889 0.98364 0.00000
H 	H 	0.60809 0.62889 0.89210 0.07400
H 	H 	0.15521 0.66238 0.03935 0.16000
H 	H 	0.16804 0.44859 0.94942 0.07300
H 	H 	0.35213 0.47264 0.87030 0.00500
H 	H 	0.35272 0.58252 0.83036 0.06900
H 	H 	0.22874 0.67040 0.88013 0.00400
H 	H 	0.05371 0.64676 0.95944 0.06600
H 	H 	0.66729 0.38046 0.03613 0.04800
H 	H 	0.59160 0.35631 0.13585 0.03300
H 	H 	0.67802 0.42469 0.21991 0.04900
H 	H 	0.08444 0.59437 0.29151 0.09300
H 	H 	0.16292 0.68128 0.35166 0.00500
H 	H 	0.13349 0.79227 0.31152 0.07200
H 	H 	0.03708 0.80999 0.21412 0.00400
H 	H 	0.94232 0.71749 0.15635 0.06600
H 	H 	0.64445 0.64718 0.31465 0.03500
H 	H 	0.68803 0.76192 0.32638 0.03500
H 	H 	0.56766 0.84040 0.26026 0.04600
H 	H 	0.22277 0.48539 0.24285 0.08200
H 	H 	0.12884 0.38269 0.20915 0.00900
H 	H 	0.15399 0.34983 0.10585 0.06900
H 	H 	0.28449 0.41238 0.03830 0.00400
H 	H 	0.35233 0.52530 0.06638 0.06700
H 	H 	0.34669 0.73620 0.00384 0.06700
H 	H 	0.23816 0.78892 0.91463 -0.00800
H 	H 	0.08363 0.88288 0.92475 0.04100
H 	H 	0.01274 0.92111 0.01636 0.00100
H 	H 	0.10809 0.87111 0.10790 0.07400
H 	H 	0.34479 0.33762 0.53935 0.16000
H 	H 	0.33196 0.55141 0.44942 0.07300
H 	H 	0.14787 0.52736 0.37030 0.00500
H 	H 	0.14728 0.41748 0.33036 0.06900
H 	H 	0.27126 0.32960 0.38013 0.00400
H 	H 	0.44629 0.35324 0.45944 0.06600
H 	H 	0.83271 0.61954 0.53613 0.04800
H 	H 	0.90840 0.64369 0.63585 0.03300
H 	H 	0.82198 0.57531 0.71991 0.04900
H 	H 	0.41556 0.40563 0.79151 0.09200
H 	H 	0.33708 0.31872 0.85166 0.00600
H 	H 	0.36651 0.20773 0.81152 0.07100
H 	H 	0.46292 0.19001 0.71412 0.00500
H 	H 	0.55768 0.28251 0.65635 0.06600
H 	H 	0.85555 0.35282 0.81465 0.03500
H 	H 	0.81197 0.23808 0.82638 0.03500
H 	H 	0.93234 0.15960 0.76026 0.04600
H 	H 	0.27723 0.51461 0.74285 0.08200
H 	H 	0.37116 0.61731 0.70915 0.00900
H 	H 	0.34601 0.65017 0.60585 0.06800
H 	H 	0.21551 0.58762 0.53830 0.00400
H 	H 	0.14767 0.47470 0.56638 0.06700
H 	H 	0.15331 0.26380 0.50384 0.06600
H 	H 	0.26184 0.21108 0.41463 -0.00800
H 	H 	0.41637 0.11712 0.42475 0.04100
H 	H 	0.48726 0.07889 0.51636 0.00000
H 	H 	0.39191 0.12889 0.60790 0.07400
C 	C 	0.90500 0.04550 0.53960 0.11700
C 	C 	0.82100 0.99700 0.56660 -0.15500
C 	C 	0.71500 0.00900 0.61300 0.04300
C 	C 	0.70700 0.07400 0.63400 -0.14000
C 	C 	0.78700 0.12400 0.60780 0.06300
C 	C 	0.88600 0.11040 0.56030 -0.16800
C 	C 	0.11100 0.98000 0.49440 0.16300
C 	C 	0.18800 0.96170 0.43840 0.00100
C 	C 	0.29000 0.90800 0.42900 -0.04800
C 	C 	0.34100 0.89700 0.37000 -0.01300
C 	C 	0.29400 0.93600 0.32200 -0.05200
C 	C 	0.19400 0.98900 0.33470 0.00900
C 	C 	0.12500 0.04100 0.29030 0.19100
C 	C 	0.99800 0.14450 0.28170 0.14000
C 	C 	0.92700 0.13800 0.22750 -0.18000
C 	C 	0.88100 0.18900 0.19200 0.06400
C 	C 	0.89900 0.25500 0.21400 -0.13100
C 	C 	0.96200 0.26500 0.27000 0.06000
C 	C 	0.00900 0.20900 0.30340 -0.19200
C 	C 	0.68900 0.01540 0.34240 0.13800
C 	C 	0.76500 0.97400 0.30150 -0.15700
C 	C 	0.82000 0.91300 0.31900 0.05100
C 	C 	0.80300 0.89200 0.37900 -0.13400
C 	C 	0.73300 0.93200 0.41900 0.06400
C 	C 	0.68200 0.99410 0.40100 -0.19200
C 	C 	0.55900 0.08470 0.27460 0.18300
C 	C 	0.50700 0.15780 0.26080 0.01200
C 	C 	0.40800 0.17900 0.21530 -0.04400
C 	C 	0.38100 0.24800 0.20800 -0.02400
C 	C 	0.45200 0.29100 0.24750 -0.04100
C 	C 	0.54700 0.26700 0.29290 -0.00500
C 	C 	0.63700 0.30390 0.34000 0.18500
C 	C 	0.75700 0.29820 0.43680 0.14300
C 	C 	0.72400 0.27490 0.49220 -0.18200
C 	C 	0.78500 0.30500 0.54450 0.04000
C 	C 	0.87900 0.36000 0.53910 -0.15900
C 	C 	0.91700 0.38100 0.48400 0.06000
C 	C 	0.86100 0.35300 0.43250 -0.16400
C 	C 	0.59500 0.95450 0.03960 0.11200
C 	C 	0.67900 0.00300 0.06660 -0.15000
C 	C 	0.78500 0.99100 0.11300 0.03800
C 	C 	0.79300 0.92600 0.13400 -0.13600
C 	C 	0.71300 0.87600 0.10780 0.06000
C 	C 	0.61400 0.88960 0.06030 -0.16500
C 	C 	0.38900 0.02000 0.99440 0.16000
C 	C 	0.31200 0.03830 0.93840 0.00100
C 	C 	0.21000 0.09200 0.92900 -0.04800
C 	C 	0.15900 0.10300 0.87000 -0.01400
C 	C 	0.20600 0.06400 0.82200 -0.05200
C 	C 	0.30600 0.01100 0.83470 0.00800
C 	C 	0.37500 0.95900 0.79030 0.19200
C 	C 	0.50200 0.85550 0.78170 0.13800
C 	C 	0.57300 0.86200 0.72750 -0.17900
C 	C 	0.61900 0.81100 0.69200 0.06300
C 	C 	0.60100 0.74500 0.71400 -0.13000
C 	C 	0.53800 0.73500 0.77000 0.05800
C 	C 	0.49100 0.79100 0.80340 -0.19000
C 	C 	0.81100 0.98460 0.84240 0.13900
C 	C 	0.73500 0.02600 0.80150 -0.15900
C 	C 	0.68000 0.08700 0.81900 0.05200
C 	C 	0.69700 0.10800 0.87900 -0.13500
C 	C 	0.76700 0.06800 0.91900 0.06500
C 	C 	0.81800 0.00590 0.90100 -0.19400
C 	C 	0.94100 0.91530 0.77460 0.18300
C 	C 	0.99300 0.84220 0.76080 0.01100
C 	C 	0.09200 0.82100 0.71530 -0.04400
C 	C 	0.11900 0.75200 0.70800 -0.02400
C 	C 	0.04800 0.70900 0.74750 -0.04000
C 	C 	0.95300 0.73300 0.79290 -0.00600
C 	C 	0.86300 0.69610 0.84000 0.18500
C 	C 	0.74300 0.70180 0.93680 0.14200
C 	C 	0.77600 0.72510 0.99220 -0.18200
C 	C 	0.71500 0.69500 0.04450 0.04000
C 	C 	0.62100 0.64000 0.03910 -0.15900
C 	C 	0.58300 0.61900 0.98400 0.06000
C 	C 	0.63900 0.64700 0.93250 -0.16400
C 	C 	0.09500 0.54550 0.96040 0.11600
C 	C 	0.17900 0.49700 0.93340 -0.15500
C 	C 	0.28500 0.50900 0.88700 0.04300
C 	C 	0.29300 0.57400 0.86600 -0.14000
C 	C 	0.21300 0.62400 0.89220 0.06300
C 	C 	0.11400 0.61040 0.93970 -0.16800
C 	C 	0.88900 0.48000 0.00560 0.16200
C 	C 	0.81200 0.46170 0.06160 0.00100
C 	C 	0.71000 0.40800 0.07100 -0.04800
C 	C 	0.65900 0.39700 0.13000 -0.01300
C 	C 	0.70600 0.43600 0.17800 -0.05200
C 	C 	0.80600 0.48900 0.16530 0.00900
C 	C 	0.87500 0.54100 0.20970 0.19100
C 	C 	0.00200 0.64450 0.21830 0.14100
C 	C 	0.07300 0.63800 0.27250 -0.18100
C 	C 	0.11900 0.68900 0.30800 0.06500
C 	C 	0.10100 0.75500 0.28600 -0.13200
C 	C 	0.03800 0.76500 0.23000 0.06100
C 	C 	0.99100 0.70900 0.19660 -0.19400
C 	C 	0.31100 0.51540 0.15760 0.13700
C 	C 	0.23500 0.47400 0.19850 -0.15600
C 	C 	0.18000 0.41300 0.18100 0.05100
C 	C 	0.19700 0.39200 0.12100 -0.13300
C 	C 	0.26700 0.43200 0.08100 0.06300
C 	C 	0.31800 0.49410 0.09900 -0.19100
C 	C 	0.44100 0.58470 0.22540 0.18300
C 	C 	0.49300 0.65780 0.23920 0.01200
C 	C 	0.59200 0.67900 0.28470 -0.04400
C 	C 	0.61900 0.74800 0.29200 -0.02400
C 	C 	0.54800 0.79100 0.25250 -0.04100
C 	C 	0.45300 0.76700 0.20710 -0.00500
C 	C 	0.36300 0.80390 0.16000 0.18500
C 	C 	0.24300 0.79820 0.06320 0.14300
C 	C 	0.27600 0.77490 0.00780 -0.18200
C 	C 	0.21500 0.80500 0.95550 0.04000
C 	C 	0.12100 0.86000 0.96090 -0.15800
C 	C 	0.08300 0.88100 0.01600 0.06000
C 	C 	0.13900 0.85300 0.06750 -0.16400
C 	C 	0.40500 0.45450 0.46040 0.11500
C 	C 	0.32100 0.50300 0.43340 -0.15400
C 	C 	0.21500 0.49100 0.38700 0.04300
C 	C 	0.20700 0.42600 0.36600 -0.14000
C 	C 	0.28700 0.37600 0.39220 0.06300
C 	C 	0.38600 0.38960 0.43970 -0.16700
C 	C 	0.61100 0.52000 0.50560 0.16200
C 	C 	0.68800 0.53830 0.56160 0.00100
C 	C 	0.79000 0.59200 0.57100 -0.04800
C 	C 	0.84100 0.60300 0.63000 -0.01300
C 	C 	0.79400 0.56400 0.67800 -0.05200
C 	C 	0.69400 0.51100 0.66530 0.00900
C 	C 	0.62500 0.45900 0.70970 0.19100
C 	C 	0.49800 0.35550 0.71830 0.13800
C 	C 	0.42700 0.36200 0.77250 -0.17900
C 	C 	0.38100 0.31100 0.80800 0.06300
C 	C 	0.39900 0.24500 0.78600 -0.13000
C 	C 	0.46200 0.23500 0.73000 0.05800
C 	C 	0.50900 0.29100 0.69660 -0.19000
C 	C 	0.18900 0.48460 0.65760 0.13700
C 	C 	0.26500 0.52600 0.69850 -0.15600
C 	C 	0.32000 0.58700 0.68100 0.05000
C 	C 	0.30300 0.60800 0.62100 -0.13300
C 	C 	0.23300 0.56800 0.58100 0.06300
C 	C 	0.18200 0.50590 0.59900 -0.19100
C 	C 	0.05900 0.41530 0.72540 0.18300
C 	C 	0.00700 0.34220 0.73920 0.01100
C 	C 	0.90800 0.32100 0.78470 -0.04300
C 	C 	0.88100 0.25200 0.79200 -0.02400
C 	C 	0.95200 0.20900 0.75250 -0.04000
C 	C 	0.04700 0.23300 0.70710 -0.00600
C 	C 	0.13700 0.19610 0.66000 0.18600
C 	C 	0.25700 0.20180 0.56320 0.14300
C 	C 	0.22400 0.22510 0.50780 -0.18200
C 	C 	0.28500 0.19500 0.45550 0.04000
C 	C 	0.37900 0.14000 0.46090 -0.15900
C 	C 	0.41700 0.11900 0.51600 0.06000
C 	C 	0.36100 0.14700 0.56750 -0.16400
N 	N 	0.00700 0.03070 0.48900 -0.25700
N 	N 	0.14500 0.99970 0.39060 -0.21700
N 	N 	0.05400 0.09140 0.31860 -0.26700
N 	N 	0.63700 0.07900 0.32640 -0.26500
N 	N 	0.56800 0.19950 0.29880 -0.22200
N 	N 	0.68900 0.26790 0.38520 -0.26200
N 	N 	0.49300 0.96930 0.98900 -0.25400
N 	N 	0.35500 0.00030 0.89060 -0.21700
N 	N 	0.44600 0.90860 0.81860 -0.26700
N 	N 	0.86300 0.92100 0.82640 -0.26500
N 	N 	0.93200 0.80050 0.79880 -0.22200
N 	N 	0.81100 0.73210 0.88520 -0.26200
N 	N 	0.99300 0.53070 0.01100 -0.25600
N 	N 	0.85500 0.49970 0.10940 -0.21700
N 	N 	0.94600 0.59140 0.18140 -0.26800
N 	N 	0.36300 0.57900 0.17360 -0.26500
N 	N 	0.43200 0.69950 0.20120 -0.22200
N 	N 	0.31100 0.76790 0.11480 -0.26200
N 	N 	0.50700 0.46930 0.51100 -0.25600
N 	N 	0.64500 0.50030 0.60940 -0.21700
N 	N 	0.55400 0.40860 0.68140 -0.26700
N 	N 	0.13700 0.42100 0.67360 -0.26500
N 	N 	0.06800 0.30050 0.70120 -0.22200
N 	N 	0.18900 0.23210 0.61480 -0.26200
O 	O 	0.84600 0.14040 0.42020 -0.58300
O 	O 	0.14300 0.94780 0.54220 -0.28100
O 	O 	0.15100 0.03090 0.23640 -0.29200
O 	O 	0.52300 0.04100 0.23680 -0.28800
O 	O 	0.64600 0.36690 0.33410 -0.29400
O 	O 	0.65400 0.85960 0.92020 -0.58300
O 	O 	0.35700 0.05220 0.04220 -0.28000
O 	O 	0.34900 0.96910 0.73640 -0.29200
O 	O 	0.97700 0.95900 0.73680 -0.28800
O 	O 	0.85400 0.63310 0.83410 -0.29500
O 	O 	0.15400 0.64040 0.07980 -0.58300
O 	O 	0.85700 0.44780 0.95780 -0.28100
O 	O 	0.84900 0.53090 0.26360 -0.29200
O 	O 	0.47700 0.54100 0.26320 -0.28800
O 	O 	0.35400 0.86690 0.16590 -0.29400
O 	O 	0.34600 0.35960 0.57980 -0.58300
O 	O 	0.64300 0.55220 0.45780 -0.28100
O 	O 	0.65100 0.46910 0.76360 -0.29200
O 	O 	0.02300 0.45900 0.76320 -0.28800
O 	O 	0.14600 0.13310 0.66590 -0.29500
