data_crystal

_cell_length_a 8.97500
_cell_length_b 19.24300
_cell_length_c 21.13000
_cell_angle_alpha 90.00000
_cell_angle_beta  90.00000
_cell_angle_gamma 90.00000

_symmetry_space_group_name_	'P 1'
_symmetry_space_group_name_H-M	'P 1'

loop_
_symmetry_equiv_pos_as_xyz
  x,y,z

loop_
_atom_site_label
_atom_site_type_symbol
_atom_site_fract_x
_atom_site_fract_y
_atom_site_fract_z
_atom_site_charge
Na	Na	0.13600 0.00490 0.66460 0.59000
Na	Na	0.36400 0.99510 0.16460 0.58900
Na	Na	0.86400 0.50490 0.83540 0.58900
Na	Na	0.63600 0.49510 0.33540 0.58900
Cu	Cu	0.00840 0.07990 0.41019 0.87900
Cu	Cu	0.70370 0.17460 0.36250 0.88000
Cu	Cu	0.49160 0.92010 0.91019 0.88000
Cu	Cu	0.79630 0.82540 0.86250 0.87900
Cu	Cu	0.99160 0.57990 0.08981 0.88000
Cu	Cu	0.29630 0.67460 0.13750 0.88000
Cu	Cu	0.50840 0.42010 0.58981 0.88100
Cu	Cu	0.20370 0.32540 0.63750 0.87900
H 	H 	0.84796 0.16923 0.46059 0.16000
H 	H 	0.85097 0.95344 0.56245 0.08000
H 	H 	0.64809 0.97897 0.63442 0.00200
H 	H 	0.62729 0.09339 0.67177 0.07100
H 	H 	0.74820 0.18449 0.62603 0.00200
H 	H 	0.93473 0.16418 0.55168 0.06400
H 	H 	0.34051 0.89288 0.48083 0.05300
H 	H 	0.44371 0.87400 0.38010 0.03300
H 	H 	0.34575 0.93058 0.29092 0.04600
H 	H 	0.96503 0.09191 0.19782 0.10000
H 	H 	0.83900 0.17921 0.13986 0.00500
H 	H 	0.84200 0.29271 0.18022 0.07500
H 	H 	0.94014 0.31626 0.28001 0.00100
H 	H 	0.03499 0.22732 0.34109 0.07300
H 	H 	0.37940 0.14707 0.17836 0.03800
H 	H 	0.31133 0.26711 0.17501 0.03500
H 	H 	0.44269 0.34930 0.24211 0.05600
H 	H 	0.78123 0.98773 0.25069 0.08000
H 	H 	0.88915 0.87959 0.28597 0.01100
H 	H 	0.88464 0.84574 0.39196 0.06700
H 	H 	0.76243 0.91801 0.46555 0.00100
H 	H 	0.65966 0.02608 0.43231 0.07800
H 	H 	0.66127 0.24363 0.50284 0.06300
H 	H 	0.76244 0.29867 0.59429 0.00200
H 	H 	0.93979 0.38296 0.58688 0.03300
H 	H 	0.00386 0.42337 0.48479 0.01500
H 	H 	0.89801 0.37724 0.39099 0.07300
H 	H 	0.65204 0.83077 0.96059 0.16100
H 	H 	0.64903 0.04656 0.06245 0.07400
H 	H 	0.85191 0.02103 0.13442 0.02000
H 	H 	0.87271 0.90661 0.17177 0.06100
H 	H 	0.75180 0.81551 0.12603 0.00700
H 	H 	0.56527 0.83582 0.05168 0.05900
H 	H 	0.15949 0.10712 0.98083 0.05400
H 	H 	0.05629 0.12600 0.88010 0.03100
H 	H 	0.15425 0.06942 0.79092 0.04900
H 	H 	0.53497 0.90809 0.69782 0.10100
H 	H 	0.66100 0.82079 0.63986 0.00300
H 	H 	0.65800 0.70729 0.68022 0.07600
H 	H 	0.55986 0.68374 0.78001 -0.00100
H 	H 	0.46501 0.77268 0.84109 0.07600
H 	H 	0.12060 0.85293 0.67836 0.03700
H 	H 	0.18867 0.73289 0.67501 0.03500
H 	H 	0.05731 0.65070 0.74211 0.05600
H 	H 	0.71877 0.01227 0.75069 0.07400
H 	H 	0.61085 0.12041 0.78597 0.01800
H 	H 	0.61536 0.15426 0.89196 0.05900
H 	H 	0.73757 0.08199 0.96555 0.01400
H 	H 	0.84034 0.97392 0.93231 0.05800
H 	H 	0.83873 0.75637 0.00284 0.06200
H 	H 	0.73756 0.70133 0.09429 0.00200
H 	H 	0.56021 0.61704 0.08688 0.03200
H 	H 	0.49614 0.57663 0.98479 0.01600
H 	H 	0.60199 0.62276 0.89099 0.07200
H 	H 	0.15204 0.66923 0.03941 0.16100
H 	H 	0.14903 0.45344 0.93755 0.08400
H 	H 	0.35191 0.47897 0.86558 0.00600
H 	H 	0.37271 0.59339 0.82823 0.07000
H 	H 	0.25180 0.68449 0.87397 0.00200
H 	H 	0.06527 0.66418 0.94832 0.06400
H 	H 	0.65949 0.39288 0.01917 0.05400
H 	H 	0.55629 0.37400 0.11990 0.03200
H 	H 	0.65425 0.43058 0.20908 0.04800
H 	H 	0.03497 0.59191 0.30218 0.10000
H 	H 	0.16100 0.67921 0.36014 0.00400
H 	H 	0.15800 0.79271 0.31978 0.07500
H 	H 	0.05986 0.81626 0.21999 0.00100
H 	H 	0.96501 0.72732 0.15891 0.07300
H 	H 	0.62060 0.64707 0.32164 0.03800
H 	H 	0.68867 0.76711 0.32499 0.03500
H 	H 	0.55731 0.84930 0.25789 0.05600
H 	H 	0.21877 0.48773 0.24931 0.07700
H 	H 	0.11085 0.37959 0.21403 0.01500
H 	H 	0.11536 0.34574 0.10804 0.06300
H 	H 	0.23757 0.41801 0.03445 0.00800
H 	H 	0.34034 0.52608 0.06769 0.06700
H 	H 	0.33873 0.74363 0.99716 0.06300
H 	H 	0.23756 0.79867 0.90571 0.00100
H 	H 	0.06021 0.88296 0.91312 0.03300
H 	H 	0.99614 0.92337 0.01521 0.01200
H 	H 	0.10199 0.87724 0.10901 0.07400
H 	H 	0.34796 0.33077 0.53941 0.16000
H 	H 	0.35097 0.54656 0.43755 0.08400
H 	H 	0.14809 0.52103 0.36558 0.00600
H 	H 	0.12729 0.40661 0.32823 0.07000
H 	H 	0.24820 0.31551 0.37397 0.00200
H 	H 	0.43473 0.33582 0.44832 0.06300
H 	H 	0.84051 0.60712 0.51917 0.05400
H 	H 	0.94371 0.62600 0.61990 0.03200
H 	H 	0.84575 0.56942 0.70908 0.04800
H 	H 	0.46503 0.40809 0.80218 0.10100
H 	H 	0.33900 0.32079 0.86014 0.00300
H 	H 	0.34200 0.20729 0.81978 0.07600
H 	H 	0.44014 0.18374 0.71999 -0.00100
H 	H 	0.53499 0.27268 0.65891 0.07600
H 	H 	0.87940 0.35293 0.82164 0.03700
H 	H 	0.81133 0.23289 0.82499 0.03600
H 	H 	0.94269 0.15070 0.75789 0.05600
H 	H 	0.28123 0.51227 0.74931 0.07700
H 	H 	0.38915 0.62041 0.71403 0.01500
H 	H 	0.38464 0.65426 0.60804 0.06300
H 	H 	0.26243 0.58199 0.53445 0.00800
H 	H 	0.15966 0.47392 0.56769 0.06700
H 	H 	0.16127 0.25637 0.49716 0.06200
H 	H 	0.26244 0.20133 0.40571 0.00200
H 	H 	0.43979 0.11704 0.41312 0.03200
H 	H 	0.50386 0.07663 0.51521 0.01600
H 	H 	0.39801 0.12276 0.60901 0.07300
C 	C 	0.90700 0.05500 0.54730 0.11600
C 	C 	0.82600 0.00000 0.57500 -0.15700
C 	C 	0.71900 0.01500 0.61900 0.06300
C 	C 	0.69300 0.08400 0.63700 -0.14100
C 	C 	0.77400 0.13500 0.61200 0.06800
C 	C 	0.87800 0.12300 0.56850 -0.15600
C 	C 	0.12100 0.99390 0.50950 0.17800
C 	C 	0.19900 0.97460 0.45130 0.00100
C 	C 	0.30800 0.92100 0.44490 -0.05500
C 	C 	0.36600 0.91200 0.38600 -0.01100
C 	C 	0.31500 0.94500 0.33420 -0.04700
C 	C 	0.20800 0.99640 0.34150 -0.00700
C 	C 	0.14700 0.04550 0.29290 0.18800
C 	C 	0.00300 0.14750 0.27640 0.14100
C 	C 	0.94400 0.13600 0.21800 -0.18100
C 	C 	0.88400 0.18800 0.18300 0.07200
C 	C 	0.88200 0.25500 0.20600 -0.14300
C 	C 	0.94000 0.26800 0.26500 0.07000
C 	C 	0.99700 0.21570 0.29980 -0.20700
C 	C 	0.70700 0.01510 0.34010 0.13900
C 	C 	0.78100 0.97320 0.29770 -0.15600
C 	C 	0.84100 0.91200 0.31700 0.04900
C 	C 	0.83500 0.88990 0.38000 -0.13200
C 	C 	0.76700 0.93200 0.42160 0.06600
C 	C 	0.70800 0.99400 0.40200 -0.20500
C 	C 	0.57000 0.08500 0.27020 0.21100
C 	C 	0.51100 0.15980 0.25710 -0.00500
C 	C 	0.41800 0.18100 0.21200 -0.03800
C 	C 	0.38700 0.25000 0.20600 -0.01600
C 	C 	0.45600 0.29950 0.24700 -0.06200
C 	C 	0.55100 0.27440 0.28970 0.01300
C 	C 	0.63200 0.31540 0.34020 0.18500
C 	C 	0.75900 0.30730 0.43940 0.12000
C 	C 	0.72600 0.28270 0.49740 -0.17000
C 	C 	0.78900 0.31300 0.55180 0.01000
C 	C 	0.89300 0.36500 0.54800 -0.11700
C 	C 	0.92800 0.38800 0.48700 0.02700
C 	C 	0.86600 0.36100 0.43300 -0.13600
C 	C 	0.59300 0.94500 0.04730 0.09700
C 	C 	0.67400 0.00000 0.07500 -0.13100
C 	C 	0.78100 0.98500 0.11900 0.02300
C 	C 	0.80700 0.91600 0.13700 -0.11600
C 	C 	0.72600 0.86500 0.11200 0.04900
C 	C 	0.62200 0.87700 0.06850 -0.14000
C 	C 	0.37900 0.00610 0.00950 0.18400
C 	C 	0.30100 0.02540 0.95130 0.00500
C 	C 	0.19200 0.07900 0.94490 -0.05800
C 	C 	0.13400 0.08800 0.88600 -0.00500
C 	C 	0.18500 0.05500 0.83420 -0.05300
C 	C 	0.29200 0.00360 0.84150 0.00600
C 	C 	0.35300 0.95450 0.79290 0.18100
C 	C 	0.49700 0.85250 0.77640 0.14600
C 	C 	0.55600 0.86400 0.71800 -0.18700
C 	C 	0.61600 0.81200 0.68300 0.07600
C 	C 	0.61800 0.74500 0.70600 -0.14700
C 	C 	0.56000 0.73200 0.76500 0.07500
C 	C 	0.50300 0.78430 0.79980 -0.21500
C 	C 	0.79300 0.98490 0.84010 0.10000
C 	C 	0.71900 0.02680 0.79770 -0.12300
C 	C 	0.65900 0.08800 0.81700 0.02400
C 	C 	0.66500 0.11010 0.88000 -0.10500
C 	C 	0.73300 0.06800 0.92160 0.03200
C 	C 	0.79200 0.00600 0.90200 -0.15600
C 	C 	0.93000 0.91500 0.77020 0.21000
C 	C 	0.98900 0.84020 0.75710 -0.00700
C 	C 	0.08200 0.81900 0.71200 -0.03600
C 	C 	0.11300 0.75000 0.70600 -0.01700
C 	C 	0.04400 0.70050 0.74700 -0.06000
C 	C 	0.94900 0.72560 0.78970 0.01200
C 	C 	0.86800 0.68460 0.84020 0.18600
C 	C 	0.74100 0.69270 0.93940 0.11900
C 	C 	0.77400 0.71730 0.99740 -0.16800
C 	C 	0.71100 0.68700 0.05180 0.00800
C 	C 	0.60700 0.63500 0.04800 -0.11500
C 	C 	0.57200 0.61200 0.98700 0.02400
C 	C 	0.63400 0.63900 0.93300 -0.13500
C 	C 	0.09300 0.55500 0.95270 0.11600
C 	C 	0.17400 0.50000 0.92500 -0.16300
C 	C 	0.28100 0.51500 0.88100 0.05800
C 	C 	0.30700 0.58400 0.86300 -0.13900
C 	C 	0.22600 0.63500 0.88800 0.06700
C 	C 	0.12200 0.62300 0.93150 -0.15500
C 	C 	0.87900 0.49390 0.99050 0.17900
C 	C 	0.80100 0.47460 0.04870 0.00400
C 	C 	0.69200 0.42100 0.05510 -0.05700
C 	C 	0.63400 0.41200 0.11400 -0.00700
C 	C 	0.68500 0.44500 0.16580 -0.05000
C 	C 	0.79200 0.49640 0.15850 0.00000
C 	C 	0.85300 0.54550 0.20710 0.18400
C 	C 	0.99700 0.64750 0.22360 0.14100
C 	C 	0.05600 0.63600 0.28200 -0.18200
C 	C 	0.11600 0.68800 0.31700 0.07200
C 	C 	0.11800 0.75500 0.29400 -0.14300
C 	C 	0.06000 0.76800 0.23500 0.07000
C 	C 	0.00300 0.71570 0.20020 -0.20800
C 	C 	0.29300 0.51510 0.15990 0.11800
C 	C 	0.21900 0.47320 0.20230 -0.13800
C 	C 	0.15900 0.41200 0.18300 0.03600
C 	C 	0.16500 0.38990 0.12000 -0.11700
C 	C 	0.23300 0.43200 0.07840 0.04700
C 	C 	0.29200 0.49400 0.09800 -0.17800
C 	C 	0.43000 0.58500 0.22980 0.21000
C 	C 	0.48900 0.65980 0.24290 -0.00600
C 	C 	0.58200 0.68100 0.28800 -0.03700
C 	C 	0.61300 0.75000 0.29400 -0.01600
C 	C 	0.54400 0.79950 0.25300 -0.06200
C 	C 	0.44900 0.77440 0.21030 0.01300
C 	C 	0.36800 0.81540 0.15980 0.18600
C 	C 	0.24100 0.80730 0.06060 0.12100
C 	C 	0.27400 0.78270 0.00260 -0.17100
C 	C 	0.21100 0.81300 0.94820 0.01200
C 	C 	0.10700 0.86500 0.95200 -0.11900
C 	C 	0.07200 0.88800 0.01300 0.03000
C 	C 	0.13400 0.86100 0.06700 -0.13800
C 	C 	0.40700 0.44500 0.45270 0.11500
C 	C 	0.32600 0.50000 0.42500 -0.16300
C 	C 	0.21900 0.48500 0.38100 0.05800
C 	C 	0.19300 0.41600 0.36300 -0.13900
C 	C 	0.27400 0.36500 0.38800 0.06700
C 	C 	0.37800 0.37700 0.43150 -0.15500
C 	C 	0.62100 0.50610 0.49050 0.18000
C 	C 	0.69900 0.52540 0.54870 0.00400
C 	C 	0.80800 0.57900 0.55510 -0.05700
C 	C 	0.86600 0.58800 0.61400 -0.00700
C 	C 	0.81500 0.55500 0.66580 -0.05000
C 	C 	0.70800 0.50360 0.65850 0.00000
C 	C 	0.64700 0.45450 0.70710 0.18400
C 	C 	0.50300 0.35250 0.72360 0.14700
C 	C 	0.44400 0.36400 0.78200 -0.18700
C 	C 	0.38400 0.31200 0.81700 0.07600
C 	C 	0.38200 0.24500 0.79400 -0.14700
C 	C 	0.44000 0.23200 0.73500 0.07500
C 	C 	0.49700 0.28430 0.70020 -0.21600
C 	C 	0.20700 0.48490 0.65990 0.11800
C 	C 	0.28100 0.52680 0.70230 -0.13800
C 	C 	0.34100 0.58800 0.68300 0.03600
C 	C 	0.33500 0.61010 0.62000 -0.11700
C 	C 	0.26700 0.56800 0.57840 0.04700
C 	C 	0.20800 0.50600 0.59800 -0.17800
C 	C 	0.07000 0.41500 0.72980 0.21000
C 	C 	0.01100 0.34020 0.74290 -0.00700
C 	C 	0.91800 0.31900 0.78800 -0.03500
C 	C 	0.88700 0.25000 0.79400 -0.01800
C 	C 	0.95600 0.20050 0.75300 -0.05900
C 	C 	0.05100 0.22560 0.71030 0.01100
C 	C 	0.13200 0.18460 0.65980 0.18600
C 	C 	0.25900 0.19270 0.56060 0.12000
C 	C 	0.22600 0.21730 0.50260 -0.17000
C 	C 	0.28900 0.18700 0.44820 0.01000
C 	C 	0.39300 0.13500 0.45200 -0.11600
C 	C 	0.42800 0.11200 0.51300 0.02500
C 	C 	0.36600 0.13900 0.56700 -0.13500
N 	N 	0.01800 0.04200 0.49930 -0.25300
N 	N 	0.15300 0.00820 0.39940 -0.21300
N 	N 	0.06200 0.09590 0.31820 -0.26100
N 	N 	0.64600 0.08170 0.32260 -0.26700
N 	N 	0.57500 0.20710 0.29580 -0.21700
N 	N 	0.68500 0.27520 0.38590 -0.25900
N 	N 	0.48200 0.95800 0.99930 -0.25300
N 	N 	0.34700 0.99180 0.89940 -0.22000
N 	N 	0.43800 0.90410 0.81820 -0.26100
N 	N 	0.85400 0.91830 0.82260 -0.26200
N 	N 	0.92500 0.79290 0.79580 -0.21700
N 	N 	0.81500 0.72480 0.88590 -0.25900
N 	N 	0.98200 0.54200 0.00070 -0.25400
N 	N 	0.84700 0.50820 0.10060 -0.21700
N 	N 	0.93800 0.59590 0.18180 -0.26000
N 	N 	0.35400 0.58170 0.17740 -0.26400
N 	N 	0.42500 0.70710 0.20420 -0.21700
N 	N 	0.31500 0.77520 0.11410 -0.25900
N 	N 	0.51800 0.45800 0.50070 -0.25400
N 	N 	0.65300 0.49180 0.60060 -0.21700
N 	N 	0.56200 0.40410 0.68180 -0.26100
N 	N 	0.14600 0.41830 0.67740 -0.26400
N 	N 	0.07500 0.29290 0.70420 -0.21700
N 	N 	0.18500 0.22480 0.61410 -0.25900
O 	O 	0.85200 0.14560 0.41930 -0.58600
O 	O 	0.15700 0.96490 0.56070 -0.28900
O 	O 	0.17800 0.03700 0.23620 -0.28600
O 	O 	0.53200 0.03970 0.23320 -0.30400
O 	O 	0.64300 0.37960 0.33220 -0.30100
O 	O 	0.64800 0.85440 0.91930 -0.58700
O 	O 	0.34300 0.03510 0.06070 -0.28800
O 	O 	0.32200 0.96300 0.73620 -0.28700
O 	O 	0.96800 0.96030 0.73320 -0.30700
O 	O 	0.85700 0.62040 0.83220 -0.30200
O 	O 	0.14800 0.64560 0.08070 -0.58600
O 	O 	0.84300 0.46490 0.93930 -0.28900
O 	O 	0.82200 0.53700 0.26380 -0.28700
O 	O 	0.46800 0.53970 0.26680 -0.30600
O 	O 	0.35700 0.87960 0.16780 -0.30200
O 	O 	0.35200 0.35440 0.58070 -0.58700
O 	O 	0.65700 0.53510 0.43930 -0.28900
O 	O 	0.67800 0.46300 0.76380 -0.28700
O 	O 	0.03200 0.46030 0.76680 -0.30600
O 	O 	0.14300 0.12040 0.66780 -0.30200
