data_crystal

_cell_length_a 9.07570
_cell_length_b 9.07570
_cell_length_c 15.92200
_cell_angle_alpha 88.45860
_cell_angle_beta  88.45860
_cell_angle_gamma 84.89010

_symmetry_space_group_name_	'P 1'
_symmetry_space_group_name_H-M	'P 1'

loop_
_symmetry_equiv_pos_as_xyz
  x,y,z

loop_
_atom_site_label
_atom_site_type_symbol
_atom_site_fract_x
_atom_site_fract_y
_atom_site_fract_z
_atom_site_charge
Er	Er	0.22202 0.02240 0.48921 1.75900
Er	Er	0.97760 0.77798 0.01079 1.73300
Er	Er	0.77798 0.97760 0.51079 1.76000
Er	Er	0.02240 0.22202 0.98921 1.73400
C 	C 	0.47250 0.90990 0.62960 0.51600
C 	C 	0.22750 0.00390 0.90860 0.32900
C 	C 	0.74260 0.77420 0.90240 0.32400
C 	C 	0.46700 0.85460 0.72150 -0.12900
C 	C 	0.35010 0.95490 0.77000 0.04100
C 	C 	0.33360 0.90100 0.86110 -0.08600
C 	C 	0.48440 0.88380 0.90650 0.01500
C 	C 	0.59840 0.78560 0.85560 -0.07600
C 	C 	0.61680 0.84600 0.76450 0.03300
C 	C 	0.09010 0.52750 0.87040 0.51100
C 	C 	0.99610 0.77250 0.59140 0.34900
C 	C 	0.22580 0.25740 0.59760 0.32500
C 	C 	0.14540 0.53300 0.77850 -0.12700
C 	C 	0.04510 0.64990 0.73000 0.03500
C 	C 	0.09900 0.66640 0.63890 -0.09500
C 	C 	0.11620 0.51560 0.59350 0.01500
C 	C 	0.21440 0.40160 0.64440 -0.07700
C 	C 	0.15400 0.38320 0.73550 0.03100
C 	C 	0.52750 0.09010 0.37040 0.51600
C 	C 	0.77250 0.99610 0.09140 0.32900
C 	C 	0.25740 0.22580 0.09760 0.32400
C 	C 	0.53300 0.14540 0.27850 -0.12900
C 	C 	0.64990 0.04510 0.23000 0.04100
C 	C 	0.66640 0.09900 0.13890 -0.08600
C 	C 	0.51560 0.11620 0.09350 0.01500
C 	C 	0.40160 0.21440 0.14440 -0.07600
C 	C 	0.38320 0.15400 0.23550 0.03300
C 	C 	0.90990 0.47250 0.12960 0.51100
C 	C 	0.00390 0.22750 0.40860 0.34900
C 	C 	0.77420 0.74260 0.40240 0.32500
C 	C 	0.85460 0.46700 0.22150 -0.12700
C 	C 	0.95490 0.35010 0.27000 0.03500
C 	C 	0.90100 0.33360 0.36110 -0.09500
C 	C 	0.88380 0.48440 0.40650 0.01500
C 	C 	0.78560 0.59840 0.35560 -0.07700
C 	C 	0.84600 0.61680 0.26450 0.03100
O 	O 	0.36070 0.90570 0.58790 -0.51700
O 	O 	0.58970 0.95890 0.60030 -0.53500
O 	O 	0.24320 0.14100 0.91170 -0.40600
O 	O 	0.11570 0.95610 0.95000 -0.52300
O 	O 	0.82450 0.87630 0.89920 -0.41600
O 	O 	0.77550 0.66270 0.95120 -0.36800
O 	O 	0.09430 0.63930 0.91210 -0.51300
O 	O 	0.04110 0.41030 0.89970 -0.53200
O 	O 	0.85900 0.75680 0.58830 -0.40900
O 	O 	0.04390 0.88430 0.55000 -0.53700
O 	O 	0.12370 0.17550 0.60080 -0.42400
O 	O 	0.33730 0.22450 0.54880 -0.37500
O 	O 	0.63930 0.09430 0.41210 -0.51700
O 	O 	0.41030 0.04110 0.39970 -0.53500
O 	O 	0.75680 0.85900 0.08830 -0.40600
O 	O 	0.88430 0.04390 0.05000 -0.52300
O 	O 	0.17550 0.12370 0.10080 -0.41600
O 	O 	0.22450 0.33730 0.04880 -0.36800
O 	O 	0.90570 0.36070 0.08790 -0.51300
O 	O 	0.95890 0.58970 0.10030 -0.53200
O 	O 	0.14100 0.24320 0.41170 -0.40900
O 	O 	0.95610 0.11570 0.45000 -0.53700
O 	O 	0.87630 0.82450 0.39920 -0.42400
O 	O 	0.66270 0.77550 0.45120 -0.37500
H 	H 	0.28927 0.05430 0.73679 0.01600
H 	H 	0.49639 0.94086 0.96855 0.02800
H 	H 	0.71852 0.88170 0.72856 0.01900
H 	H 	0.94570 0.71073 0.76321 0.02200
H 	H 	0.05914 0.50361 0.53145 0.02500
H 	H 	0.11830 0.28148 0.77144 0.01800
H 	H 	0.71073 0.94570 0.26321 0.01600
H 	H 	0.50361 0.05914 0.03145 0.02800
H 	H 	0.28148 0.11830 0.27144 0.01900
H 	H 	0.05430 0.28927 0.23679 0.02200
H 	H 	0.94086 0.49639 0.46855 0.02500
H 	H 	0.88170 0.71852 0.22856 0.01800
