data_crystal

_cell_length_a 9.08350
_cell_length_b 9.08350
_cell_length_c 15.91930
_cell_angle_alpha 88.41730
_cell_angle_beta  88.41730
_cell_angle_gamma 84.77170

_symmetry_space_group_name_	'P 1'
_symmetry_space_group_name_H-M	'P 1'

loop_
_symmetry_equiv_pos_as_xyz
  x,y,z

loop_
_atom_site_label
_atom_site_type_symbol
_atom_site_fract_x
_atom_site_fract_y
_atom_site_fract_z
_atom_site_charge
Er	Er	0.47757 0.27785 0.01099 1.75800
Er	Er	0.72215 0.52243 0.48901 1.75800
Er	Er	0.52243 0.72215 0.98901 1.75800
Er	Er	0.27785 0.47757 0.51099 1.75800
H 	H 	0.74450 0.06530 0.77820 0.11600
H 	H 	0.55500 0.84980 0.73270 0.00700
H 	H 	0.71580 0.81100 0.76550 0.00500
H 	H 	0.81480 0.93580 0.64680 0.10000
H 	H 	0.51870 0.98170 0.58930 0.01800
H 	H 	0.65750 0.02930 0.53800 0.00400
H 	H 	0.69830 0.20530 0.63840 0.10800
H 	H 	0.44490 0.12150 0.73050 0.00700
H 	H 	0.54410 0.24410 0.75720 -0.00500
H 	H 	0.93470 0.25550 0.72180 0.11600
H 	H 	0.15020 0.44500 0.76730 0.00700
H 	H 	0.18900 0.28420 0.73450 0.00500
H 	H 	0.06420 0.18520 0.85320 0.10100
H 	H 	0.01830 0.48130 0.91070 0.02000
H 	H 	0.97070 0.34250 0.96200 0.00600
H 	H 	0.79470 0.30170 0.86160 0.10800
H 	H 	0.87850 0.55510 0.76950 0.00700
H 	H 	0.75590 0.45590 0.74280 -0.00500
H 	H 	0.25550 0.93470 0.22180 0.11600
H 	H 	0.44500 0.15020 0.26730 0.00700
H 	H 	0.28420 0.18900 0.23450 0.00500
H 	H 	0.18520 0.06420 0.35320 0.10000
H 	H 	0.48130 0.01830 0.41070 0.01800
H 	H 	0.34250 0.97070 0.46200 0.00400
H 	H 	0.30170 0.79470 0.36160 0.10800
H 	H 	0.55510 0.87850 0.26950 0.00700
H 	H 	0.45590 0.75590 0.24280 -0.00500
H 	H 	0.06530 0.74450 0.27820 0.11600
H 	H 	0.84980 0.55500 0.23270 0.00700
H 	H 	0.81100 0.71580 0.26550 0.00500
H 	H 	0.93580 0.81480 0.14680 0.10100
H 	H 	0.98170 0.51870 0.08930 0.02000
H 	H 	0.02930 0.65750 0.03800 0.00600
H 	H 	0.20530 0.69830 0.13840 0.10800
H 	H 	0.12150 0.44490 0.23050 0.00700
H 	H 	0.24410 0.54410 0.25720 -0.00500
C 	C 	0.64460 0.03280 0.77840 -0.30000
C 	C 	0.65300 0.88400 0.73430 0.08800
C 	C 	0.71600 0.90120 0.64420 -0.22400
C 	C 	0.61570 0.01670 0.59420 0.06300
C 	C 	0.60100 0.16660 0.63850 -0.26100
C 	C 	0.54530 0.14990 0.72980 0.09900
C 	C 	0.58840 0.02560 0.86880 0.55000
C 	C 	0.72710 0.75910 0.59680 0.35700
C 	C 	0.49580 0.27440 0.59040 0.43500
C 	C 	0.96720 0.35540 0.72160 -0.30000
C 	C 	0.11600 0.34700 0.76570 0.08900
C 	C 	0.09880 0.28400 0.85580 -0.22200
C 	C 	0.98330 0.38430 0.90580 0.05700
C 	C 	0.83340 0.39900 0.86150 -0.25900
C 	C 	0.85010 0.45470 0.77020 0.09800
C 	C 	0.97440 0.41160 0.63120 0.54700
C 	C 	0.24090 0.27290 0.90320 0.35700
C 	C 	0.72560 0.50420 0.90960 0.43400
C 	C 	0.35540 0.96720 0.22160 -0.30000
C 	C 	0.34700 0.11600 0.26570 0.08800
C 	C 	0.28400 0.09880 0.35580 -0.22400
C 	C 	0.38430 0.98330 0.40580 0.06300
C 	C 	0.39900 0.83340 0.36150 -0.26100
C 	C 	0.45470 0.85010 0.27020 0.09900
C 	C 	0.41160 0.97440 0.13120 0.55000
C 	C 	0.27290 0.24090 0.40320 0.35700
C 	C 	0.50420 0.72560 0.40960 0.43500
C 	C 	0.03280 0.64460 0.27840 -0.30000
C 	C 	0.88400 0.65300 0.23430 0.08900
C 	C 	0.90120 0.71600 0.14420 -0.22200
C 	C 	0.01670 0.61570 0.09420 0.05700
C 	C 	0.16660 0.60100 0.13850 -0.25900
C 	C 	0.14990 0.54530 0.22980 0.09800
C 	C 	0.02560 0.58840 0.36880 0.54700
C 	C 	0.75910 0.72710 0.09680 0.35700
C 	C 	0.27440 0.49580 0.09040 0.43400
O 	O 	0.59260 0.14080 0.91020 -0.53800
O 	O 	0.53990 0.90950 0.89760 -0.55300
O 	O 	0.83860 0.72600 0.54920 -0.39500
O 	O 	0.62300 0.67660 0.60060 -0.42400
O 	O 	0.54240 0.38260 0.54950 -0.58200
O 	O 	0.36080 0.25640 0.59030 -0.43500
O 	O 	0.85920 0.40740 0.58980 -0.53800
O 	O 	0.09050 0.46010 0.60240 -0.55000
O 	O 	0.27400 0.16140 0.95080 -0.39300
O 	O 	0.32340 0.37700 0.89940 -0.42400
O 	O 	0.61740 0.45760 0.95050 -0.58100
O 	O 	0.74360 0.63920 0.90970 -0.43600
O 	O 	0.40740 0.85920 0.08980 -0.53800
O 	O 	0.46010 0.09050 0.10240 -0.55300
O 	O 	0.16140 0.27400 0.45080 -0.39500
O 	O 	0.37700 0.32340 0.39940 -0.42400
O 	O 	0.45760 0.61740 0.45050 -0.58200
O 	O 	0.63920 0.74360 0.40970 -0.43500
O 	O 	0.14080 0.59260 0.41020 -0.53800
O 	O 	0.90950 0.53990 0.39760 -0.55000
O 	O 	0.72600 0.83860 0.04920 -0.39300
O 	O 	0.67660 0.62300 0.10060 -0.42400
O 	O 	0.38260 0.54240 0.04950 -0.58100
O 	O 	0.25640 0.36080 0.09030 -0.43600
