data_crystal

_cell_length_a 23.53900
_cell_length_b 13.86790
_cell_length_c 11.77810
_cell_angle_alpha 90.00000
_cell_angle_beta  109.33800
_cell_angle_gamma 90.00000

_symmetry_space_group_name_	'P 1'
_symmetry_space_group_name_H-M	'P 1'

loop_
_symmetry_equiv_pos_as_xyz
  x,y,z

loop_
_atom_site_label
_atom_site_type_symbol
_atom_site_fract_x
_atom_site_fract_y
_atom_site_fract_z
_atom_site_charge
Ag	Ag	0.41207 0.91727 0.73463 0.46900
N 	N 	0.37380 0.00773 0.56860 -0.23000
N 	N 	0.32628 0.15758 0.50440 -0.23000
N 	N 	0.39161 0.09163 0.40700 -0.24900
N 	N 	0.43116 0.94050 0.46560 -0.41100
H 	H 	0.44630 0.94200 0.41500 0.15100
H 	H 	0.42710 0.89010 0.49300 0.15100
N 	N 	0.35103 0.24410 0.36130 -0.41800
H 	H 	0.36680 0.25400 0.31300 0.15200
H 	H 	0.33630 0.28900 0.38100 0.16900
C 	C 	0.39830 0.01430 0.47920 0.18800
C 	C 	0.35736 0.16400 0.42510 0.19200
C 	C 	0.33699 0.07919 0.57450 0.09300
C 	C 	0.30441 0.07010 0.66200 -0.06700
C 	C 	0.27495 0.98340 0.66760 -0.05900
H 	H 	0.27690 0.93080 0.61740 0.01700
C 	C 	0.24278 0.97500 0.74730 -0.04800
H 	H 	0.22210 0.91670 0.75070 0.01600
C 	C 	0.24082 0.05160 0.82210 -0.04800
H 	H 	0.21890 0.04540 0.87640 0.02700
C 	C 	0.27083 0.13760 0.81810 -0.05300
H 	H 	0.26980 0.18940 0.87020 0.02400
C 	C 	0.30238 0.14730 0.73700 -0.06300
H 	H 	0.32240 0.20600 0.73290 0.00500
Ag	Ag	0.08793 0.41727 0.76537 0.47200
N 	N 	0.12620 0.50773 0.93140 -0.21300
N 	N 	0.17372 0.65758 0.99560 -0.21000
N 	N 	0.10839 0.59163 0.09300 -0.24500
N 	N 	0.06884 0.44050 0.03440 -0.40200
H 	H 	0.05370 0.44200 0.08500 0.14300
H 	H 	0.07290 0.39010 0.00700 0.13800
N 	N 	0.14897 0.74410 0.13870 -0.41200
H 	H 	0.13320 0.75400 0.18700 0.15000
H 	H 	0.16370 0.78900 0.11900 0.16200
C 	C 	0.10170 0.51430 0.02080 0.15900
C 	C 	0.14264 0.66400 0.07490 0.16700
C 	C 	0.16301 0.57919 0.92550 0.09700
C 	C 	0.19559 0.57010 0.83800 -0.06200
C 	C 	0.22505 0.48340 0.83240 -0.06000
H 	H 	0.22310 0.43080 0.88260 0.02400
C 	C 	0.25722 0.47500 0.75270 -0.04200
H 	H 	0.27790 0.41670 0.74930 0.01400
C 	C 	0.25918 0.55160 0.67790 -0.05500
H 	H 	0.28110 0.54540 0.62360 0.02100
C 	C 	0.22917 0.63760 0.68190 -0.05100
H 	H 	0.23020 0.68940 0.62980 0.01700
C 	C 	0.19762 0.64730 0.76300 -0.06500
H 	H 	0.17760 0.70600 0.76710 0.00800
Ag	Ag	0.08793 0.58273 0.26537 0.46500
N 	N 	0.12620 0.49227 0.43140 -0.23100
N 	N 	0.17372 0.34242 0.49560 -0.23200
N 	N 	0.10839 0.40837 0.59300 -0.25000
N 	N 	0.06884 0.55950 0.53440 -0.41300
H 	H 	0.05370 0.55800 0.58500 0.15300
H 	H 	0.07290 0.60990 0.50700 0.15100
N 	N 	0.14897 0.25590 0.63870 -0.42200
H 	H 	0.13320 0.24600 0.68700 0.15800
H 	H 	0.16370 0.21100 0.61900 0.17100
C 	C 	0.10170 0.48570 0.52080 0.18800
C 	C 	0.14264 0.33600 0.57490 0.19400
C 	C 	0.16301 0.42081 0.42550 0.09300
C 	C 	0.19559 0.42990 0.33800 -0.06800
C 	C 	0.22505 0.51660 0.33240 -0.05800
H 	H 	0.22310 0.56920 0.38260 0.01700
C 	C 	0.25722 0.52500 0.25270 -0.04800
H 	H 	0.27790 0.58330 0.24930 0.01100
C 	C 	0.25918 0.44840 0.17790 -0.05500
H 	H 	0.28110 0.45460 0.12360 0.01300
C 	C 	0.22917 0.36240 0.18190 -0.05500
H 	H 	0.23020 0.31060 0.12980 0.01200
C 	C 	0.19762 0.35270 0.26300 -0.06400
H 	H 	0.17760 0.29400 0.26710 0.00200
Ag	Ag	0.41207 0.08273 0.23463 0.46100
N 	N 	0.37380 0.99227 0.06860 -0.24700
N 	N 	0.32628 0.84242 0.00440 -0.24900
N 	N 	0.39161 0.90837 0.90700 -0.25400
N 	N 	0.43116 0.05950 0.96560 -0.42000
H 	H 	0.44630 0.05800 0.91500 0.16000
H 	H 	0.42710 0.10990 0.99300 0.16400
N 	N 	0.35103 0.75590 0.86130 -0.42900
H 	H 	0.36680 0.74600 0.81300 0.16000
H 	H 	0.33630 0.71100 0.88100 0.17900
C 	C 	0.39830 0.98570 0.97920 0.21200
C 	C 	0.35736 0.83600 0.92510 0.21900
C 	C 	0.33699 0.92081 0.07450 0.08900
C 	C 	0.30441 0.92990 0.16200 -0.06900
C 	C 	0.27495 0.01660 0.16760 -0.06000
H 	H 	0.27690 0.06920 0.11740 0.01100
C 	C 	0.24278 0.02500 0.24730 -0.05100
H 	H 	0.22210 0.08330 0.25070 0.01200
C 	C 	0.24082 0.94840 0.32210 -0.05100
H 	H 	0.21890 0.95460 0.37640 0.01900
C 	C 	0.27083 0.86240 0.31810 -0.05600
H 	H 	0.26980 0.81060 0.37020 0.01800
C 	C 	0.30238 0.85270 0.23700 -0.06300
H 	H 	0.32240 0.79400 0.23290 0.00200
Ag	Ag	0.25000 0.25000 0.50000 0.50200
Ag	Ag	0.25000 0.75000 -0.00000 0.48800
Ag	Ag	0.91207 0.41727 0.73463 0.46800
N 	N 	0.87380 0.50773 0.56860 -0.23100
N 	N 	0.82628 0.65758 0.50440 -0.23100
N 	N 	0.89161 0.59163 0.40700 -0.25000
N 	N 	0.93116 0.44050 0.46560 -0.41100
H 	H 	0.94630 0.44200 0.41500 0.14900
H 	H 	0.92710 0.39010 0.49300 0.15000
N 	N 	0.85103 0.74410 0.36130 -0.41900
H 	H 	0.86680 0.75400 0.31300 0.15200
H 	H 	0.83630 0.78900 0.38100 0.16900
C 	C 	0.89830 0.51430 0.47920 0.18800
C 	C 	0.85736 0.66400 0.42510 0.19200
C 	C 	0.83699 0.57919 0.57450 0.09300
C 	C 	0.80441 0.57010 0.66200 -0.06700
C 	C 	0.77495 0.48340 0.66760 -0.05900
H 	H 	0.77690 0.43080 0.61740 0.01700
C 	C 	0.74278 0.47500 0.74730 -0.04500
H 	H 	0.72210 0.41670 0.75070 0.01600
C 	C 	0.74082 0.55160 0.82210 -0.05200
H 	H 	0.71890 0.54540 0.87640 0.02700
C 	C 	0.77083 0.63760 0.81810 -0.05200
H 	H 	0.76980 0.68940 0.87020 0.02200
C 	C 	0.80238 0.64730 0.73700 -0.06400
H 	H 	0.82240 0.70600 0.73290 0.00500
Ag	Ag	0.58793 0.91727 0.76537 0.47000
N 	N 	0.62620 0.00773 0.93140 -0.21100
N 	N 	0.67372 0.15758 0.99560 -0.20800
N 	N 	0.60839 0.09163 0.09300 -0.24400
N 	N 	0.56884 0.94050 0.03440 -0.40000
H 	H 	0.55370 0.94200 0.08500 0.14200
H 	H 	0.57290 0.89010 0.00700 0.13700
N 	N 	0.64897 0.24410 0.13870 -0.41000
H 	H 	0.63320 0.25400 0.18700 0.14900
H 	H 	0.66370 0.28900 0.11900 0.16100
C 	C 	0.60170 0.01430 0.02080 0.15400
C 	C 	0.64264 0.16400 0.07490 0.16400
C 	C 	0.66301 0.07919 0.92550 0.09700
C 	C 	0.69559 0.07010 0.83800 -0.06000
C 	C 	0.72505 0.98340 0.83240 -0.06300
H 	H 	0.72310 0.93080 0.88260 0.02400
C 	C 	0.75722 0.97500 0.75270 -0.04300
H 	H 	0.77790 0.91670 0.74930 0.01400
C 	C 	0.75918 0.05160 0.67790 -0.05400
H 	H 	0.78110 0.04540 0.62360 0.02100
C 	C 	0.72917 0.13760 0.68190 -0.05000
H 	H 	0.73020 0.18940 0.62980 0.01700
C 	C 	0.69762 0.14730 0.76300 -0.06600
H 	H 	0.67760 0.20600 0.76710 0.00800
Ag	Ag	0.58793 0.08273 0.26537 0.46400
N 	N 	0.62620 0.99227 0.43140 -0.23100
N 	N 	0.67372 0.84242 0.49560 -0.23200
N 	N 	0.60839 0.90837 0.59300 -0.25000
N 	N 	0.56884 0.05950 0.53440 -0.41300
H 	H 	0.55370 0.05800 0.58500 0.15200
H 	H 	0.57290 0.10990 0.50700 0.15000
N 	N 	0.64897 0.75590 0.63870 -0.42100
H 	H 	0.63320 0.74600 0.68700 0.15700
H 	H 	0.66370 0.71100 0.61900 0.17000
C 	C 	0.60170 0.98570 0.52080 0.18700
C 	C 	0.64264 0.83600 0.57490 0.19300
C 	C 	0.66301 0.92081 0.42550 0.09300
C 	C 	0.69559 0.92990 0.33800 -0.06800
C 	C 	0.72505 0.01660 0.33240 -0.05800
H 	H 	0.72310 0.06920 0.38260 0.01700
C 	C 	0.75722 0.02500 0.25270 -0.05200
H 	H 	0.77790 0.08330 0.24930 0.01200
C 	C 	0.75918 0.94840 0.17790 -0.05100
H 	H 	0.78110 0.95460 0.12360 0.01300
C 	C 	0.72917 0.86240 0.18190 -0.05700
H 	H 	0.73020 0.81060 0.12980 0.01300
C 	C 	0.69762 0.85270 0.26300 -0.06300
H 	H 	0.67760 0.79400 0.26710 0.00200
Ag	Ag	0.91207 0.58273 0.23463 0.46200
N 	N 	0.87380 0.49227 0.06860 -0.24900
N 	N 	0.82628 0.34242 0.00440 -0.25000
N 	N 	0.89161 0.40837 0.90700 -0.25500
N 	N 	0.93116 0.55950 0.96560 -0.42200
H 	H 	0.94630 0.55800 0.91500 0.15900
H 	H 	0.92710 0.60990 0.99300 0.16200
N 	N 	0.85103 0.25590 0.86130 -0.43000
H 	H 	0.86680 0.24600 0.81300 0.16000
H 	H 	0.83630 0.21100 0.88100 0.18000
C 	C 	0.89830 0.48570 0.97920 0.21700
C 	C 	0.85736 0.33600 0.92510 0.22100
C 	C 	0.83699 0.42081 0.07450 0.08900
C 	C 	0.80441 0.42990 0.16200 -0.07100
C 	C 	0.77495 0.51660 0.16760 -0.05800
H 	H 	0.77690 0.56920 0.11740 0.01100
C 	C 	0.74278 0.52500 0.24730 -0.05000
H 	H 	0.72210 0.58330 0.25070 0.01200
C 	C 	0.74082 0.44840 0.32210 -0.05200
H 	H 	0.71890 0.45460 0.37640 0.01900
C 	C 	0.77083 0.36240 0.31810 -0.05600
H 	H 	0.76980 0.31060 0.37020 0.01800
C 	C 	0.80238 0.35270 0.23700 -0.06200
H 	H 	0.82240 0.29400 0.23290 0.00100
Ag	Ag	0.75000 0.25000 -0.00000 0.48700
Ag	Ag	0.75000 0.75000 0.50000 0.50200
