data_crystal

_cell_length_a 24.84430
_cell_length_b 12.88360
_cell_length_c 15.05380
_cell_angle_alpha 90.00000
_cell_angle_beta  96.70900
_cell_angle_gamma 90.00000

_symmetry_space_group_name_	'P 1'
_symmetry_space_group_name_H-M	'P 1'

loop_
_symmetry_equiv_pos_as_xyz
  x,y,z

loop_
_atom_site_label
_atom_site_type_symbol
_atom_site_fract_x
_atom_site_fract_y
_atom_site_fract_z
_atom_site_charge
Ce	Ce	0.32881 0.79696 0.03383 2.10200
O 	O 	0.30629 0.74110 0.87850 -0.50700
O 	O 	0.22817 0.65570 0.84840 -0.55200
O 	O 	0.20203 0.45270 0.56060 -0.47800
O 	O 	0.27345 0.36060 0.53670 -0.61900
O 	O 	0.59850 0.66790 0.50160 -0.45800
O 	O 	0.58481 0.82930 0.54030 -0.45700
C 	C 	0.27550 0.67850 0.83410 0.44300
C 	C 	0.29716 0.62780 0.75490 -0.15900
C 	C 	0.26597 0.56010 0.70040 0.09100
H 	H 	0.23020 0.54800 0.71030 0.00900
C 	C 	0.28700 0.50970 0.63110 -0.16700
C 	C 	0.25216 0.43610 0.57300 0.40400
C 	C 	0.33989 0.53060 0.61440 0.02400
H 	H 	0.35440 0.49530 0.56880 0.01800
C 	C 	0.37135 0.60360 0.66490 -0.06900
C 	C 	0.34965 0.65050 0.73650 0.03500
H 	H 	0.37050 0.69760 0.77250 0.03200
C 	C 	0.42532 0.63600 0.64070 0.09800
C 	C 	0.45978 0.56530 0.60720 -0.15000
H 	H 	0.45050 0.49530 0.60440 0.08000
C 	C 	0.50795 0.59720 0.57780 0.06000
H 	H 	0.53080 0.54850 0.55630 0.02000
C 	C 	0.52220 0.70070 0.58000 -0.13100
C 	C 	0.57176 0.73460 0.53830 0.32800
C 	C 	0.48970 0.76970 0.61620 0.06400
H 	H 	0.49990 0.83910 0.62080 0.00900
C 	C 	0.44150 0.73880 0.64640 -0.15100
H 	H 	0.41980 0.78760 0.67080 0.07500
Ce	Ce	0.82881 0.29696 0.03383 2.10300
O 	O 	0.80629 0.24110 0.87850 -0.50600
O 	O 	0.72817 0.15570 0.84840 -0.55100
O 	O 	0.70203 0.95270 0.56060 -0.47700
O 	O 	0.77345 0.86060 0.53670 -0.61900
O 	O 	0.09850 0.16790 0.50160 -0.45800
O 	O 	0.08481 0.32930 0.54030 -0.45700
C 	C 	0.77550 0.17850 0.83410 0.44300
C 	C 	0.79716 0.12780 0.75490 -0.15900
C 	C 	0.76597 0.06010 0.70040 0.09100
H 	H 	0.73020 0.04800 0.71030 0.00900
C 	C 	0.78700 0.00970 0.63110 -0.16700
C 	C 	0.75216 0.93610 0.57300 0.40500
C 	C 	0.83989 0.03060 0.61440 0.02400
H 	H 	0.85440 0.99530 0.56880 0.01800
C 	C 	0.87135 0.10360 0.66490 -0.06900
C 	C 	0.84965 0.15050 0.73650 0.03500
H 	H 	0.87050 0.19760 0.77250 0.03200
C 	C 	0.92532 0.13600 0.64070 0.09900
C 	C 	0.95978 0.06530 0.60720 -0.15000
H 	H 	0.95050 0.99530 0.60440 0.08100
C 	C 	0.00795 0.09720 0.57780 0.06000
H 	H 	0.03080 0.04850 0.55630 0.02000
C 	C 	0.02220 0.20070 0.58000 -0.13200
C 	C 	0.07176 0.23460 0.53830 0.32800
C 	C 	0.98970 0.26970 0.61620 0.06400
H 	H 	0.99990 0.33910 0.62080 0.00900
C 	C 	0.94150 0.23880 0.64640 -0.15100
H 	H 	0.91980 0.28760 0.67080 0.07600
Ce	Ce	0.67119 0.79696 0.46617 2.10300
O 	O 	0.69371 0.74110 0.62150 -0.50600
O 	O 	0.77183 0.65570 0.65160 -0.55100
O 	O 	0.79797 0.45270 0.93940 -0.47600
O 	O 	0.72655 0.36060 0.96330 -0.61800
O 	O 	0.40150 0.66790 0.99840 -0.45700
O 	O 	0.41519 0.82930 0.95970 -0.45600
C 	C 	0.72450 0.67850 0.66590 0.44300
C 	C 	0.70284 0.62780 0.74510 -0.15800
C 	C 	0.73403 0.56010 0.79960 0.09100
H 	H 	0.76980 0.54800 0.78970 0.01000
C 	C 	0.71300 0.50970 0.86890 -0.16600
C 	C 	0.74784 0.43610 0.92700 0.40400
C 	C 	0.66011 0.53060 0.88560 0.02400
H 	H 	0.64560 0.49530 0.93120 0.01800
C 	C 	0.62865 0.60360 0.83510 -0.06900
C 	C 	0.65035 0.65050 0.76350 0.03400
H 	H 	0.62950 0.69760 0.72750 0.03200
C 	C 	0.57468 0.63600 0.85930 0.09800
C 	C 	0.54022 0.56530 0.89280 -0.15000
H 	H 	0.54950 0.49530 0.89560 0.08000
C 	C 	0.49205 0.59720 0.92220 0.06000
H 	H 	0.46920 0.54850 0.94370 0.02000
C 	C 	0.47780 0.70070 0.92000 -0.13100
C 	C 	0.42824 0.73460 0.96170 0.32800
C 	C 	0.51030 0.76970 0.88380 0.06400
H 	H 	0.50010 0.83910 0.87920 0.00900
C 	C 	0.55850 0.73880 0.85360 -0.15100
H 	H 	0.58020 0.78760 0.82920 0.07500
Ce	Ce	0.17119 0.29696 0.46617 2.10300
O 	O 	0.19371 0.24110 0.62150 -0.50600
O 	O 	0.27183 0.15570 0.65160 -0.55100
O 	O 	0.29797 0.95270 0.93940 -0.47700
O 	O 	0.22655 0.86060 0.96330 -0.61900
O 	O 	0.90150 0.16790 0.99840 -0.45700
O 	O 	0.91519 0.32930 0.95970 -0.45600
C 	C 	0.22450 0.17850 0.66590 0.44300
C 	C 	0.20284 0.12780 0.74510 -0.15900
C 	C 	0.23403 0.06010 0.79960 0.09100
H 	H 	0.26980 0.04800 0.78970 0.00900
C 	C 	0.21300 0.00970 0.86890 -0.16800
C 	C 	0.24784 0.93610 0.92700 0.40500
C 	C 	0.16011 0.03060 0.88560 0.02300
H 	H 	0.14560 0.99530 0.93120 0.01900
C 	C 	0.12865 0.10360 0.83510 -0.06900
C 	C 	0.15035 0.15050 0.76350 0.03500
H 	H 	0.12950 0.19760 0.72750 0.03200
C 	C 	0.07468 0.13600 0.85930 0.10000
C 	C 	0.04022 0.06530 0.89280 -0.15600
H 	H 	0.04950 0.99530 0.89560 0.08200
C 	C 	0.99205 0.09720 0.92220 0.06400
H 	H 	0.96920 0.04850 0.94370 0.01800
C 	C 	0.97780 0.20070 0.92000 -0.13000
C 	C 	0.92824 0.23460 0.96170 0.32800
C 	C 	0.01030 0.26970 0.88380 0.06200
H 	H 	0.00010 0.33910 0.87920 0.00900
C 	C 	0.05850 0.23880 0.85360 -0.15100
H 	H 	0.08020 0.28760 0.82920 0.07500
Ce	Ce	0.67119 0.20304 0.96617 2.10300
O 	O 	0.69371 0.25890 0.12150 -0.50600
O 	O 	0.77183 0.34430 0.15160 -0.55100
O 	O 	0.79797 0.54730 0.43940 -0.47700
O 	O 	0.72655 0.63940 0.46330 -0.61900
O 	O 	0.40150 0.33210 0.49840 -0.45800
O 	O 	0.41519 0.17070 0.45970 -0.45700
C 	C 	0.72450 0.32150 0.16590 0.44300
C 	C 	0.70284 0.37220 0.24510 -0.15900
C 	C 	0.73403 0.43990 0.29960 0.09100
H 	H 	0.76980 0.45200 0.28970 0.00900
C 	C 	0.71300 0.49030 0.36890 -0.16700
C 	C 	0.74784 0.56390 0.42700 0.40400
C 	C 	0.66011 0.46940 0.38560 0.02400
H 	H 	0.64560 0.50470 0.43120 0.01800
C 	C 	0.62865 0.39640 0.33510 -0.06900
C 	C 	0.65035 0.34950 0.26350 0.03500
H 	H 	0.62950 0.30240 0.22750 0.03200
C 	C 	0.57468 0.36400 0.35930 0.09800
C 	C 	0.54022 0.43470 0.39280 -0.15000
H 	H 	0.54950 0.50470 0.39560 0.08000
C 	C 	0.49205 0.40280 0.42220 0.06000
H 	H 	0.46920 0.45150 0.44370 0.02000
C 	C 	0.47780 0.29930 0.42000 -0.13100
C 	C 	0.42824 0.26540 0.46170 0.32800
C 	C 	0.51030 0.23030 0.38380 0.06400
H 	H 	0.50010 0.16090 0.37920 0.00900
C 	C 	0.55850 0.26120 0.35360 -0.15100
H 	H 	0.58020 0.21240 0.32920 0.07500
Ce	Ce	0.17119 0.70304 0.96617 2.10300
O 	O 	0.19371 0.75890 0.12150 -0.50600
O 	O 	0.27183 0.84430 0.15160 -0.55100
O 	O 	0.29797 0.04730 0.43940 -0.47700
O 	O 	0.22655 0.13940 0.46330 -0.61900
O 	O 	0.90150 0.83210 0.49840 -0.45800
O 	O 	0.91519 0.67070 0.45970 -0.45700
C 	C 	0.22450 0.82150 0.16590 0.44300
C 	C 	0.20284 0.87220 0.24510 -0.15900
C 	C 	0.23403 0.93990 0.29960 0.09100
H 	H 	0.26980 0.95200 0.28970 0.00900
C 	C 	0.21300 0.99030 0.36890 -0.16700
C 	C 	0.24784 0.06390 0.42700 0.40500
C 	C 	0.16011 0.96940 0.38560 0.02400
H 	H 	0.14560 0.00470 0.43120 0.01800
C 	C 	0.12865 0.89640 0.33510 -0.06900
C 	C 	0.15035 0.84950 0.26350 0.03500
H 	H 	0.12950 0.80240 0.22750 0.03200
C 	C 	0.07468 0.86400 0.35930 0.09900
C 	C 	0.04022 0.93470 0.39280 -0.15000
H 	H 	0.04950 0.00470 0.39560 0.08100
C 	C 	0.99205 0.90280 0.42220 0.06000
H 	H 	0.96920 0.95150 0.44370 0.02000
C 	C 	0.97780 0.79930 0.42000 -0.13200
C 	C 	0.92824 0.76540 0.46170 0.32800
C 	C 	0.01030 0.73030 0.38380 0.06400
H 	H 	0.00010 0.66090 0.37920 0.00900
C 	C 	0.05850 0.76120 0.35360 -0.15100
H 	H 	0.08020 0.71240 0.32920 0.07600
Ce	Ce	0.32881 0.20304 0.53383 2.10300
O 	O 	0.30629 0.25890 0.37850 -0.50600
O 	O 	0.22817 0.34430 0.34840 -0.55100
O 	O 	0.20203 0.54730 0.06060 -0.47600
O 	O 	0.27345 0.63940 0.03670 -0.61800
O 	O 	0.59850 0.33210 0.00160 -0.45700
O 	O 	0.58481 0.17070 0.04030 -0.45600
C 	C 	0.27550 0.32150 0.33410 0.44300
C 	C 	0.29716 0.37220 0.25490 -0.15800
C 	C 	0.26597 0.43990 0.20040 0.09100
H 	H 	0.23020 0.45200 0.21030 0.01000
C 	C 	0.28700 0.49030 0.13110 -0.16600
C 	C 	0.25216 0.56390 0.07300 0.40400
C 	C 	0.33989 0.46940 0.11440 0.02400
H 	H 	0.35440 0.50470 0.06880 0.01800
C 	C 	0.37135 0.39640 0.16490 -0.06900
C 	C 	0.34965 0.34950 0.23650 0.03400
H 	H 	0.37050 0.30240 0.27250 0.03200
C 	C 	0.42532 0.36400 0.14070 0.09800
C 	C 	0.45978 0.43470 0.10720 -0.15000
H 	H 	0.45050 0.50470 0.10440 0.08000
C 	C 	0.50795 0.40280 0.07780 0.06000
H 	H 	0.53080 0.45150 0.05630 0.02000
C 	C 	0.52220 0.29930 0.08000 -0.13100
C 	C 	0.57176 0.26540 0.03830 0.32800
C 	C 	0.48970 0.23030 0.11620 0.06400
H 	H 	0.49990 0.16090 0.12080 0.00900
C 	C 	0.44150 0.26120 0.14640 -0.15100
H 	H 	0.41980 0.21240 0.17080 0.07500
Ce	Ce	0.82881 0.70304 0.53383 2.10300
O 	O 	0.80629 0.75890 0.37850 -0.50600
O 	O 	0.72817 0.84430 0.34840 -0.55100
O 	O 	0.70203 0.04730 0.06060 -0.47700
O 	O 	0.77345 0.13940 0.03670 -0.61900
O 	O 	0.09850 0.83210 0.00160 -0.45700
O 	O 	0.08481 0.67070 0.04030 -0.45600
C 	C 	0.77550 0.82150 0.33410 0.44300
C 	C 	0.79716 0.87220 0.25490 -0.15900
C 	C 	0.76597 0.93990 0.20040 0.09100
H 	H 	0.73020 0.95200 0.21030 0.00900
C 	C 	0.78700 0.99030 0.13110 -0.16800
C 	C 	0.75216 0.06390 0.07300 0.40500
C 	C 	0.83989 0.96940 0.11440 0.02300
H 	H 	0.85440 0.00470 0.06880 0.01900
C 	C 	0.87135 0.89640 0.16490 -0.06900
C 	C 	0.84965 0.84950 0.23650 0.03500
H 	H 	0.87050 0.80240 0.27250 0.03200
C 	C 	0.92532 0.86400 0.14070 0.10000
C 	C 	0.95978 0.93470 0.10720 -0.15600
H 	H 	0.95050 0.00470 0.10440 0.08200
C 	C 	0.00795 0.90280 0.07780 0.06400
H 	H 	0.03080 0.95150 0.05630 0.01800
C 	C 	0.02220 0.79930 0.08000 -0.13000
C 	C 	0.07176 0.76540 0.03830 0.32800
C 	C 	0.98970 0.73030 0.11620 0.06200
H 	H 	0.99990 0.66090 0.12080 0.00900
C 	C 	0.94150 0.76120 0.14640 -0.15100
H 	H 	0.91980 0.71240 0.17080 0.07500
