data_crystal

_cell_length_a 24.57110
_cell_length_b 13.29630
_cell_length_c 14.73130
_cell_angle_alpha 90.00000
_cell_angle_beta  96.73500
_cell_angle_gamma 90.00000

_symmetry_space_group_name_	'P 1'
_symmetry_space_group_name_H-M	'P 1'

loop_
_symmetry_equiv_pos_as_xyz
  x,y,z

loop_
_atom_site_label
_atom_site_type_symbol
_atom_site_fract_x
_atom_site_fract_y
_atom_site_fract_z
_atom_site_charge
Eu	Eu	0.32877 0.79250 0.03020 1.79800
O 	O 	0.30450 0.73430 0.87940 -0.47700
O 	O 	0.22569 0.64930 0.85390 -0.50600
O 	O 	0.20160 0.43960 0.56240 -0.45300
O 	O 	0.27490 0.35300 0.54240 -0.55500
O 	O 	0.60060 0.66600 0.50070 -0.42700
O 	O 	0.58690 0.81970 0.54380 -0.42500
C 	C 	0.27310 0.67240 0.83650 0.46500
C 	C 	0.29510 0.62140 0.75620 -0.17000
C 	C 	0.26420 0.55190 0.70240 0.10000
H 	H 	0.22840 0.53840 0.71330 0.00700
C 	C 	0.28620 0.50240 0.63270 -0.17600
C 	C 	0.25200 0.42640 0.57680 0.43900
C 	C 	0.33920 0.52400 0.61510 0.04700
H 	H 	0.35450 0.48780 0.57040 0.01700
C 	C 	0.37000 0.59910 0.66340 -0.08300
C 	C 	0.34700 0.64490 0.73640 0.05200
H 	H 	0.36750 0.69220 0.77230 0.02700
C 	C 	0.42400 0.63110 0.63870 0.11300
C 	C 	0.45990 0.56350 0.60590 -0.16300
H 	H 	0.45070 0.49570 0.60230 0.08900
C 	C 	0.50890 0.59440 0.57840 0.07200
H 	H 	0.53260 0.54700 0.55840 0.01400
C 	C 	0.52320 0.69570 0.58000 -0.14100
C 	C 	0.57370 0.72810 0.53900 0.34900
C 	C 	0.48850 0.76200 0.61530 0.07700
H 	H 	0.49800 0.82970 0.61940 0.00700
C 	C 	0.44020 0.73140 0.64470 -0.16400
H 	H 	0.41790 0.77840 0.66910 0.08500
Eu	Eu	0.82877 0.29250 0.03020 1.79400
O 	O 	0.80450 0.23430 0.87940 -0.47800
O 	O 	0.72569 0.14930 0.85390 -0.50700
O 	O 	0.70160 0.93960 0.56240 -0.45500
O 	O 	0.77490 0.85300 0.54240 -0.55600
O 	O 	0.10060 0.16600 0.50070 -0.42800
O 	O 	0.08690 0.31970 0.54380 -0.42600
C 	C 	0.77310 0.17240 0.83650 0.46400
C 	C 	0.79510 0.12140 0.75620 -0.17100
C 	C 	0.76420 0.05190 0.70240 0.09900
H 	H 	0.72840 0.03840 0.71330 0.00600
C 	C 	0.78620 0.00240 0.63270 -0.17700
C 	C 	0.75200 0.92640 0.57680 0.43800
C 	C 	0.83920 0.02400 0.61510 0.04600
H 	H 	0.85450 0.98780 0.57040 0.01600
C 	C 	0.87000 0.09910 0.66340 -0.08400
C 	C 	0.84700 0.14490 0.73640 0.05100
H 	H 	0.86750 0.19220 0.77230 0.02600
C 	C 	0.92400 0.13110 0.63870 0.11300
C 	C 	0.95990 0.06350 0.60590 -0.16300
H 	H 	0.95070 0.99570 0.60230 0.08900
C 	C 	0.00890 0.09440 0.57840 0.07100
H 	H 	0.03260 0.04700 0.55840 0.01400
C 	C 	0.02320 0.19570 0.58000 -0.14200
C 	C 	0.07370 0.22810 0.53900 0.34900
C 	C 	0.98850 0.26200 0.61530 0.07800
H 	H 	0.99800 0.32970 0.61940 0.00700
C 	C 	0.94020 0.23140 0.64470 -0.16400
H 	H 	0.91790 0.27840 0.66910 0.08500
Eu	Eu	0.67123 0.79250 0.46980 1.79600
O 	O 	0.69550 0.73430 0.62060 -0.47800
O 	O 	0.77431 0.64930 0.64610 -0.50700
O 	O 	0.79840 0.43960 0.93760 -0.45400
O 	O 	0.72510 0.35300 0.95760 -0.55600
O 	O 	0.39940 0.66600 0.99930 -0.42800
O 	O 	0.41310 0.81970 0.95620 -0.42600
C 	C 	0.72690 0.67240 0.66350 0.46400
C 	C 	0.70490 0.62140 0.74380 -0.17100
C 	C 	0.73580 0.55190 0.79760 0.09900
H 	H 	0.77160 0.53840 0.78670 0.00700
C 	C 	0.71380 0.50240 0.86730 -0.17700
C 	C 	0.74800 0.42640 0.92320 0.43800
C 	C 	0.66080 0.52400 0.88490 0.04600
H 	H 	0.64550 0.48780 0.92960 0.01600
C 	C 	0.63000 0.59910 0.83660 -0.08400
C 	C 	0.65300 0.64490 0.76360 0.05100
H 	H 	0.63250 0.69220 0.72770 0.02600
C 	C 	0.57600 0.63110 0.86130 0.11300
C 	C 	0.54010 0.56350 0.89410 -0.16300
H 	H 	0.54930 0.49570 0.89770 0.08900
C 	C 	0.49110 0.59440 0.92160 0.07200
H 	H 	0.46740 0.54700 0.94160 0.01400
C 	C 	0.47680 0.69570 0.92000 -0.14100
C 	C 	0.42630 0.72810 0.96100 0.34900
C 	C 	0.51150 0.76200 0.88470 0.07700
H 	H 	0.50200 0.82970 0.88060 0.00700
C 	C 	0.55980 0.73140 0.85530 -0.16400
H 	H 	0.58210 0.77840 0.83090 0.08500
Eu	Eu	0.17123 0.29250 0.46980 1.79600
O 	O 	0.19550 0.23430 0.62060 -0.47800
O 	O 	0.27431 0.14930 0.64610 -0.50700
O 	O 	0.29840 0.93960 0.93760 -0.45500
O 	O 	0.22510 0.85300 0.95760 -0.55600
O 	O 	0.89940 0.16600 0.99930 -0.42700
O 	O 	0.91310 0.31970 0.95620 -0.42500
C 	C 	0.22690 0.17240 0.66350 0.46400
C 	C 	0.20490 0.12140 0.74380 -0.17200
C 	C 	0.23580 0.05190 0.79760 0.09900
H 	H 	0.27160 0.03840 0.78670 0.00600
C 	C 	0.21380 0.00240 0.86730 -0.17800
C 	C 	0.24800 0.92640 0.92320 0.43900
C 	C 	0.16080 0.02400 0.88490 0.04500
H 	H 	0.14550 0.98780 0.92960 0.01600
C 	C 	0.13000 0.09910 0.83660 -0.08400
C 	C 	0.15300 0.14490 0.76360 0.05200
H 	H 	0.13250 0.19220 0.72770 0.02600
C 	C 	0.07600 0.13110 0.86130 0.11300
C 	C 	0.04010 0.06350 0.89410 -0.16700
H 	H 	0.04930 0.99570 0.89770 0.09000
C 	C 	0.99110 0.09440 0.92160 0.07400
H 	H 	0.96740 0.04700 0.94160 0.01400
C 	C 	0.97680 0.19570 0.92000 -0.14000
C 	C 	0.92630 0.22810 0.96100 0.34800
C 	C 	0.01150 0.26200 0.88470 0.07500
H 	H 	0.00200 0.32970 0.88060 0.00700
C 	C 	0.05980 0.23140 0.85530 -0.16400
H 	H 	0.08210 0.27840 0.83090 0.08500
Eu	Eu	0.67123 0.20750 0.96980 1.79700
O 	O 	0.69550 0.26570 0.12060 -0.47800
O 	O 	0.77431 0.35070 0.14610 -0.50700
O 	O 	0.79840 0.56040 0.43760 -0.45400
O 	O 	0.72510 0.64700 0.45760 -0.55600
O 	O 	0.39940 0.33400 0.49930 -0.42800
O 	O 	0.41310 0.18030 0.45620 -0.42600
C 	C 	0.72690 0.32760 0.16350 0.46400
C 	C 	0.70490 0.37860 0.24380 -0.17100
C 	C 	0.73580 0.44810 0.29760 0.09900
H 	H 	0.77160 0.46160 0.28670 0.00600
C 	C 	0.71380 0.49760 0.36730 -0.17700
C 	C 	0.74800 0.57360 0.42320 0.43800
C 	C 	0.66080 0.47600 0.38490 0.04600
H 	H 	0.64550 0.51220 0.42960 0.01600
C 	C 	0.63000 0.40090 0.33660 -0.08400
C 	C 	0.65300 0.35510 0.26360 0.05100
H 	H 	0.63250 0.30780 0.22770 0.02600
C 	C 	0.57600 0.36890 0.36130 0.11300
C 	C 	0.54010 0.43650 0.39410 -0.16300
H 	H 	0.54930 0.50430 0.39770 0.08900
C 	C 	0.49110 0.40560 0.42160 0.07200
H 	H 	0.46740 0.45300 0.44160 0.01400
C 	C 	0.47680 0.30430 0.42000 -0.14100
C 	C 	0.42630 0.27190 0.46100 0.34900
C 	C 	0.51150 0.23800 0.38470 0.07700
H 	H 	0.50200 0.17030 0.38060 0.00700
C 	C 	0.55980 0.26860 0.35530 -0.16400
H 	H 	0.58210 0.22160 0.33090 0.08500
Eu	Eu	0.17123 0.70750 0.96980 1.79400
O 	O 	0.19550 0.76570 0.12060 -0.47800
O 	O 	0.27431 0.85070 0.14610 -0.50700
O 	O 	0.29840 0.06040 0.43760 -0.45500
O 	O 	0.22510 0.14700 0.45760 -0.55600
O 	O 	0.89940 0.83400 0.49930 -0.42800
O 	O 	0.91310 0.68030 0.45620 -0.42600
C 	C 	0.22690 0.82760 0.16350 0.46400
C 	C 	0.20490 0.87860 0.24380 -0.17100
C 	C 	0.23580 0.94810 0.29760 0.09900
H 	H 	0.27160 0.96160 0.28670 0.00600
C 	C 	0.21380 0.99760 0.36730 -0.17700
C 	C 	0.24800 0.07360 0.42320 0.43800
C 	C 	0.16080 0.97600 0.38490 0.04600
H 	H 	0.14550 0.01220 0.42960 0.01600
C 	C 	0.13000 0.90090 0.33660 -0.08400
C 	C 	0.15300 0.85510 0.26360 0.05100
H 	H 	0.13250 0.80780 0.22770 0.02600
C 	C 	0.07600 0.86890 0.36130 0.11300
C 	C 	0.04010 0.93650 0.39410 -0.16300
H 	H 	0.04930 0.00430 0.39770 0.08900
C 	C 	0.99110 0.90560 0.42160 0.07100
H 	H 	0.96740 0.95300 0.44160 0.01400
C 	C 	0.97680 0.80430 0.42000 -0.14200
C 	C 	0.92630 0.77190 0.46100 0.34900
C 	C 	0.01150 0.73800 0.38470 0.07800
H 	H 	0.00200 0.67030 0.38060 0.00700
C 	C 	0.05980 0.76860 0.35530 -0.16400
H 	H 	0.08210 0.72160 0.33090 0.08500
Eu	Eu	0.32877 0.20750 0.53020 1.79600
O 	O 	0.30450 0.26570 0.37940 -0.47800
O 	O 	0.22569 0.35070 0.35390 -0.50700
O 	O 	0.20160 0.56040 0.06240 -0.45400
O 	O 	0.27490 0.64700 0.04240 -0.55600
O 	O 	0.60060 0.33400 0.00070 -0.42800
O 	O 	0.58690 0.18030 0.04380 -0.42600
C 	C 	0.27310 0.32760 0.33650 0.46400
C 	C 	0.29510 0.37860 0.25620 -0.17100
C 	C 	0.26420 0.44810 0.20240 0.09900
H 	H 	0.22840 0.46160 0.21330 0.00700
C 	C 	0.28620 0.49760 0.13270 -0.17700
C 	C 	0.25200 0.57360 0.07680 0.43800
C 	C 	0.33920 0.47600 0.11510 0.04600
H 	H 	0.35450 0.51220 0.07040 0.01600
C 	C 	0.37000 0.40090 0.16340 -0.08400
C 	C 	0.34700 0.35510 0.23640 0.05100
H 	H 	0.36750 0.30780 0.27230 0.02600
C 	C 	0.42400 0.36890 0.13870 0.11300
C 	C 	0.45990 0.43650 0.10590 -0.16300
H 	H 	0.45070 0.50430 0.10230 0.08900
C 	C 	0.50890 0.40560 0.07840 0.07200
H 	H 	0.53260 0.45300 0.05840 0.01400
C 	C 	0.52320 0.30430 0.08000 -0.14100
C 	C 	0.57370 0.27190 0.03900 0.34900
C 	C 	0.48850 0.23800 0.11530 0.07700
H 	H 	0.49800 0.17030 0.11940 0.00700
C 	C 	0.44020 0.26860 0.14470 -0.16400
H 	H 	0.41790 0.22160 0.16910 0.08500
Eu	Eu	0.82877 0.70750 0.53020 1.79600
O 	O 	0.80450 0.76570 0.37940 -0.47800
O 	O 	0.72569 0.85070 0.35390 -0.50700
O 	O 	0.70160 0.06040 0.06240 -0.45500
O 	O 	0.77490 0.14700 0.04240 -0.55600
O 	O 	0.10060 0.83400 0.00070 -0.42700
O 	O 	0.08690 0.68030 0.04380 -0.42500
C 	C 	0.77310 0.82760 0.33650 0.46400
C 	C 	0.79510 0.87860 0.25620 -0.17200
C 	C 	0.76420 0.94810 0.20240 0.09900
H 	H 	0.72840 0.96160 0.21330 0.00600
C 	C 	0.78620 0.99760 0.13270 -0.17800
C 	C 	0.75200 0.07360 0.07680 0.43900
C 	C 	0.83920 0.97600 0.11510 0.04500
H 	H 	0.85450 0.01220 0.07040 0.01600
C 	C 	0.87000 0.90090 0.16340 -0.08400
C 	C 	0.84700 0.85510 0.23640 0.05200
H 	H 	0.86750 0.80780 0.27230 0.02600
C 	C 	0.92400 0.86890 0.13870 0.11300
C 	C 	0.95990 0.93650 0.10590 -0.16700
H 	H 	0.95070 0.00430 0.10230 0.09000
C 	C 	0.00890 0.90560 0.07840 0.07400
H 	H 	0.03260 0.95300 0.05840 0.01400
C 	C 	0.02320 0.80430 0.08000 -0.14000
C 	C 	0.07370 0.77190 0.03900 0.34800
C 	C 	0.98850 0.73800 0.11530 0.07500
H 	H 	0.99800 0.67030 0.11940 0.00700
C 	C 	0.94020 0.76860 0.14470 -0.16400
H 	H 	0.91790 0.72160 0.16910 0.08500
