data_crystal

_cell_length_a 18.54910
_cell_length_b 10.29320
_cell_length_c 12.07230
_cell_angle_alpha 90.00000
_cell_angle_beta  90.00000
_cell_angle_gamma 90.00000

_symmetry_space_group_name_	'P 1'
_symmetry_space_group_name_H-M	'P 1'

loop_
_symmetry_equiv_pos_as_xyz
  x,y,z

loop_
_atom_site_label
_atom_site_type_symbol
_atom_site_fract_x
_atom_site_fract_y
_atom_site_fract_z
_atom_site_charge
O 	O 	0.18610 0.92650 0.81690 -0.27500
O 	O 	0.30790 0.57500 0.34660 -0.26900
N 	N 	0.08430 0.66770 0.14070 -0.31100
N 	N 	0.17310 0.71820 0.87340 -0.23300
H 	H 	0.17580 0.63830 0.85310 0.13600
N 	N 	0.41420 0.80980 0.01350 -0.23200
N 	N 	0.32740 0.77840 0.28320 -0.25500
H 	H 	0.32710 0.85920 0.30130 0.14600
C 	C 	0.10620 0.65600 0.03520 0.04900
H 	H 	0.08890 0.58650 0.99380 -0.06300
C 	C 	0.15370 0.74280 0.98470 0.00100
C 	C 	0.18080 0.84380 0.04760 -0.01100
H 	H 	0.21300 0.90310 0.01710 0.05000
C 	C 	0.15940 0.85480 0.15620 -0.11900
H 	H 	0.17700 0.92230 0.19970 0.04700
C 	C 	0.11200 0.76640 0.20070 0.03900
H 	H 	0.09850 0.77500 0.27450 -0.09100
C 	C 	0.18760 0.80960 0.79660 0.20900
C 	C 	0.20670 0.75510 0.68350 -0.09400
H 	H 	0.17550 0.68000 0.66980 0.04200
C 	C 	0.28480 0.70770 0.68170 -0.08000
H 	H 	0.31660 0.77890 0.70120 0.02300
H 	H 	0.29090 0.63970 0.73650 0.03000
C 	C 	0.30580 0.65550 0.56820 -0.06900
H 	H 	0.35640 0.63190 0.56900 0.00400
H 	H 	0.27820 0.57740 0.55320 0.05100
C 	C 	0.29290 0.75200 0.47630 -0.10300
H 	H 	0.32480 0.82680 0.48760 0.05100
C 	C 	0.21470 0.79950 0.47790 -0.07200
H 	H 	0.20850 0.86640 0.42210 0.02600
H 	H 	0.18300 0.72780 0.45940 0.02100
C 	C 	0.19360 0.85380 0.59060 -0.07700
H 	H 	0.14300 0.87760 0.58950 -0.00100
H 	H 	0.22140 0.93180 0.60520 0.05100
C 	C 	0.38540 0.71060 0.95860 -0.10500
H 	H 	0.39910 0.69670 0.88550 -0.03600
C 	C 	0.33600 0.62750 0.00610 0.10100
H 	H 	0.31670 0.55920 0.96530 -0.03700
C 	C 	0.31540 0.64650 0.11460 -0.18500
H 	H 	0.28180 0.59200 0.14780 0.10600
C 	C 	0.34580 0.74830 0.17300 0.15100
C 	C 	0.39530 0.82760 0.12010 -0.08000
H 	H 	0.41630 0.89540 0.15950 0.01500
C 	C 	0.30990 0.69170 0.36450 0.22300
O 	O 	0.81390 0.92650 0.81690 -0.26400
O 	O 	0.69210 0.57500 0.34660 -0.26600
N 	N 	0.91570 0.66770 0.14070 -0.26800
N 	N 	0.82690 0.71820 0.87340 -0.23100
H 	H 	0.82420 0.63830 0.85310 0.14600
N 	N 	0.58580 0.80980 0.01350 -0.23100
N 	N 	0.67260 0.77840 0.28320 -0.25500
H 	H 	0.67290 0.85920 0.30130 0.14600
C 	C 	0.89380 0.65600 0.03520 0.07300
H 	H 	0.91110 0.58650 0.99380 -0.02800
C 	C 	0.84630 0.74280 0.98470 0.01200
C 	C 	0.81920 0.84380 0.04760 -0.00100
H 	H 	0.78700 0.90310 0.01710 0.05000
C 	C 	0.84060 0.85480 0.15620 -0.10700
H 	H 	0.82300 0.92230 0.19970 0.05300
C 	C 	0.88800 0.76640 0.20070 0.05700
H 	H 	0.90150 0.77500 0.27450 -0.05500
C 	C 	0.81240 0.80960 0.79660 0.22600
C 	C 	0.79330 0.75510 0.68350 -0.10300
H 	H 	0.82450 0.68000 0.66980 0.06200
C 	C 	0.71520 0.70770 0.68170 -0.07100
H 	H 	0.68340 0.77890 0.70120 0.02000
H 	H 	0.70910 0.63970 0.73650 0.02700
C 	C 	0.69420 0.65550 0.56820 -0.07700
H 	H 	0.64360 0.63190 0.56900 0.00600
H 	H 	0.72180 0.57740 0.55320 0.05500
C 	C 	0.70710 0.75200 0.47630 -0.09500
H 	H 	0.67520 0.82680 0.48760 0.04900
C 	C 	0.78530 0.79950 0.47790 -0.08400
H 	H 	0.79150 0.86640 0.42210 0.03600
H 	H 	0.81700 0.72780 0.45940 0.03900
C 	C 	0.80640 0.85380 0.59060 -0.07000
H 	H 	0.85700 0.87760 0.58950 0.02300
H 	H 	0.77860 0.93180 0.60520 0.05000
C 	C 	0.61460 0.71060 0.95860 -0.11000
H 	H 	0.60090 0.69670 0.88550 -0.03400
C 	C 	0.66400 0.62750 0.00610 0.10700
H 	H 	0.68330 0.55920 0.96530 -0.04100
C 	C 	0.68460 0.64650 0.11460 -0.19000
H 	H 	0.71820 0.59200 0.14780 0.10800
C 	C 	0.65420 0.74830 0.17300 0.15200
C 	C 	0.60470 0.82760 0.12010 -0.08200
H 	H 	0.58370 0.89540 0.15950 0.01500
C 	C 	0.69010 0.69170 0.36450 0.22100
Zn	Zn	0.50000 0.91796 0.94427 1.07900
Zn	Zn	0.00000 0.55537 0.20741 1.05800
O 	O 	0.31390 0.07350 0.31690 -0.26700
O 	O 	0.19210 0.42500 0.84660 -0.27300
N 	N 	0.41570 0.33230 0.64070 -0.27200
N 	N 	0.32690 0.28180 0.37340 -0.25000
H 	H 	0.32420 0.36170 0.35310 0.14700
N 	N 	0.08580 0.19020 0.51350 -0.29100
N 	N 	0.17260 0.22160 0.78320 -0.24700
H 	H 	0.17290 0.14080 0.80130 0.13900
C 	C 	0.39380 0.34400 0.53520 -0.05000
H 	H 	0.41110 0.41350 0.49380 0.00700
C 	C 	0.34630 0.25720 0.48470 0.10800
C 	C 	0.31920 0.15620 0.54760 -0.09900
H 	H 	0.28700 0.09690 0.51710 0.07300
C 	C 	0.34060 0.14520 0.65620 -0.05500
H 	H 	0.32300 0.07770 0.69970 0.02800
C 	C 	0.38800 0.23360 0.70070 0.01200
H 	H 	0.40150 0.22500 0.77450 -0.06600
C 	C 	0.31240 0.19040 0.29660 0.22700
C 	C 	0.29330 0.24490 0.18350 -0.11200
H 	H 	0.32450 0.32000 0.16980 0.05800
C 	C 	0.21520 0.29230 0.18170 -0.07200
H 	H 	0.18340 0.22110 0.20120 0.01800
H 	H 	0.20910 0.36030 0.23650 0.02500
C 	C 	0.19420 0.34450 0.06820 -0.05600
H 	H 	0.14360 0.36810 0.06900 -0.00300
H 	H 	0.22180 0.42260 0.05320 0.05500
C 	C 	0.20710 0.24800 0.97630 -0.10500
H 	H 	0.17520 0.17320 0.98760 0.03700
C 	C 	0.28530 0.20050 0.97790 -0.11400
H 	H 	0.29150 0.13360 0.92210 0.03800
H 	H 	0.31700 0.27220 0.95940 0.03400
C 	C 	0.30640 0.14620 0.09060 -0.03500
H 	H 	0.35700 0.12240 0.08950 0.00400
H 	H 	0.27860 0.06820 0.10520 0.04400
C 	C 	0.11460 0.28940 0.45860 0.02200
H 	H 	0.10090 0.30330 0.38550 -0.09200
C 	C 	0.16400 0.37250 0.50610 -0.07700
H 	H 	0.18330 0.44080 0.46530 0.03600
C 	C 	0.18460 0.35350 0.61460 -0.09200
H 	H 	0.21820 0.40800 0.64780 0.07000
C 	C 	0.15420 0.25170 0.67300 0.09600
C 	C 	0.10470 0.17240 0.62010 -0.06000
H 	H 	0.08370 0.10460 0.65950 -0.01600
C 	C 	0.19010 0.30830 0.86450 0.21200
O 	O 	0.68610 0.07350 0.31690 -0.26500
O 	O 	0.80790 0.42500 0.84660 -0.26400
N 	N 	0.58430 0.33230 0.64070 -0.27200
N 	N 	0.67310 0.28180 0.37340 -0.24900
H 	H 	0.67580 0.36170 0.35310 0.14700
N 	N 	0.91420 0.19020 0.51350 -0.24600
N 	N 	0.82740 0.22160 0.78320 -0.24700
H 	H 	0.82710 0.14080 0.80130 0.15100
C 	C 	0.60620 0.34400 0.53520 -0.05100
H 	H 	0.58890 0.41350 0.49380 0.00700
C 	C 	0.65370 0.25720 0.48470 0.10800
C 	C 	0.68080 0.15620 0.54760 -0.10100
H 	H 	0.71300 0.09690 0.51710 0.07400
C 	C 	0.65940 0.14520 0.65620 -0.05500
H 	H 	0.67700 0.07770 0.69970 0.02800
C 	C 	0.61200 0.23360 0.70070 0.01200
H 	H 	0.59850 0.22500 0.77450 -0.06600
C 	C 	0.68760 0.19040 0.29660 0.22500
C 	C 	0.70670 0.24490 0.18350 -0.10500
H 	H 	0.67550 0.32000 0.16980 0.05600
C 	C 	0.78480 0.29230 0.18170 -0.08500
H 	H 	0.81660 0.22110 0.20120 0.03800
H 	H 	0.79090 0.36030 0.23650 0.03600
C 	C 	0.80580 0.34450 0.06820 -0.04800
H 	H 	0.85640 0.36810 0.06900 0.02100
H 	H 	0.77820 0.42260 0.05320 0.05400
C 	C 	0.79290 0.24800 0.97630 -0.11600
H 	H 	0.82480 0.17320 0.98760 0.05700
C 	C 	0.71470 0.20050 0.97790 -0.10600
H 	H 	0.70850 0.13360 0.92210 0.03600
H 	H 	0.68300 0.27220 0.95940 0.03100
C 	C 	0.69360 0.14620 0.09060 -0.04100
H 	H 	0.64300 0.12240 0.08950 0.00600
H 	H 	0.72140 0.06820 0.10520 0.04800
C 	C 	0.88540 0.28940 0.45860 0.03400
H 	H 	0.89910 0.30330 0.38550 -0.05500
C 	C 	0.83600 0.37250 0.50610 -0.05700
H 	H 	0.81670 0.44080 0.46530 0.03900
C 	C 	0.81540 0.35350 0.61460 -0.09300
H 	H 	0.78180 0.40800 0.64780 0.07400
C 	C 	0.84580 0.25170 0.67300 0.11900
C 	C 	0.89530 0.17240 0.62010 -0.04900
H 	H 	0.91630 0.10460 0.65950 0.02900
C 	C 	0.80990 0.30830 0.86450 0.23000
Zn	Zn	-0.00000 0.08204 0.44427 1.05500
Zn	Zn	0.50000 0.44463 0.70741 1.08900
