data_crystal

_cell_length_a 16.09140
_cell_length_b 16.09140
_cell_length_c 28.18700
_cell_angle_alpha 90.00000
_cell_angle_beta  90.00000
_cell_angle_gamma 90.00000

_symmetry_space_group_name_	'P 1'
_symmetry_space_group_name_H-M	'P 1'

loop_
_symmetry_equiv_pos_as_xyz
  x,y,z

loop_
_atom_site_label
_atom_site_type_symbol
_atom_site_fract_x
_atom_site_fract_y
_atom_site_fract_z
_atom_site_charge
C 	C 	0.33590 0.92750 0.33885 0.11100
H 	H 	0.31680 0.87710 0.35090 -0.09900
C 	C 	0.39470 0.92760 0.30308 -0.27100
H 	H 	0.41380 0.87710 0.29120 0.08700
N 	N 	0.16811 0.04134 0.45175 -0.18400
N 	N 	0.21672 0.06902 0.41717 -0.24600
C 	C 	0.83590 0.42750 0.83885 0.14800
H 	H 	0.81680 0.37710 0.85090 -0.03900
C 	C 	0.89470 0.42760 0.80308 -0.22300
H 	H 	0.91380 0.37710 0.79120 0.10500
N 	N 	0.66811 0.54134 0.95175 0.40300
N 	N 	0.71672 0.56902 0.91717 -0.13900
C 	C 	0.66410 0.07250 0.33885 0.12400
H 	H 	0.68320 0.12290 0.35090 -0.10200
C 	C 	0.60530 0.07240 0.30308 -0.26000
H 	H 	0.58620 0.12290 0.29120 0.08400
N 	N 	0.83189 0.95866 0.45175 -0.19700
N 	N 	0.78328 0.93098 0.41717 -0.25200
C 	C 	0.16410 0.57250 0.83885 0.15800
H 	H 	0.18320 0.62290 0.85090 -0.04100
C 	C 	0.10530 0.57240 0.80308 -0.23100
H 	H 	0.08620 0.62290 0.79120 0.11300
N 	N 	0.33189 0.45866 0.95175 0.40300
N 	N 	0.28328 0.43098 0.91717 -0.13800
C 	C 	0.07250 0.33590 0.33885 0.12400
H 	H 	0.12290 0.31680 0.35090 -0.10100
C 	C 	0.07240 0.39470 0.30308 -0.25900
H 	H 	0.12290 0.41380 0.29120 0.08400
N 	N 	0.95866 0.16811 0.45175 -0.19600
N 	N 	0.93098 0.21672 0.41717 -0.25200
C 	C 	0.57250 0.83590 0.83885 0.14800
H 	H 	0.62290 0.81680 0.85090 -0.04000
C 	C 	0.57240 0.89470 0.80308 -0.22300
H 	H 	0.62290 0.91380 0.79120 0.10500
N 	N 	0.45866 0.66811 0.95175 0.40300
N 	N 	0.43098 0.71672 0.91717 -0.13900
C 	C 	0.92750 0.66410 0.33885 0.11300
H 	H 	0.87710 0.68320 0.35090 -0.10000
C 	C 	0.92760 0.60530 0.30308 -0.27200
H 	H 	0.87710 0.58620 0.29120 0.08700
N 	N 	0.04134 0.83189 0.45175 -0.18600
N 	N 	0.06902 0.78328 0.41717 -0.24600
C 	C 	0.42750 0.16410 0.83885 0.15800
H 	H 	0.37710 0.18320 0.85090 -0.04000
C 	C 	0.42760 0.10530 0.80308 -0.23100
H 	H 	0.37710 0.08620 0.79120 0.11400
N 	N 	0.54134 0.33189 0.95175 0.40300
N 	N 	0.56902 0.28328 0.91717 -0.13900
C 	C 	0.66410 0.92750 0.66115 0.12900
H 	H 	0.68320 0.87710 0.64910 -0.09200
C 	C 	0.60530 0.92760 0.69692 -0.27200
H 	H 	0.58620 0.87710 0.70880 0.10500
N 	N 	0.83189 0.04134 0.54825 -0.18400
N 	N 	0.78328 0.06902 0.58283 -0.24300
C 	C 	0.16410 0.42750 0.16115 0.10800
H 	H 	0.18320 0.37710 0.14910 -0.14700
C 	C 	0.10530 0.42760 0.19692 -0.27900
H 	H 	0.08620 0.37710 0.20880 0.07700
N 	N 	0.33189 0.54134 0.04825 -0.66900
N 	N 	0.28328 0.56902 0.08283 -0.33600
C 	C 	0.33590 0.07250 0.66115 0.14000
H 	H 	0.31680 0.12290 0.64910 -0.09200
C 	C 	0.39470 0.07240 0.69692 -0.26000
H 	H 	0.41380 0.12290 0.70880 0.10300
N 	N 	0.16811 0.95866 0.54825 -0.19400
N 	N 	0.21672 0.93098 0.58283 -0.24900
C 	C 	0.83590 0.57250 0.16115 0.09700
H 	H 	0.81680 0.62290 0.14910 -0.14700
C 	C 	0.89470 0.57240 0.19692 -0.27000
H 	H 	0.91380 0.62290 0.20880 0.06700
N 	N 	0.66811 0.45866 0.04825 -0.67000
N 	N 	0.71672 0.43098 0.08283 -0.33600
C 	C 	0.92750 0.33590 0.66115 0.12800
H 	H 	0.87710 0.31680 0.64910 -0.09100
C 	C 	0.92760 0.39470 0.69692 -0.27100
H 	H 	0.87710 0.41380 0.70880 0.10500
N 	N 	0.04134 0.16811 0.54825 -0.18200
N 	N 	0.06902 0.21672 0.58283 -0.24300
C 	C 	0.42750 0.83590 0.16115 0.09800
H 	H 	0.37710 0.81680 0.14910 -0.14600
C 	C 	0.42760 0.89470 0.19692 -0.27000
H 	H 	0.37710 0.91380 0.20880 0.06800
N 	N 	0.54134 0.66811 0.04825 -0.67000
N 	N 	0.56902 0.71672 0.08283 -0.33700
C 	C 	0.07250 0.66410 0.66115 0.14000
H 	H 	0.12290 0.68320 0.64910 -0.09300
C 	C 	0.07240 0.60530 0.69692 -0.26100
H 	H 	0.12290 0.58620 0.70880 0.10300
N 	N 	0.95866 0.83189 0.54825 -0.19400
N 	N 	0.93098 0.78328 0.58283 -0.24900
C 	C 	0.57250 0.16410 0.16115 0.10700
H 	H 	0.62290 0.18320 0.14910 -0.14800
C 	C 	0.57240 0.10530 0.19692 -0.27900
H 	H 	0.62290 0.08620 0.20880 0.07500
N 	N 	0.45866 0.33189 0.04825 -0.66900
N 	N 	0.43098 0.28328 0.08283 -0.33600
C 	C 	0.66410 0.07250 0.66115 0.14000
H 	H 	0.68320 0.12290 0.64910 -0.09300
C 	C 	0.60530 0.07240 0.69692 -0.26100
H 	H 	0.58620 0.12290 0.70880 0.10300
N 	N 	0.83189 0.95866 0.54825 -0.19400
N 	N 	0.78328 0.93098 0.58283 -0.24900
C 	C 	0.16410 0.57250 0.16115 0.10700
H 	H 	0.18320 0.62290 0.14910 -0.14800
C 	C 	0.10530 0.57240 0.19692 -0.27900
H 	H 	0.08620 0.62290 0.20880 0.07500
N 	N 	0.33189 0.45866 0.04825 -0.66900
N 	N 	0.28328 0.43098 0.08283 -0.33600
C 	C 	0.33590 0.92750 0.66115 0.12800
H 	H 	0.31680 0.87710 0.64910 -0.09100
C 	C 	0.39470 0.92760 0.69692 -0.27100
H 	H 	0.41380 0.87710 0.70880 0.10500
N 	N 	0.16811 0.04134 0.54825 -0.18200
N 	N 	0.21672 0.06902 0.58283 -0.24300
C 	C 	0.83590 0.42750 0.16115 0.09800
H 	H 	0.81680 0.37710 0.14910 -0.14600
C 	C 	0.89470 0.42760 0.19692 -0.27000
H 	H 	0.91380 0.37710 0.20880 0.06800
N 	N 	0.66811 0.54134 0.04825 -0.67000
N 	N 	0.71672 0.56902 0.08283 -0.33700
C 	C 	0.92750 0.66410 0.66115 0.12900
H 	H 	0.87710 0.68320 0.64910 -0.09200
C 	C 	0.92760 0.60530 0.69692 -0.27200
H 	H 	0.87710 0.58620 0.70880 0.10500
N 	N 	0.04134 0.83189 0.54825 -0.18400
N 	N 	0.06902 0.78328 0.58283 -0.24300
C 	C 	0.42750 0.16410 0.16115 0.10800
H 	H 	0.37710 0.18320 0.14910 -0.14700
C 	C 	0.42760 0.10530 0.19692 -0.27900
H 	H 	0.37710 0.08620 0.20880 0.07700
N 	N 	0.54134 0.33189 0.04825 -0.66900
N 	N 	0.56902 0.28328 0.08283 -0.33600
C 	C 	0.07250 0.33590 0.66115 0.14000
H 	H 	0.12290 0.31680 0.64910 -0.09200
C 	C 	0.07240 0.39470 0.69692 -0.26000
H 	H 	0.12290 0.41380 0.70880 0.10300
N 	N 	0.95866 0.16811 0.54825 -0.19400
N 	N 	0.93098 0.21672 0.58283 -0.24900
C 	C 	0.57250 0.83590 0.16115 0.09700
H 	H 	0.62290 0.81680 0.14910 -0.14700
C 	C 	0.57240 0.89470 0.19692 -0.27000
H 	H 	0.62290 0.91380 0.20880 0.06700
N 	N 	0.45866 0.66811 0.04825 -0.67000
N 	N 	0.43098 0.71672 0.08283 -0.33600
C 	C 	0.33590 0.07250 0.33885 0.12400
H 	H 	0.31680 0.12290 0.35090 -0.10100
C 	C 	0.39470 0.07240 0.30308 -0.25900
H 	H 	0.41380 0.12290 0.29120 0.08400
N 	N 	0.16811 0.95866 0.45175 -0.19600
N 	N 	0.21672 0.93098 0.41717 -0.25200
C 	C 	0.83590 0.57250 0.83885 0.14800
H 	H 	0.81680 0.62290 0.85090 -0.04000
C 	C 	0.89470 0.57240 0.80308 -0.22300
H 	H 	0.91380 0.62290 0.79120 0.10500
N 	N 	0.66811 0.45866 0.95175 0.40300
N 	N 	0.71672 0.43098 0.91717 -0.13900
C 	C 	0.66410 0.92750 0.33885 0.11300
H 	H 	0.68320 0.87710 0.35090 -0.10000
C 	C 	0.60530 0.92760 0.30308 -0.27200
H 	H 	0.58620 0.87710 0.29120 0.08700
N 	N 	0.83189 0.04134 0.45175 -0.18600
N 	N 	0.78328 0.06902 0.41717 -0.24600
C 	C 	0.16410 0.42750 0.83885 0.15800
H 	H 	0.18320 0.37710 0.85090 -0.04000
C 	C 	0.10530 0.42760 0.80308 -0.23100
H 	H 	0.08620 0.37710 0.79120 0.11400
N 	N 	0.33189 0.54134 0.95175 0.40300
N 	N 	0.28328 0.56902 0.91717 -0.13900
C 	C 	0.07250 0.66410 0.33885 0.12400
H 	H 	0.12290 0.68320 0.35090 -0.10200
C 	C 	0.07240 0.60530 0.30308 -0.26000
H 	H 	0.12290 0.58620 0.29120 0.08400
N 	N 	0.95866 0.83189 0.45175 -0.19700
N 	N 	0.93098 0.78328 0.41717 -0.25200
C 	C 	0.57250 0.16410 0.83885 0.15800
H 	H 	0.62290 0.18320 0.85090 -0.04100
C 	C 	0.57240 0.10530 0.80308 -0.23100
H 	H 	0.62290 0.08620 0.79120 0.11300
N 	N 	0.45866 0.33189 0.95175 0.40300
N 	N 	0.43098 0.28328 0.91717 -0.13800
C 	C 	0.92750 0.33590 0.33885 0.11200
H 	H 	0.87710 0.31680 0.35090 -0.09900
C 	C 	0.92760 0.39470 0.30308 -0.27100
H 	H 	0.87710 0.41380 0.29120 0.08700
N 	N 	0.04134 0.16811 0.45175 -0.18400
N 	N 	0.06902 0.21672 0.41717 -0.24600
C 	C 	0.42750 0.83590 0.83885 0.14800
H 	H 	0.37710 0.81680 0.85090 -0.03900
C 	C 	0.42760 0.89470 0.80308 -0.22300
H 	H 	0.37710 0.91380 0.79120 0.10500
N 	N 	0.54134 0.66811 0.95175 0.40300
N 	N 	0.56902 0.71672 0.91717 -0.13900
Cu	Cu	0.10836 0.10836 0.50000 0.82500
Cu	Cu	0.60836 0.60836 -0.00000 0.46900
Cu	Cu	0.89164 0.89164 0.50000 0.81900
Cu	Cu	0.39164 0.39164 -0.00000 0.47000
Cu	Cu	0.89164 0.10836 0.50000 0.82200
Cu	Cu	0.39164 0.60836 -0.00000 0.46900
Cu	Cu	0.10836 0.89164 0.50000 0.82200
Cu	Cu	0.60836 0.39164 -0.00000 0.46900
Cu	Cu	0.19380 0.19380 0.40810 0.74300
Cu	Cu	0.69380 0.69380 0.90810 0.90600
Cu	Cu	0.80620 0.80620 0.40810 0.74000
Cu	Cu	0.30620 0.30620 0.90810 0.90900
Cu	Cu	0.80620 0.19380 0.40810 0.74100
Cu	Cu	0.30620 0.69380 0.90810 0.90700
Cu	Cu	0.19380 0.80620 0.40810 0.74100
Cu	Cu	0.69380 0.30620 0.90810 0.90700
Cu	Cu	0.80620 0.19380 0.59190 0.74900
Cu	Cu	0.30620 0.69380 0.09190 0.61100
Cu	Cu	0.19380 0.80620 0.59190 0.74900
Cu	Cu	0.69380 0.30620 0.09190 0.61100
Cu	Cu	0.19380 0.19380 0.59190 0.75100
Cu	Cu	0.69380 0.69380 0.09190 0.60900
Cu	Cu	0.80620 0.80620 0.59190 0.74800
Cu	Cu	0.30620 0.30620 0.09190 0.61200
C 	C 	0.24660 -0.00000 0.39664 0.14600
C 	C 	0.30550 0.00000 0.35678 -0.19700
C 	C 	0.42560 0.00000 0.28459 0.19300
C 	C 	0.74660 0.50000 0.89664 0.28000
C 	C 	0.80550 0.50000 0.85678 -0.15800
C 	C 	0.92560 0.50000 0.78459 0.17300
C 	C 	0.75340 -0.00000 0.39664 0.14500
C 	C 	0.69450 0.00000 0.35678 -0.19900
C 	C 	0.57440 0.00000 0.28459 0.19300
C 	C 	0.25340 0.50000 0.89664 0.28300
C 	C 	0.19450 0.50000 0.85678 -0.16300
C 	C 	0.07440 0.50000 0.78459 0.19100
C 	C 	0.00000 0.24660 0.39664 0.14600
C 	C 	0.00000 0.30550 0.35678 -0.19700
C 	C 	0.00000 0.42560 0.28459 0.19300
C 	C 	0.50000 0.74660 0.89664 0.28000
C 	C 	0.50000 0.80550 0.85678 -0.15800
C 	C 	0.50000 0.92560 0.78459 0.17300
C 	C 	-0.00000 0.75340 0.39664 0.14500
C 	C 	0.00000 0.69450 0.35678 -0.19900
C 	C 	0.00000 0.57440 0.28459 0.19300
C 	C 	0.50000 0.25340 0.89664 0.28300
C 	C 	0.50000 0.19450 0.85678 -0.16300
C 	C 	0.50000 0.07440 0.78459 0.19100
C 	C 	0.75340 -0.00000 0.60336 0.15300
C 	C 	0.69450 0.00000 0.64322 -0.19900
C 	C 	0.57440 0.00000 0.71541 0.20200
C 	C 	0.25340 0.50000 0.10336 0.00400
C 	C 	0.19450 0.50000 0.14322 -0.24900
C 	C 	0.07440 0.50000 0.21541 0.17700
C 	C 	0.24660 -0.00000 0.60336 0.15500
C 	C 	0.30550 0.00000 0.64322 -0.19700
C 	C 	0.42560 0.00000 0.71541 0.20200
C 	C 	0.74660 0.50000 0.10336 0.00000
C 	C 	0.80550 0.50000 0.14322 -0.24400
C 	C 	0.92560 0.50000 0.21541 0.15900
C 	C 	0.00000 0.24660 0.60336 0.15500
C 	C 	0.00000 0.30550 0.64322 -0.19700
C 	C 	0.00000 0.42560 0.71541 0.20200
C 	C 	0.50000 0.74660 0.10336 0.00000
C 	C 	0.50000 0.80550 0.14322 -0.24400
C 	C 	0.50000 0.92560 0.21541 0.15900
C 	C 	-0.00000 0.75340 0.60336 0.15300
C 	C 	-0.00000 0.69450 0.64322 -0.19900
C 	C 	0.00000 0.57440 0.71541 0.20200
C 	C 	0.50000 0.25340 0.10336 0.00400
C 	C 	0.50000 0.19450 0.14322 -0.24900
C 	C 	0.50000 0.07440 0.21541 0.17700
C 	C 	0.50000 0.00000 0.25000 -0.21500
C 	C 	-0.00000 0.50000 0.25000 -0.21500
C 	C 	0.50000 -0.00000 0.75000 -0.21500
C 	C 	0.00000 0.50000 0.75000 -0.21500
Cl	Cl	-0.00000 -0.00000 0.48800 -0.32100
Cl	Cl	0.50000 0.50000 0.98800 -28.43100
Cl	Cl	0.00000 0.00000 0.51200 -0.39100
Cl	Cl	0.50000 0.50000 0.01200 27.90300
