data_crystal

_cell_length_a 15.50060
_cell_length_b 15.50060
_cell_length_c 18.33680
_cell_angle_alpha 115.00300
_cell_angle_beta  115.00300
_cell_angle_gamma 90.00000

_symmetry_space_group_name_	'P 1'
_symmetry_space_group_name_H-M	'P 1'

loop_
_symmetry_equiv_pos_as_xyz
  x,y,z

loop_
_atom_site_label
_atom_site_type_symbol
_atom_site_fract_x
_atom_site_fract_y
_atom_site_fract_z
_atom_site_charge
Cu	Cu	0.88418 0.88418 1.00000 0.82900
Cu	Cu	0.11582 0.11582 -0.00000 0.81600
Cu	Cu	0.88418 0.11582 -0.00000 0.79300
Cu	Cu	0.11582 0.88418 -0.00000 0.79300
Cu	Cu	0.88316 0.88316 0.18952 0.69300
Cu	Cu	0.30636 0.30636 0.18952 0.73000
Cu	Cu	0.88316 0.30636 0.18952 0.71300
Cu	Cu	0.30636 0.88316 0.18952 0.71200
Cu	Cu	0.69364 0.11684 0.81048 0.75200
Cu	Cu	0.11684 0.69364 0.81048 0.75200
Cu	Cu	0.69364 0.69364 0.81048 0.73600
Cu	Cu	0.11684 0.11684 0.81048 0.76500
H 	H 	0.02290 0.83720 0.30300 -0.10200
H 	H 	0.08250 0.80100 0.42180 0.09000
H 	H 	0.28010 0.46580 0.30300 -0.10700
H 	H 	0.33930 0.62080 0.42180 0.08500
H 	H 	0.83720 0.28010 0.30300 -0.11300
H 	H 	0.80100 0.33930 0.42180 0.08400
H 	H 	0.46580 0.02290 0.30300 -0.09600
H 	H 	0.62080 0.08250 0.42180 0.09100
H 	H 	0.71990 0.16280 0.69700 -0.10000
H 	H 	0.66070 0.19900 0.57820 0.09300
H 	H 	0.97710 0.53420 0.69700 -0.11600
H 	H 	0.91750 0.37920 0.57820 0.08500
H 	H 	0.53420 0.71990 0.69700 -0.10500
H 	H 	0.37920 0.66070 0.57820 0.09100
H 	H 	0.16280 0.97710 0.69700 -0.11000
H 	H 	0.19900 0.91750 0.57820 0.08700
H 	H 	0.97710 0.16280 0.69700 -0.11000
H 	H 	0.91750 0.19900 0.57820 0.08700
H 	H 	0.71990 0.53420 0.69700 -0.10500
H 	H 	0.66070 0.37920 0.57820 0.09100
H 	H 	0.16280 0.71990 0.69700 -0.10000
H 	H 	0.19900 0.66070 0.57820 0.09300
H 	H 	0.53420 0.97710 0.69700 -0.11600
H 	H 	0.37920 0.91750 0.57820 0.08500
H 	H 	0.28010 0.83720 0.30300 -0.11300
H 	H 	0.33930 0.80100 0.42180 0.08400
H 	H 	0.02290 0.46580 0.30300 -0.09600
H 	H 	0.08250 0.62080 0.42180 0.09100
H 	H 	0.46580 0.28010 0.30300 -0.10700
H 	H 	0.62080 0.33930 0.42180 0.08500
H 	H 	0.83720 0.02290 0.30300 -0.10200
H 	H 	0.80100 0.08250 0.42180 0.09000
C 	C 	0.08663 0.82893 0.32606 0.12300
C 	C 	0.12264 0.80704 0.39748 -0.25000
C 	C 	0.23943 0.49713 0.32606 0.12300
C 	C 	0.27484 0.59044 0.39748 -0.24800
C 	C 	0.82893 0.23943 0.32606 0.12200
C 	C 	0.80704 0.27484 0.39748 -0.25200
C 	C 	0.49713 0.08663 0.32606 0.12300
C 	C 	0.59044 0.12264 0.39748 -0.24600
C 	C 	0.76057 0.17107 0.67394 0.12800
C 	C 	0.72516 0.19296 0.60252 -0.24900
C 	C 	0.91337 0.50287 0.67394 0.12800
C 	C 	0.87736 0.40956 0.60252 -0.25500
C 	C 	0.50287 0.76057 0.67394 0.12800
C 	C 	0.40956 0.72516 0.60252 -0.25300
C 	C 	0.17107 0.91337 0.67394 0.12800
C 	C 	0.19296 0.87736 0.60252 -0.25100
C 	C 	0.91337 0.17107 0.67394 0.12800
C 	C 	0.87736 0.19296 0.60252 -0.25100
C 	C 	0.76057 0.50287 0.67394 0.12800
C 	C 	0.72516 0.40956 0.60252 -0.25300
C 	C 	0.17107 0.76057 0.67394 0.12800
C 	C 	0.19296 0.72516 0.60252 -0.24900
C 	C 	0.50287 0.91337 0.67394 0.12800
C 	C 	0.40956 0.87736 0.60252 -0.25500
C 	C 	0.23943 0.82893 0.32606 0.12200
C 	C 	0.27484 0.80704 0.39748 -0.25200
C 	C 	0.08663 0.49713 0.32606 0.12300
C 	C 	0.12264 0.59044 0.39748 -0.24600
C 	C 	0.49713 0.23943 0.32606 0.12300
C 	C 	0.59044 0.27484 0.39748 -0.24800
C 	C 	0.82893 0.08663 0.32606 0.12300
C 	C 	0.80704 0.12264 0.39748 -0.25000
C 	C 	0.10392 0.85472 0.20784 0.13000
C 	C 	0.14427 0.83877 0.28854 -0.20300
C 	C 	0.21686 0.79386 0.43372 0.17100
C 	C 	0.10392 0.35312 0.20784 0.13500
C 	C 	0.14427 0.44977 0.28854 -0.19700
C 	C 	0.21686 0.63986 0.43372 0.17100
C 	C 	0.85472 0.10392 0.20784 0.13000
C 	C 	0.83877 0.14427 0.28854 -0.20300
C 	C 	0.79386 0.21686 0.43372 0.17100
C 	C 	0.35312 0.10392 0.20784 0.13500
C 	C 	0.44977 0.14427 0.28854 -0.19700
C 	C 	0.63986 0.21686 0.43372 0.17100
C 	C 	0.89608 0.14528 0.79216 0.13800
C 	C 	0.85573 0.16123 0.71146 -0.20100
C 	C 	0.78314 0.20614 0.56628 0.17300
C 	C 	0.89608 0.64688 0.79216 0.13300
C 	C 	0.85573 0.55023 0.71146 -0.20700
C 	C 	0.78314 0.36014 0.56628 0.17300
C 	C 	0.64688 0.89608 0.79216 0.13300
C 	C 	0.55023 0.85573 0.71146 -0.20700
C 	C 	0.36014 0.78314 0.56628 0.17300
C 	C 	0.14528 0.89608 0.79216 0.13800
C 	C 	0.16123 0.85573 0.71146 -0.20100
C 	C 	0.20614 0.78314 0.56628 0.17300
C 	C 	0.25000 0.75000 0.50000 -0.21000
C 	C 	0.75000 0.25000 0.50000 -0.21000
N 	N 	0.00513 0.87128 0.09568 -0.18500
N 	N 	0.01108 0.86108 0.16602 -0.22700
N 	N 	0.09055 0.22440 0.09568 -0.17900
N 	N 	0.15494 0.30494 0.16602 -0.23100
N 	N 	0.87128 0.09055 0.09568 -0.18800
N 	N 	0.86108 0.15494 0.16602 -0.23700
N 	N 	0.22440 0.00513 0.09568 -0.17000
N 	N 	0.30494 0.01108 0.16602 -0.22100
N 	N 	0.90945 0.12872 0.90432 -0.16300
N 	N 	0.84506 0.13892 0.83398 -0.22400
N 	N 	0.99487 0.77560 0.90432 -0.18100
N 	N 	0.98892 0.69506 0.83398 -0.23900
N 	N 	0.77560 0.90945 0.90432 -0.17800
N 	N 	0.69506 0.84506 0.83398 -0.23000
N 	N 	0.12872 0.99487 0.90432 -0.17300
N 	N 	0.13892 0.98892 0.83398 -0.23400
N 	N 	0.99487 0.12872 0.90432 -0.17300
N 	N 	0.98892 0.13892 0.83398 -0.23400
N 	N 	0.90945 0.77560 0.90432 -0.17800
N 	N 	0.84506 0.69506 0.83398 -0.23000
N 	N 	0.12872 0.90945 0.90432 -0.16300
N 	N 	0.13892 0.84506 0.83398 -0.22400
N 	N 	0.77560 0.99487 0.90432 -0.18100
N 	N 	0.69506 0.98892 0.83398 -0.23900
N 	N 	0.09055 0.87128 0.09568 -0.18800
N 	N 	0.15494 0.86108 0.16602 -0.23700
N 	N 	0.00513 0.22440 0.09568 -0.17000
N 	N 	0.01108 0.30494 0.16602 -0.22100
N 	N 	0.22440 0.09055 0.09568 -0.17900
N 	N 	0.30494 0.15494 0.16602 -0.23100
N 	N 	0.87128 0.00513 0.09568 -0.18500
N 	N 	0.86108 0.01108 0.16602 -0.22700
Cl	Cl	-0.00000 0.00000 -0.00000 -0.68800
