data_crystal

_cell_length_a 10.23040
_cell_length_b 10.23040
_cell_length_c 10.23040
_cell_angle_alpha 90.00000
_cell_angle_beta  90.00000
_cell_angle_gamma 90.00000

_symmetry_space_group_name_	'P 1'
_symmetry_space_group_name_H-M	'P 1'

loop_
_symmetry_equiv_pos_as_xyz
  x,y,z

loop_
_atom_site_label
_atom_site_type_symbol
_atom_site_fract_x
_atom_site_fract_y
_atom_site_fract_z
_atom_site_charge
C 	C 	0.36400 0.76300 0.98000 -0.14000
C 	C 	0.33050 0.64700 0.06040 -0.07100
C 	C 	0.40200 0.67020 0.10970 0.15200
C 	C 	0.39000 0.76800 0.00300 -0.19900
N 	N 	0.46490 0.77150 0.06710 -0.05200
N 	N 	0.37500 0.77400 0.97430 0.40200
N 	N 	0.29210 0.67700 0.99080 -0.09600
O 	O 	0.28100 0.77200 0.89000 -0.10500
O 	O 	0.45200 0.84900 0.99300 -0.09700
O 	O 	0.29900 0.77700 0.92300 -0.09900
O 	O 	0.50700 0.79000 0.98000 -0.13400
C 	C 	0.13600 0.23700 0.48000 -0.13500
C 	C 	0.16950 0.35300 0.56040 -0.07200
C 	C 	0.09800 0.32980 0.60970 0.14800
C 	C 	0.11000 0.23200 0.50300 -0.21200
N 	N 	0.03510 0.22850 0.56710 -0.04500
N 	N 	0.12500 0.22600 0.47430 0.40700
N 	N 	0.20790 0.32300 0.49080 -0.09800
O 	O 	0.21900 0.22800 0.39000 -0.10800
O 	O 	0.04800 0.15100 0.49300 -0.09800
O 	O 	0.20100 0.22300 0.42300 -0.09800
O 	O 	0.99300 0.21000 0.48000 -0.13900
C 	C 	0.63600 0.26300 0.52000 -0.13500
C 	C 	0.66950 0.14700 0.43960 -0.07300
C 	C 	0.59800 0.17020 0.39030 0.15500
C 	C 	0.61000 0.26800 0.49700 -0.21100
N 	N 	0.53510 0.27150 0.43290 -0.04600
N 	N 	0.62500 0.27400 0.52570 0.40600
N 	N 	0.70790 0.17700 0.50920 -0.09700
O 	O 	0.71900 0.27200 0.61000 -0.10800
O 	O 	0.54800 0.34900 0.50700 -0.09800
O 	O 	0.70100 0.27700 0.57700 -0.09800
O 	O 	0.49300 0.29000 0.52000 -0.13800
C 	C 	0.86400 0.73700 0.02000 -0.12400
C 	C 	0.83050 0.85300 0.93960 -0.07800
C 	C 	0.90200 0.82980 0.89030 0.16100
C 	C 	0.89000 0.73200 0.99700 -0.23600
N 	N 	0.96490 0.72850 0.93290 -0.03200
N 	N 	0.87500 0.72600 0.02570 0.41400
N 	N 	0.79210 0.82300 0.00920 -0.10300
O 	O 	0.78100 0.72800 0.11000 -0.11300
O 	O 	0.95200 0.65100 0.00700 -0.09900
O 	O 	0.79900 0.72300 0.07700 -0.09600
O 	O 	0.00700 0.71000 0.02000 -0.14300
C 	C 	0.98000 0.36400 0.76300 -0.14100
C 	C 	0.06040 0.33050 0.64700 -0.07200
C 	C 	0.10970 0.40200 0.67020 0.15100
C 	C 	0.00300 0.39000 0.76800 -0.19900
N 	N 	0.06710 0.46490 0.77150 -0.05200
N 	N 	0.97430 0.37500 0.77400 0.40200
N 	N 	0.99080 0.29210 0.67700 -0.09600
O 	O 	0.89000 0.28100 0.77200 -0.10500
O 	O 	0.99300 0.45200 0.84900 -0.09700
O 	O 	0.92300 0.29900 0.77700 -0.09900
O 	O 	0.98000 0.50700 0.79000 -0.13400
C 	C 	0.48000 0.13600 0.23700 -0.13500
C 	C 	0.56040 0.16950 0.35300 -0.07200
C 	C 	0.60970 0.09800 0.32980 0.14800
C 	C 	0.50300 0.11000 0.23200 -0.21200
N 	N 	0.56710 0.03510 0.22850 -0.04500
N 	N 	0.47430 0.12500 0.22600 0.40700
N 	N 	0.49080 0.20790 0.32300 -0.09800
O 	O 	0.39000 0.21900 0.22800 -0.10800
O 	O 	0.49300 0.04800 0.15100 -0.09800
O 	O 	0.42300 0.20100 0.22300 -0.09800
O 	O 	0.48000 0.99300 0.21000 -0.13900
C 	C 	0.52000 0.63600 0.26300 -0.13500
C 	C 	0.43960 0.66950 0.14700 -0.07300
C 	C 	0.39030 0.59800 0.17020 0.15500
C 	C 	0.49700 0.61000 0.26800 -0.21100
N 	N 	0.43290 0.53510 0.27150 -0.04600
N 	N 	0.52570 0.62500 0.27400 0.40600
N 	N 	0.50920 0.70790 0.17700 -0.09700
O 	O 	0.61000 0.71900 0.27200 -0.10800
O 	O 	0.50700 0.54800 0.34900 -0.09800
O 	O 	0.57700 0.70100 0.27700 -0.09800
O 	O 	0.52000 0.49300 0.29000 -0.13800
C 	C 	0.02000 0.86400 0.73700 -0.12400
C 	C 	0.93960 0.83050 0.85300 -0.07800
C 	C 	0.89030 0.90200 0.82980 0.16100
C 	C 	0.99700 0.89000 0.73200 -0.23600
N 	N 	0.93290 0.96490 0.72850 -0.03200
N 	N 	0.02570 0.87500 0.72600 0.41400
N 	N 	0.00920 0.79210 0.82300 -0.10300
O 	O 	0.11000 0.78100 0.72800 -0.11300
O 	O 	0.00700 0.95200 0.65100 -0.09900
O 	O 	0.07700 0.79900 0.72300 -0.09600
O 	O 	0.02000 0.00700 0.71000 -0.14300
C 	C 	0.76300 0.98000 0.36400 -0.14100
C 	C 	0.64700 0.06040 0.33050 -0.07200
C 	C 	0.67020 0.10970 0.40200 0.15100
C 	C 	0.76800 0.00300 0.39000 -0.19900
N 	N 	0.77150 0.06710 0.46490 -0.05200
N 	N 	0.77400 0.97430 0.37500 0.40200
N 	N 	0.67700 0.99080 0.29210 -0.09600
O 	O 	0.77200 0.89000 0.28100 -0.10500
O 	O 	0.84900 0.99300 0.45200 -0.09700
O 	O 	0.77700 0.92300 0.29900 -0.09900
O 	O 	0.79000 0.98000 0.50700 -0.13400
C 	C 	0.23700 0.48000 0.13600 -0.13500
C 	C 	0.35300 0.56040 0.16950 -0.07200
C 	C 	0.32980 0.60970 0.09800 0.14800
C 	C 	0.23200 0.50300 0.11000 -0.21200
N 	N 	0.22850 0.56710 0.03510 -0.04500
N 	N 	0.22600 0.47430 0.12500 0.40700
N 	N 	0.32300 0.49080 0.20790 -0.09800
O 	O 	0.22800 0.39000 0.21900 -0.10800
O 	O 	0.15100 0.49300 0.04800 -0.09800
O 	O 	0.22300 0.42300 0.20100 -0.09800
O 	O 	0.21000 0.48000 0.99300 -0.13900
C 	C 	0.26300 0.52000 0.63600 -0.13500
C 	C 	0.14700 0.43960 0.66950 -0.07300
C 	C 	0.17020 0.39030 0.59800 0.15500
C 	C 	0.26800 0.49700 0.61000 -0.21100
N 	N 	0.27150 0.43290 0.53510 -0.04600
N 	N 	0.27400 0.52570 0.62500 0.40600
N 	N 	0.17700 0.50920 0.70790 -0.09700
O 	O 	0.27200 0.61000 0.71900 -0.10800
O 	O 	0.34900 0.50700 0.54800 -0.09800
O 	O 	0.27700 0.57700 0.70100 -0.09800
O 	O 	0.29000 0.52000 0.49300 -0.13800
C 	C 	0.73700 0.02000 0.86400 -0.12400
C 	C 	0.85300 0.93960 0.83050 -0.07800
C 	C 	0.82980 0.89030 0.90200 0.16100
C 	C 	0.73200 0.99700 0.89000 -0.23600
N 	N 	0.72850 0.93290 0.96490 -0.03200
N 	N 	0.72600 0.02570 0.87500 0.41400
N 	N 	0.82300 0.00920 0.79210 -0.10300
O 	O 	0.72800 0.11000 0.78100 -0.11300
O 	O 	0.65100 0.00700 0.95200 -0.09900
O 	O 	0.72300 0.07700 0.79900 -0.09600
O 	O 	0.71000 0.02000 0.00700 -0.14300
Mn	Mn	0.62599 0.87401 0.12599 1.33700
Mn	Mn	0.87401 0.12599 0.62599 1.33700
Mn	Mn	0.37401 0.37401 0.37401 1.33800
Mn	Mn	0.12599 0.62599 0.87401 1.33700
