data_crystal

_cell_length_a 12.75440
_cell_length_b 10.68280
_cell_length_c 15.46420
_cell_angle_alpha 90.00000
_cell_angle_beta  90.00000
_cell_angle_gamma 90.00000

_symmetry_space_group_name_	'P 1'
_symmetry_space_group_name_H-M	'P 1'

loop_
_symmetry_equiv_pos_as_xyz
  x,y,z

loop_
_atom_site_label
_atom_site_type_symbol
_atom_site_fract_x
_atom_site_fract_y
_atom_site_fract_z
_atom_site_charge
O 	O 	0.36050 0.25810 0.84720 -0.39800
O 	O 	0.41280 0.40770 0.75770 -0.40000
O 	O 	0.40800 0.14200 0.43690 -0.29100
O 	O 	0.38330 0.95460 0.50320 -0.21000
C 	C 	0.30610 0.26380 0.69710 -0.11700
C 	C 	0.36190 0.20620 0.63080 0.03800
H 	H 	0.43480 0.20790 0.63040 0.03500
C 	C 	0.30580 0.14460 0.56340 -0.10100
C 	C 	0.37470 0.32810 0.76490 0.71600
C 	C 	0.37180 0.08990 0.49060 0.53100
O 	O 	0.15460 0.89720 0.31770 -0.31700
O 	O 	0.02100 0.84280 0.24680 -0.21000
O 	O 	0.03300 0.63850 0.97870 -0.31300
O 	O 	0.16240 0.52240 0.93670 -0.39300
O 	O 	0.36050 0.75810 0.34720 -0.34400
O 	O 	0.41280 0.90770 0.25770 -0.34100
O 	O 	0.40800 0.64200 0.93690 -0.23400
O 	O 	0.38330 0.45460 0.00320 -0.17600
C 	C 	0.30610 0.76380 0.19710 -0.07000
C 	C 	0.36190 0.70620 0.13080 0.00800
H 	H 	0.43480 0.70790 0.13040 0.08800
C 	C 	0.30580 0.64460 0.06340 0.02300
C 	C 	0.37470 0.82810 0.26490 0.64700
C 	C 	0.37180 0.58990 0.99060 0.37800
O 	O 	0.15460 0.39720 0.81770 -0.37600
O 	O 	0.02100 0.34280 0.74680 -0.26200
O 	O 	0.03300 0.13850 0.47870 -0.27800
O 	O 	0.16240 0.02240 0.43670 -0.45400
O 	O 	0.63950 0.74190 0.84720 -0.35600
O 	O 	0.58720 0.59230 0.75770 -0.40600
O 	O 	0.59200 0.85800 0.43690 -0.31600
O 	O 	0.61670 0.04540 0.50320 -0.41400
C 	C 	0.69390 0.73620 0.69710 -0.12900
C 	C 	0.63810 0.79380 0.63080 0.08700
H 	H 	0.56520 0.79210 0.63040 0.03800
C 	C 	0.69420 0.85540 0.56340 -0.10000
C 	C 	0.62530 0.67190 0.76490 0.73100
C 	C 	0.62820 0.91010 0.49060 0.63000
O 	O 	0.84540 0.10280 0.31770 -0.36100
O 	O 	0.97900 0.15720 0.24680 -0.13400
O 	O 	0.96700 0.36150 0.97870 -0.18400
O 	O 	0.83760 0.47760 0.93670 -0.36300
O 	O 	0.63950 0.24190 0.34720 -0.35600
O 	O 	0.58720 0.09230 0.25770 -0.43100
O 	O 	0.59200 0.35800 0.93690 -0.24700
O 	O 	0.61670 0.54540 0.00320 -0.16300
C 	C 	0.69390 0.23620 0.19710 -0.13300
C 	C 	0.63810 0.29380 0.13080 0.04800
H 	H 	0.56520 0.29210 0.13040 0.05700
C 	C 	0.69420 0.35540 0.06340 -0.01200
C 	C 	0.62530 0.17190 0.26490 0.75300
C 	C 	0.62820 0.41010 0.99060 0.39600
O 	O 	0.84540 0.60280 0.81770 -0.33700
O 	O 	0.97900 0.65720 0.74680 -0.12000
O 	O 	0.96700 0.86150 0.47870 -0.10000
O 	O 	0.83760 0.97760 0.43670 -0.25700
O 	O 	0.86050 0.74190 0.84720 -0.32000
O 	O 	0.91280 0.59230 0.75770 -0.36400
O 	O 	0.90800 0.85800 0.43690 -0.28900
O 	O 	0.88330 0.04540 0.50320 -0.35900
C 	C 	0.80610 0.73620 0.69710 -0.07600
C 	C 	0.86190 0.79380 0.63080 0.04600
H 	H 	0.93480 0.79210 0.63040 0.08100
C 	C 	0.80580 0.85540 0.56340 -0.05200
C 	C 	0.87470 0.67190 0.76490 0.67300
C 	C 	0.87180 0.91010 0.49060 0.58400
O 	O 	0.65460 0.10280 0.31770 -0.38800
O 	O 	0.52100 0.15720 0.24680 -0.20300
O 	O 	0.53300 0.36150 0.97870 -0.26100
O 	O 	0.66240 0.47760 0.93670 -0.38500
O 	O 	0.86050 0.24190 0.34720 -0.31900
O 	O 	0.91280 0.09230 0.25770 -0.39000
O 	O 	0.90800 0.35800 0.93690 -0.22200
O 	O 	0.88330 0.54540 0.00320 -0.11400
C 	C 	0.80610 0.23620 0.19710 -0.08100
C 	C 	0.86190 0.29380 0.13080 0.00800
H 	H 	0.93480 0.29210 0.13040 0.10000
C 	C 	0.80580 0.35540 0.06340 0.03400
C 	C 	0.87470 0.17190 0.26490 0.69500
C 	C 	0.87180 0.41010 0.99060 0.35400
O 	O 	0.65460 0.60280 0.81770 -0.36300
O 	O 	0.52100 0.65720 0.74680 -0.18800
O 	O 	0.53300 0.86150 0.47870 -0.17200
O 	O 	0.66240 0.97760 0.43670 -0.27600
O 	O 	0.13950 0.25810 0.84720 -0.42900
O 	O 	0.08720 0.40770 0.75770 -0.42600
O 	O 	0.09200 0.14200 0.43690 -0.30500
O 	O 	0.11670 0.95460 0.50320 -0.25400
C 	C 	0.19390 0.26380 0.69710 -0.16000
C 	C 	0.13810 0.20620 0.63080 0.07300
H 	H 	0.06520 0.20790 0.63040 -0.00700
C 	C 	0.19420 0.14460 0.56340 -0.14200
C 	C 	0.12530 0.32810 0.76490 0.75700
C 	C 	0.12820 0.08990 0.49060 0.56400
O 	O 	0.34540 0.89720 0.31770 -0.30100
O 	O 	0.47900 0.84280 0.24680 -0.14900
O 	O 	0.46700 0.63850 0.97870 -0.24600
O 	O 	0.33760 0.52240 0.93670 -0.38100
O 	O 	0.13950 0.75810 0.34720 -0.37500
O 	O 	0.08720 0.90770 0.25770 -0.36700
O 	O 	0.09200 0.64200 0.93690 -0.24900
O 	O 	0.11670 0.45460 0.00320 -0.22400
C 	C 	0.19390 0.76380 0.19710 -0.11300
C 	C 	0.13810 0.70620 0.13080 0.04100
H 	H 	0.06520 0.70790 0.13040 0.04800
C 	C 	0.19420 0.64460 0.06340 -0.01800
C 	C 	0.12530 0.82810 0.26490 0.68800
C 	C 	0.12820 0.58990 0.99060 0.41200
O 	O 	0.34540 0.39720 0.81770 -0.36000
O 	O 	0.47900 0.34280 0.74680 -0.19900
O 	O 	0.46700 0.13850 0.47870 -0.20800
O 	O 	0.33760 0.02240 0.43670 -0.44100
Cd	Cd	0.25000 0.33177 0.94619 1.21700
Cd	Cd	0.25000 0.83177 0.44619 1.26500
Cd	Cd	0.75000 0.66823 0.94619 1.23800
Cd	Cd	0.75000 0.16823 0.44619 1.25300
Cd	Cd	0.50000 0.50000 0.86151 1.29800
Cd	Cd	0.50000 -0.00000 0.36151 1.27000
Cd	Cd	0.00000 0.50000 0.86151 1.25300
Cd	Cd	-0.00000 -0.00000 0.36151 1.22400
