data_crystal

_cell_length_a 5.09790
_cell_length_b 15.23380
_cell_length_c 16.42470
_cell_angle_alpha 90.00000
_cell_angle_beta  95.66800
_cell_angle_gamma 90.00000

_symmetry_space_group_name_	'P 1'
_symmetry_space_group_name_H-M	'P 1'

loop_
_symmetry_equiv_pos_as_xyz
  x,y,z

loop_
_atom_site_label
_atom_site_type_symbol
_atom_site_fract_x
_atom_site_fract_y
_atom_site_fract_z
_atom_site_charge
Co	Co	0.96540 0.67711 0.21650 1.17000
Co	Co	0.34330 0.80262 0.08222 1.15800
Co	Co	0.01040 0.92849 0.82041 1.15900
P 	P 	0.41510 0.59991 0.13049 0.49900
P 	P 	0.92440 0.86946 0.16220 0.52300
P 	P 	0.47610 0.88591 0.91248 0.51900
O 	O 	0.29050 0.95970 0.93320 -0.47800
O 	O 	0.02940 0.88520 0.07710 -0.56900
O 	O 	0.75720 0.92060 0.90600 -0.48500
O 	O 	0.10420 0.79490 0.20110 -0.51000
O 	O 	0.71780 0.60950 0.14280 -0.43300
O 	O 	0.80650 0.88590 0.71630 -0.55500
O 	O 	0.34830 0.85390 0.82560 -0.56300
O 	O 	0.63720 0.83970 0.15850 -0.46200
O 	O 	0.29290 0.67270 0.07350 -0.44200
O 	O 	0.47900 0.80890 0.97170 -0.38100
O 	O 	0.03420 0.04890 0.78240 -0.45200
O 	O 	0.33410 0.51000 0.09740 -0.21300
Co	Co	0.53460 0.17711 0.28350 1.16100
Co	Co	0.15670 0.30262 0.41778 1.16300
Co	Co	0.48960 0.42849 0.67959 1.16000
P 	P 	0.08490 0.09991 0.36951 0.47900
P 	P 	0.57560 0.36946 0.33780 0.49400
P 	P 	0.02390 0.38591 0.58752 0.49400
O 	O 	0.20950 0.45970 0.56680 -0.53500
O 	O 	0.47060 0.38520 0.42290 -0.55000
O 	O 	0.74280 0.42060 0.59400 -0.51800
O 	O 	0.39580 0.29490 0.29890 -0.50200
O 	O 	0.78220 0.10950 0.35720 -0.42400
O 	O 	0.69350 0.38590 0.78370 -0.56300
O 	O 	0.15170 0.35390 0.67440 -0.57300
O 	O 	0.86280 0.33970 0.34150 -0.45000
O 	O 	0.20710 0.17270 0.42650 -0.42500
O 	O 	0.02100 0.30890 0.52830 -0.43200
O 	O 	0.46580 0.54890 0.71760 -0.40300
O 	O 	0.16590 0.01000 0.40260 -0.22600
Co	Co	0.03460 0.32289 0.78350 1.14500
Co	Co	0.65670 0.19738 0.91778 1.18300
Co	Co	0.98960 0.07151 0.17959 1.15700
P 	P 	0.58490 0.40009 0.86951 0.50000
P 	P 	0.07560 0.13054 0.83780 0.43900
P 	P 	0.52390 0.11409 0.08752 0.51500
O 	O 	0.70950 0.04030 0.06680 -0.56300
O 	O 	0.97060 0.11480 0.92290 -0.49600
O 	O 	0.24280 0.07940 0.09400 -0.57600
O 	O 	0.89580 0.20510 0.79890 -0.46100
O 	O 	0.28220 0.39050 0.85720 -0.43200
O 	O 	0.19350 0.11410 0.28370 -0.59200
O 	O 	0.65170 0.14610 0.17440 -0.56900
O 	O 	0.36280 0.16030 0.84150 -0.46200
O 	O 	0.70710 0.32730 0.92650 -0.39000
O 	O 	0.52100 0.19110 0.02830 -0.45800
O 	O 	0.96580 0.95110 0.21760 -0.36100
O 	O 	0.66590 0.49000 0.90260 -0.16300
Co	Co	0.46540 0.82289 0.71650 1.16300
Co	Co	0.84330 0.69738 0.58222 1.17700
Co	Co	0.51040 0.57151 0.32041 1.15900
P 	P 	0.91510 0.90009 0.63049 0.52400
P 	P 	0.42440 0.63054 0.66220 0.49500
P 	P 	0.97610 0.61409 0.41248 0.53400
O 	O 	0.79050 0.54030 0.43320 -0.52700
O 	O 	0.52940 0.61480 0.57710 -0.55100
O 	O 	0.25720 0.57940 0.40600 -0.55400
O 	O 	0.60420 0.70510 0.70110 -0.48900
O 	O 	0.21780 0.89050 0.64280 -0.43900
O 	O 	0.30650 0.61410 0.21630 -0.58200
O 	O 	0.84830 0.64610 0.32560 -0.56200
O 	O 	0.13720 0.66030 0.65850 -0.47900
O 	O 	0.79290 0.82730 0.57350 -0.41000
O 	O 	0.97900 0.69110 0.47170 -0.41000
O 	O 	0.53420 0.45110 0.28240 -0.40800
O 	O 	0.83410 0.99000 0.59740 -0.14700
Co	Co	-0.00000 0.00000 -0.00000 1.09300
Co	Co	0.50000 0.50000 0.50000 1.16200
