data_crystal

_cell_length_a 5.07980
_cell_length_b 15.20300
_cell_length_c 16.35350
_cell_angle_alpha 90.00000
_cell_angle_beta  95.69000
_cell_angle_gamma 90.00000

_symmetry_space_group_name_	'P 1'
_symmetry_space_group_name_H-M	'P 1'

loop_
_symmetry_equiv_pos_as_xyz
  x,y,z

loop_
_atom_site_label
_atom_site_type_symbol
_atom_site_fract_x
_atom_site_fract_y
_atom_site_fract_z
_atom_site_charge
Co	Co	0.96550 0.67712 0.21639 1.17500
Co	Co	0.34570 0.80312 0.08154 1.16200
Co	Co	0.00850 0.92897 0.81984 1.16300
P 	P 	0.41540 0.60078 0.13008 0.51500
P 	P 	0.92460 0.86945 0.16219 0.54100
P 	P 	0.47480 0.88604 0.91184 0.53000
O 	O 	0.28980 0.95980 0.93370 -0.47900
O 	O 	0.02980 0.88520 0.07730 -0.57300
O 	O 	0.75430 0.92140 0.90500 -0.48800
O 	O 	0.10000 0.79420 0.20120 -0.51600
O 	O 	0.71640 0.61050 0.14280 -0.43900
O 	O 	0.80590 0.88590 0.71590 -0.55900
O 	O 	0.34680 0.85490 0.82540 -0.56800
O 	O 	0.63700 0.84120 0.15810 -0.46600
O 	O 	0.29430 0.67420 0.07380 -0.44900
O 	O 	0.47710 0.80880 0.97120 -0.38600
O 	O 	0.03260 0.04930 0.78290 -0.45900
O 	O 	0.33300 0.51210 0.09650 -0.21800
Co	Co	0.53450 0.17712 0.28361 1.16600
Co	Co	0.15430 0.30312 0.41846 1.16700
Co	Co	0.49150 0.42897 0.68016 1.16400
P 	P 	0.08460 0.10078 0.36992 0.49500
P 	P 	0.57540 0.36945 0.33781 0.51200
P 	P 	0.02520 0.38604 0.58816 0.50500
O 	O 	0.21020 0.45980 0.56630 -0.53700
O 	O 	0.47020 0.38520 0.42270 -0.55400
O 	O 	0.74570 0.42140 0.59500 -0.52100
O 	O 	0.40000 0.29420 0.29880 -0.50700
O 	O 	0.78360 0.11050 0.35720 -0.43000
O 	O 	0.69410 0.38590 0.78410 -0.56700
O 	O 	0.15320 0.35490 0.67460 -0.57800
O 	O 	0.86300 0.34120 0.34190 -0.45500
O 	O 	0.20570 0.17420 0.42620 -0.43200
O 	O 	0.02290 0.30880 0.52880 -0.43700
O 	O 	0.46740 0.54930 0.71710 -0.40900
O 	O 	0.16700 0.01210 0.40350 -0.23100
Co	Co	0.03450 0.32288 0.78361 1.14900
Co	Co	0.65430 0.19688 0.91846 1.18700
Co	Co	0.99150 0.07103 0.18016 1.16100
P 	P 	0.58460 0.39922 0.86992 0.51500
P 	P 	0.07540 0.13055 0.83781 0.45600
P 	P 	0.52520 0.11396 0.08816 0.52600
O 	O 	0.71020 0.04020 0.06630 -0.56600
O 	O 	0.97020 0.11480 0.92270 -0.50000
O 	O 	0.24570 0.07860 0.09500 -0.58000
O 	O 	0.90000 0.20580 0.79880 -0.46600
O 	O 	0.28360 0.38950 0.85720 -0.43900
O 	O 	0.19410 0.11410 0.28410 -0.59600
O 	O 	0.65320 0.14510 0.17460 -0.57400
O 	O 	0.36300 0.15880 0.84190 -0.46700
O 	O 	0.70570 0.32580 0.92620 -0.39700
O 	O 	0.52290 0.19120 0.02880 -0.46400
O 	O 	0.96740 0.95070 0.21710 -0.36700
O 	O 	0.66700 0.48790 0.90350 -0.16700
Co	Co	0.46550 0.82288 0.71639 1.16800
Co	Co	0.84570 0.69688 0.58154 1.18100
Co	Co	0.50850 0.57103 0.31984 1.16300
P 	P 	0.91540 0.89922 0.63008 0.54000
P 	P 	0.42460 0.63055 0.66219 0.51300
P 	P 	0.97480 0.61396 0.41184 0.54600
O 	O 	0.78980 0.54020 0.43370 -0.53000
O 	O 	0.52980 0.61480 0.57730 -0.55500
O 	O 	0.25430 0.57860 0.40500 -0.55800
O 	O 	0.60000 0.70580 0.70120 -0.49400
O 	O 	0.21640 0.88950 0.64280 -0.44600
O 	O 	0.30590 0.61410 0.21590 -0.58600
O 	O 	0.84680 0.64510 0.32540 -0.56700
O 	O 	0.13700 0.65880 0.65810 -0.48400
O 	O 	0.79430 0.82580 0.57380 -0.41700
O 	O 	0.97710 0.69120 0.47120 -0.41500
O 	O 	0.53260 0.45070 0.28290 -0.41500
O 	O 	0.83300 0.98790 0.59650 -0.15200
Co	Co	-0.00000 0.00000 -0.00000 1.09500
Co	Co	0.50000 0.50000 0.50000 1.16500
