data_crystal

_cell_length_a 9.22090
_cell_length_b 9.54410
_cell_length_c 21.58410
_cell_angle_alpha 90.00000
_cell_angle_beta  90.00000
_cell_angle_gamma 116.21900

_symmetry_space_group_name_	'P 1'
_symmetry_space_group_name_H-M	'P 1'

loop_
_symmetry_equiv_pos_as_xyz
  x,y,z

loop_
_atom_site_label
_atom_site_type_symbol
_atom_site_fract_x
_atom_site_fract_y
_atom_site_fract_z
_atom_site_charge
Gd	Gd	0.12410 0.85832 0.49154 1.71000
Gd	Gd	0.37590 0.14168 0.99154 1.69500
Gd	Gd	0.87590 0.14168 0.50846 1.71000
Gd	Gd	0.62410 0.85832 0.00846 1.69500
Cu	Cu	0.04005 0.19136 0.85407 0.85100
Cu	Cu	0.45995 0.80864 0.35407 0.85200
Cu	Cu	0.95995 0.80864 0.14593 0.85200
Cu	Cu	0.54005 0.19136 0.64593 0.85300
H 	H 	0.99480 0.15260 0.72370 -0.02200
H 	H 	0.10670 0.81340 0.66670 0.00400
H 	H 	0.15210 0.77410 0.76940 0.09000
H 	H 	0.11670 0.92340 0.84550 -0.00700
H 	H 	0.79460 0.29820 0.84360 -0.03900
H 	H 	0.74700 0.50460 0.87260 0.11200
H 	H 	0.93860 0.70330 0.93140 0.00100
H 	H 	0.20930 0.47370 0.92930 -0.01500
H 	H 	0.50520 0.84740 0.22370 -0.02400
H 	H 	0.39330 0.18660 0.16670 0.00500
H 	H 	0.34790 0.22590 0.26940 0.08800
H 	H 	0.38330 0.07660 0.34550 -0.00800
H 	H 	0.70540 0.70180 0.34360 -0.04000
H 	H 	0.75300 0.49540 0.37260 0.11300
H 	H 	0.56140 0.29670 0.43140 -0.00200
H 	H 	0.29070 0.52630 0.42930 -0.01600
H 	H 	0.00520 0.84740 0.27630 -0.02200
H 	H 	0.89330 0.18660 0.33330 0.00400
H 	H 	0.84790 0.22590 0.23060 0.09000
H 	H 	0.88330 0.07660 0.15450 -0.00700
H 	H 	0.20540 0.70180 0.15640 -0.03900
H 	H 	0.25300 0.49540 0.12740 0.11200
H 	H 	0.06140 0.29670 0.06860 0.00100
H 	H 	0.79070 0.52630 0.07070 -0.01500
H 	H 	0.49480 0.15260 0.77630 -0.02400
H 	H 	0.60670 0.81340 0.83330 0.00500
H 	H 	0.65210 0.77410 0.73060 0.08800
H 	H 	0.61670 0.92340 0.65450 -0.00800
H 	H 	0.29460 0.29820 0.65640 -0.04000
H 	H 	0.24700 0.50460 0.62740 0.11300
H 	H 	0.43860 0.70330 0.56860 -0.00200
H 	H 	0.70930 0.47370 0.57070 -0.01600
C 	C 	0.02870 0.07640 0.73270 0.08700
C 	C 	0.04500 0.99020 0.68360 -0.18800
C 	C 	0.09320 0.87400 0.69790 0.08700
C 	C 	0.12040 0.85100 0.75890 -0.17400
C 	C 	0.10050 0.94240 0.80440 0.10700
C 	C 	0.01220 0.02430 0.61950 0.44300
C 	C 	0.87190 0.37720 0.86740 0.11400
C 	C 	0.84230 0.50090 0.88440 -0.18800
C 	C 	0.95590 0.61860 0.91900 0.12200
C 	C 	0.09670 0.60980 0.93520 -0.19200
C 	C 	0.11600 0.48100 0.91740 0.11300
C 	C 	0.23090 0.74200 0.97000 0.45900
C 	C 	0.98870 0.49230 0.46460 0.24800
C 	C 	0.99640 0.02270 0.96580 0.24300
C 	C 	0.47130 0.92360 0.23270 0.08900
C 	C 	0.45500 0.00980 0.18360 -0.18700
C 	C 	0.40680 0.12600 0.19790 0.08500
C 	C 	0.37960 0.14900 0.25890 -0.17200
C 	C 	0.39950 0.05760 0.30440 0.10200
C 	C 	0.48780 0.97570 0.11950 0.44000
C 	C 	0.62810 0.62280 0.36740 0.11600
C 	C 	0.65770 0.49910 0.38440 -0.19100
C 	C 	0.54410 0.38140 0.41900 0.12800
C 	C 	0.40330 0.39020 0.43520 -0.19700
C 	C 	0.38400 0.51900 0.41740 0.11500
C 	C 	0.26910 0.25800 0.47000 0.46200
C 	C 	0.51130 0.50770 0.96460 0.24800
C 	C 	0.50360 0.97730 0.46580 0.24800
C 	C 	0.97130 0.92360 0.26730 0.08700
C 	C 	0.95500 0.00980 0.31640 -0.18800
C 	C 	0.90680 0.12600 0.30210 0.08700
C 	C 	0.87960 0.14900 0.24110 -0.17400
C 	C 	0.89950 0.05760 0.19560 0.10700
C 	C 	0.98780 0.97570 0.38050 0.44300
C 	C 	0.12810 0.62280 0.13260 0.11400
C 	C 	0.15770 0.49910 0.11560 -0.18800
C 	C 	0.04410 0.38140 0.08100 0.12200
C 	C 	0.90330 0.39020 0.06480 -0.19200
C 	C 	0.88400 0.51900 0.08260 0.11300
C 	C 	0.76910 0.25800 0.03000 0.45900
C 	C 	0.01130 0.50770 0.53540 0.24800
C 	C 	0.00360 0.97730 0.03420 0.24300
C 	C 	0.52870 0.07640 0.76730 0.08900
C 	C 	0.54500 0.99020 0.81640 -0.18700
C 	C 	0.59320 0.87400 0.80210 0.08500
C 	C 	0.62040 0.85100 0.74110 -0.17200
C 	C 	0.60050 0.94240 0.69560 0.10200
C 	C 	0.51220 0.02430 0.88050 0.44000
C 	C 	0.37190 0.37720 0.63260 0.11600
C 	C 	0.34230 0.50090 0.61560 -0.19100
C 	C 	0.45590 0.61860 0.58100 0.12800
C 	C 	0.59670 0.60980 0.56480 -0.19700
C 	C 	0.61600 0.48100 0.58260 0.11500
C 	C 	0.73090 0.74200 0.53000 0.46200
C 	C 	0.48870 0.49230 0.03540 0.24800
C 	C 	0.49640 0.02270 0.53420 0.24800
N 	N 	0.05870 0.05730 0.79209 -0.27100
N 	N 	0.00460 0.36400 0.88300 -0.27200
N 	N 	0.44130 0.94270 0.29209 -0.26900
N 	N 	0.49540 0.63600 0.38300 -0.27200
N 	N 	0.94130 0.94270 0.20791 -0.27100
N 	N 	0.99540 0.63600 0.11700 -0.27200
N 	N 	0.55870 0.05730 0.70791 -0.26900
N 	N 	0.50460 0.36400 0.61700 -0.27200
O 	O 	0.05190 0.96380 0.57543 -0.49500
O 	O 	0.94520 0.11210 0.61256 -0.44100
O 	O 	0.33690 0.71460 0.99528 -0.44200
O 	O 	0.22140 0.86860 0.97089 -0.44700
O 	O 	0.05130 0.61620 0.43357 -0.36600
O 	O 	0.90810 0.35660 0.44339 -0.37300
O 	O 	0.12890 0.11780 0.94171 -0.45500
O 	O 	0.86310 0.96140 0.93898 -0.39100
O 	O 	0.44810 0.03620 0.07543 -0.49000
O 	O 	0.55480 0.88790 0.11256 -0.44200
O 	O 	0.16310 0.28540 0.49528 -0.44700
O 	O 	0.27860 0.13140 0.47089 -0.45400
O 	O 	0.44870 0.38380 0.93357 -0.36600
O 	O 	0.59190 0.64340 0.94339 -0.37100
O 	O 	0.37110 0.88220 0.44171 -0.45500
O 	O 	0.63690 0.03860 0.43898 -0.39700
O 	O 	0.94810 0.03620 0.42457 -0.49500
O 	O 	0.05480 0.88790 0.38744 -0.44100
O 	O 	0.66310 0.28540 0.00472 -0.44200
O 	O 	0.77860 0.13140 0.02911 -0.44700
O 	O 	0.94870 0.38380 0.56643 -0.36600
O 	O 	0.09190 0.64340 0.55661 -0.37300
O 	O 	0.87110 0.88220 0.05829 -0.45500
O 	O 	0.13690 0.03860 0.06102 -0.39100
O 	O 	0.55190 0.96380 0.92457 -0.49000
O 	O 	0.44520 0.11210 0.88744 -0.44200
O 	O 	0.83690 0.71460 0.50472 -0.44700
O 	O 	0.72140 0.86860 0.52911 -0.45400
O 	O 	0.55130 0.61620 0.06643 -0.36600
O 	O 	0.40810 0.35660 0.05661 -0.37100
O 	O 	0.62890 0.11780 0.55829 -0.45500
O 	O 	0.36310 0.96140 0.56102 -0.39700
