data_crystal

_cell_length_a 16.04910
_cell_length_b 16.04910
_cell_length_c 15.36830
_cell_angle_alpha 90.00000
_cell_angle_beta  90.00000
_cell_angle_gamma 90.00000

_symmetry_space_group_name_	'P 1'
_symmetry_space_group_name_H-M	'P 1'

loop_
_symmetry_equiv_pos_as_xyz
  x,y,z

loop_
_atom_site_label
_atom_site_type_symbol
_atom_site_fract_x
_atom_site_fract_y
_atom_site_fract_z
_atom_site_charge
C 	C 	0.09870 0.84990 0.31300 0.07400
H 	H 	0.05910 0.85220 0.35890 -0.04800
C 	C 	0.15850 0.78830 0.31470 -0.13900
H 	H 	0.15920 0.74930 0.36110 0.06000
C 	C 	0.90130 0.15010 0.31300 0.07700
H 	H 	0.94090 0.14780 0.35890 -0.02100
C 	C 	0.84150 0.21170 0.31470 -0.13300
H 	H 	0.84080 0.25070 0.36110 0.07200
C 	C 	0.15010 0.09870 0.31300 0.06200
H 	H 	0.14780 0.05910 0.35890 -0.06800
C 	C 	0.21170 0.15850 0.31470 -0.14900
H 	H 	0.25070 0.15920 0.36110 0.05700
C 	C 	0.84990 0.90130 0.31300 0.08900
H 	H 	0.85220 0.94090 0.35890 -0.00200
C 	C 	0.78830 0.84150 0.31470 -0.12300
H 	H 	0.74930 0.84080 0.36110 0.07600
C 	C 	0.90130 0.84990 0.18700 0.08900
H 	H 	0.94090 0.85220 0.14110 -0.00300
C 	C 	0.84150 0.78830 0.18530 -0.12400
H 	H 	0.84080 0.74930 0.13890 0.07500
C 	C 	0.09870 0.15010 0.18700 0.06200
H 	H 	0.05910 0.14780 0.14110 -0.06800
C 	C 	0.15850 0.21170 0.18530 -0.14900
H 	H 	0.15920 0.25070 0.13890 0.05700
C 	C 	0.84990 0.09870 0.18700 0.07500
H 	H 	0.85220 0.05910 0.14110 -0.04700
C 	C 	0.78830 0.15850 0.18530 -0.13800
H 	H 	0.74930 0.15920 0.13890 0.06100
C 	C 	0.15010 0.90130 0.18700 0.07800
H 	H 	0.14780 0.94090 0.14110 -0.02000
C 	C 	0.21170 0.84150 0.18530 -0.13300
H 	H 	0.25070 0.84080 0.13890 0.07200
C 	C 	0.40130 0.65010 0.18700 0.07800
H 	H 	0.44090 0.64780 0.14110 -0.03500
C 	C 	0.34150 0.71170 0.18530 -0.13700
H 	H 	0.34080 0.75070 0.13890 0.07100
C 	C 	0.59870 0.34990 0.18700 0.07600
H 	H 	0.55910 0.35220 0.14110 -0.03900
C 	C 	0.65850 0.28830 0.18530 -0.13800
H 	H 	0.65920 0.24930 0.13890 0.06300
C 	C 	0.34990 0.40130 0.18700 0.07100
H 	H 	0.35220 0.44090 0.14110 -0.03900
C 	C 	0.28830 0.34150 0.18530 -0.13700
H 	H 	0.24930 0.34080 0.13890 0.05800
C 	C 	0.65010 0.59870 0.18700 0.08300
H 	H 	0.64780 0.55910 0.14110 -0.03500
C 	C 	0.71170 0.65850 0.18530 -0.13700
H 	H 	0.75070 0.65920 0.13890 0.07500
C 	C 	0.59870 0.65010 0.31300 0.08300
H 	H 	0.55910 0.64780 0.35890 -0.03500
C 	C 	0.65850 0.71170 0.31470 -0.13700
H 	H 	0.65920 0.75070 0.36110 0.07500
C 	C 	0.40130 0.34990 0.31300 0.07100
H 	H 	0.44090 0.35220 0.35890 -0.03900
C 	C 	0.34150 0.28830 0.31470 -0.13700
H 	H 	0.34080 0.24930 0.36110 0.05800
C 	C 	0.65010 0.40130 0.31300 0.07800
H 	H 	0.64780 0.44090 0.35890 -0.03500
C 	C 	0.71170 0.34150 0.31470 -0.13700
H 	H 	0.75070 0.34080 0.36110 0.07100
C 	C 	0.34990 0.59870 0.31300 0.07600
H 	H 	0.35220 0.55910 0.35890 -0.03900
C 	C 	0.28830 0.65850 0.31470 -0.13700
H 	H 	0.24930 0.65920 0.36110 0.06300
Zn	Zn	0.00000 0.00000 0.25000 1.08900
Zn	Zn	0.50000 0.50000 0.25000 1.14800
N 	N 	0.09390 0.90610 0.25000 -0.26900
C 	C 	0.21700 0.78300 0.25000 0.05300
N 	N 	0.90610 0.09390 0.25000 -0.26900
C 	C 	0.78300 0.21700 0.25000 0.05300
N 	N 	0.09390 0.09390 0.25000 -0.30600
C 	C 	0.21700 0.21700 0.25000 0.04800
N 	N 	0.90610 0.90610 0.25000 -0.23700
C 	C 	0.78300 0.78300 0.25000 0.05900
N 	N 	0.40610 0.59390 0.25000 -0.27900
C 	C 	0.28300 0.71700 0.25000 0.05400
N 	N 	0.59390 0.40610 0.25000 -0.27900
C 	C 	0.71700 0.28300 0.25000 0.05400
N 	N 	0.40610 0.40610 0.25000 -0.27900
C 	C 	0.28300 0.28300 0.25000 0.04400
N 	N 	0.59390 0.59390 0.25000 -0.27900
C 	C 	0.71700 0.71700 0.25000 0.06400
C 	C 	0.59870 0.34990 0.81300 0.07600
H 	H 	0.55910 0.35220 0.85890 -0.03900
C 	C 	0.65850 0.28830 0.81470 -0.13800
H 	H 	0.65920 0.24930 0.86110 0.06300
C 	C 	0.40130 0.65010 0.81300 0.07800
H 	H 	0.44090 0.64780 0.85890 -0.03500
C 	C 	0.34150 0.71170 0.81470 -0.13700
H 	H 	0.34080 0.75070 0.86110 0.07100
C 	C 	0.65010 0.59870 0.81300 0.08300
H 	H 	0.64780 0.55910 0.85890 -0.03500
C 	C 	0.71170 0.65850 0.81470 -0.13700
H 	H 	0.75070 0.65920 0.86110 0.07500
C 	C 	0.34990 0.40130 0.81300 0.07100
H 	H 	0.35220 0.44090 0.85890 -0.03900
C 	C 	0.28830 0.34150 0.81470 -0.13700
H 	H 	0.24930 0.34080 0.86110 0.05800
C 	C 	0.40130 0.34990 0.68700 0.07100
H 	H 	0.44090 0.35220 0.64110 -0.03900
C 	C 	0.34150 0.28830 0.68530 -0.13700
H 	H 	0.34080 0.24930 0.63890 0.05800
C 	C 	0.59870 0.65010 0.68700 0.08300
H 	H 	0.55910 0.64780 0.64110 -0.03500
C 	C 	0.65850 0.71170 0.68530 -0.13700
H 	H 	0.65920 0.75070 0.63890 0.07500
C 	C 	0.34990 0.59870 0.68700 0.07600
H 	H 	0.35220 0.55910 0.64110 -0.03900
C 	C 	0.28830 0.65850 0.68530 -0.13700
H 	H 	0.24930 0.65920 0.63890 0.06300
C 	C 	0.65010 0.40130 0.68700 0.07800
H 	H 	0.64780 0.44090 0.64110 -0.03500
C 	C 	0.71170 0.34150 0.68530 -0.13700
H 	H 	0.75070 0.34080 0.63890 0.07100
C 	C 	0.90130 0.15010 0.68700 0.07800
H 	H 	0.94090 0.14780 0.64110 -0.02000
C 	C 	0.84150 0.21170 0.68530 -0.13300
H 	H 	0.84080 0.25070 0.63890 0.07200
C 	C 	0.09870 0.84990 0.68700 0.07500
H 	H 	0.05910 0.85220 0.64110 -0.04700
C 	C 	0.15850 0.78830 0.68530 -0.13800
H 	H 	0.15920 0.74930 0.63890 0.06100
C 	C 	0.84990 0.90130 0.68700 0.08900
H 	H 	0.85220 0.94090 0.64110 -0.00200
C 	C 	0.78830 0.84150 0.68530 -0.12300
H 	H 	0.74930 0.84080 0.63890 0.07600
C 	C 	0.15010 0.09870 0.68700 0.06200
H 	H 	0.14780 0.05910 0.64110 -0.06800
C 	C 	0.21170 0.15850 0.68530 -0.14900
H 	H 	0.25070 0.15920 0.63890 0.05700
C 	C 	0.09870 0.15010 0.81300 0.06200
H 	H 	0.05910 0.14780 0.85890 -0.06800
C 	C 	0.15850 0.21170 0.81470 -0.14900
H 	H 	0.15920 0.25070 0.86110 0.05700
C 	C 	0.90130 0.84990 0.81300 0.08900
H 	H 	0.94090 0.85220 0.85890 -0.00300
C 	C 	0.84150 0.78830 0.81470 -0.12400
H 	H 	0.84080 0.74930 0.86110 0.07500
C 	C 	0.15010 0.90130 0.81300 0.07800
H 	H 	0.14780 0.94090 0.85890 -0.02000
C 	C 	0.21170 0.84150 0.81470 -0.13300
H 	H 	0.25070 0.84080 0.86110 0.07200
C 	C 	0.84990 0.09870 0.81300 0.07500
H 	H 	0.85220 0.05910 0.85890 -0.04700
C 	C 	0.78830 0.15850 0.81470 -0.13800
H 	H 	0.74930 0.15920 0.86110 0.06100
Zn	Zn	0.50000 0.50000 0.75000 1.14800
Zn	Zn	-0.00000 0.00000 0.75000 1.08900
N 	N 	0.59390 0.40610 0.75000 -0.27900
C 	C 	0.71700 0.28300 0.75000 0.05400
N 	N 	0.40610 0.59390 0.75000 -0.27900
C 	C 	0.28300 0.71700 0.75000 0.05400
N 	N 	0.59390 0.59390 0.75000 -0.27900
C 	C 	0.71700 0.71700 0.75000 0.06400
N 	N 	0.40610 0.40610 0.75000 -0.27900
C 	C 	0.28300 0.28300 0.75000 0.04400
N 	N 	0.90610 0.09390 0.75000 -0.26900
C 	C 	0.78300 0.21700 0.75000 0.05300
N 	N 	0.09390 0.90610 0.75000 -0.26900
C 	C 	0.21700 0.78300 0.75000 0.05300
N 	N 	0.90610 0.90610 0.75000 -0.23700
C 	C 	0.78300 0.78300 0.75000 0.05900
N 	N 	0.09390 0.09390 0.75000 -0.30600
C 	C 	0.21700 0.21700 0.75000 0.04800
