data_crystal

_cell_length_a 13.55830
_cell_length_b 13.90940
_cell_length_c 16.28000
_cell_angle_alpha 107.80200
_cell_angle_beta  90.00000
_cell_angle_gamma 119.16900

_symmetry_space_group_name_	'P 1'
_symmetry_space_group_name_H-M	'P 1'

loop_
_symmetry_equiv_pos_as_xyz
  x,y,z

loop_
_atom_site_label
_atom_site_type_symbol
_atom_site_fract_x
_atom_site_fract_y
_atom_site_fract_z
_atom_site_charge
Mn	Mn	0.97022 0.41082 0.86424 1.28100
Mn	Mn	0.55940 0.58918 0.63576 1.28500
Mn	Mn	0.02978 0.58918 0.13576 1.28100
Mn	Mn	0.44060 0.41082 0.36424 1.28500
H 	H 	0.01370 0.37140 0.31170 0.64100
H 	H 	0.01040 0.25220 0.29250 0.63300
H 	H 	0.90810 0.25380 0.24940 0.62700
H 	H 	0.79220 0.32000 0.43580 0.60000
H 	H 	0.90060 0.42620 0.42300 0.60300
H 	H 	0.80320 0.33000 0.34250 0.60000
H 	H 	0.76100 0.11920 0.30690 0.59400
H 	H 	0.85120 0.09760 0.34570 0.59600
H 	H 	0.77750 0.13580 0.40660 0.61200
H 	H 	0.19490 0.40500 0.66170 -0.04900
H 	H 	0.13320 0.34400 0.40550 -0.13000
H 	H 	0.88020 0.28940 0.54350 -0.12500
H 	H 	0.23000 0.51520 0.84200 -0.02400
H 	H 	0.39360 0.67940 0.84630 0.11000
H 	H 	0.23180 0.85800 0.91900 0.07400
H 	H 	0.07520 0.69120 0.91170 -0.02400
H 	H 	0.42410 0.96260 0.89920 0.04200
H 	H 	0.54500 0.84920 0.85170 0.06000
H 	H 	0.70290 0.28420 0.86810 -0.03200
H 	H 	0.55140 0.12000 0.87020 0.05200
H 	H 	0.75120 0.98120 0.86220 0.08400
H 	H 	0.90010 0.15500 0.86270 -0.02300
H 	H 	0.64230 0.62860 0.18830 0.67300
H 	H 	0.75820 0.74780 0.20750 0.66500
H 	H 	0.65430 0.74620 0.25060 0.65400
H 	H 	0.47220 0.68000 0.06420 0.61300
H 	H 	0.47440 0.57380 0.07700 0.61600
H 	H 	0.47320 0.67000 0.15750 0.61400
H 	H 	0.64180 0.88080 0.19310 0.60800
H 	H 	0.75360 0.90240 0.15430 0.61100
H 	H 	0.64170 0.86420 0.09340 0.62700
H 	H 	0.78990 0.59500 0.83830 -0.05500
H 	H 	0.78920 0.65600 0.09450 -0.14000
H 	H 	0.59080 0.71060 0.95650 -0.13300
H 	H 	0.71480 0.48480 0.65800 -0.02300
H 	H 	0.71420 0.32060 0.65370 0.10900
H 	H 	0.37380 0.14200 0.58100 0.07100
H 	H 	0.38400 0.30880 0.58830 -0.02800
H 	H 	0.46150 0.03740 0.60080 0.03900
H 	H 	0.69580 0.15080 0.64830 0.06200
H 	H 	0.41870 0.71580 0.63190 -0.03200
H 	H 	0.43140 0.88000 0.62980 0.05500
H 	H 	0.77000 0.01880 0.63780 0.08400
H 	H 	0.74510 0.84500 0.63730 -0.02100
H 	H 	0.98630 0.62860 0.68830 0.64100
H 	H 	0.98960 0.74780 0.70750 0.63300
H 	H 	0.09190 0.74620 0.75060 0.62700
H 	H 	0.20780 0.68000 0.56420 0.60000
H 	H 	0.09940 0.57380 0.57700 0.60300
H 	H 	0.19680 0.67000 0.65750 0.60000
H 	H 	0.23900 0.88080 0.69310 0.59400
H 	H 	0.14880 0.90240 0.65430 0.59600
H 	H 	0.22250 0.86420 0.59340 0.61200
H 	H 	0.80510 0.59500 0.33830 -0.04900
H 	H 	0.86680 0.65600 0.59450 -0.13000
H 	H 	0.11980 0.71060 0.45650 -0.12500
H 	H 	0.77000 0.48480 0.15800 -0.02400
H 	H 	0.60640 0.32060 0.15370 0.11000
H 	H 	0.76820 0.14200 0.08100 0.07400
H 	H 	0.92480 0.30880 0.08830 -0.02400
H 	H 	0.57590 0.03740 0.10080 0.04200
H 	H 	0.45500 0.15080 0.14830 0.06000
H 	H 	0.29710 0.71580 0.13190 -0.03200
H 	H 	0.44860 0.88000 0.12980 0.05200
H 	H 	0.24880 0.01880 0.13780 0.08400
H 	H 	0.09990 0.84500 0.13730 -0.02300
H 	H 	0.35770 0.37140 0.81170 0.67300
H 	H 	0.24180 0.25220 0.79250 0.66500
H 	H 	0.34570 0.25380 0.74940 0.65400
H 	H 	0.52780 0.32000 0.93580 0.61300
H 	H 	0.52560 0.42620 0.92300 0.61600
H 	H 	0.52680 0.33000 0.84250 0.61400
H 	H 	0.35820 0.11920 0.80690 0.60800
H 	H 	0.24640 0.09760 0.84570 0.61100
H 	H 	0.35830 0.13580 0.90660 0.62700
H 	H 	0.21010 0.40500 0.16170 -0.05500
H 	H 	0.21080 0.34400 0.90550 -0.14000
H 	H 	0.40920 0.28940 0.04350 -0.13300
H 	H 	0.28520 0.51520 0.34200 -0.02300
H 	H 	0.28580 0.67940 0.34630 0.10900
H 	H 	0.62620 0.85800 0.41900 0.07100
H 	H 	0.61600 0.69120 0.41170 -0.02800
H 	H 	0.53850 0.96260 0.39920 0.03900
H 	H 	0.30420 0.84920 0.35170 0.06200
H 	H 	0.58130 0.28420 0.36810 -0.03200
H 	H 	0.56860 0.12000 0.37020 0.05500
H 	H 	0.23000 0.98120 0.36220 0.08400
H 	H 	0.25490 0.15500 0.36270 -0.02100
C 	C 	0.96500 0.28900 0.30100 -2.07000
C 	C 	0.84470 0.34400 0.39670 -1.94300
C 	C 	0.81580 0.14460 0.35750 -2.01900
C 	C 	0.03190 0.34740 0.61530 -0.32100
C 	C 	0.14480 0.38380 0.61190 0.24100
C 	C 	0.18420 0.38900 0.53480 -0.35400
C 	C 	0.10740 0.34860 0.45870 0.39400
C 	C 	0.99430 0.31580 0.46060 -0.67700
C 	C 	0.95680 0.31380 0.54050 0.35300
C 	C 	0.98890 0.34360 0.70040 0.36000
C 	C 	0.31010 0.43600 0.53170 0.47000
C 	C 	0.90660 0.27220 0.37840 1.48300
C 	C 	0.23030 0.58560 0.85760 0.10900
C 	C 	0.32900 0.68400 0.85970 -0.23000
C 	C 	0.33420 0.78900 0.88120 0.13200
C 	C 	0.23350 0.78880 0.90230 -0.22300
C 	C 	0.14070 0.68860 0.89830 0.09300
C 	C 	0.43210 0.89700 0.88360 -0.11800
C 	C 	0.53410 0.91300 0.86570 -0.09300
C 	C 	0.71390 0.22320 0.86800 0.09600
C 	C 	0.62200 0.12440 0.86870 -0.17700
C 	C 	0.63070 0.02760 0.86730 0.11200
C 	C 	0.73900 0.04200 0.86430 -0.18500
C 	C 	0.82830 0.14780 0.86460 0.09800
C 	C 	0.67600 0.71100 0.19900 -2.16500
C 	C 	0.50070 0.65600 0.10330 -1.99000
C 	C 	0.67120 0.85540 0.14250 -2.07200
C 	C 	0.68450 0.65260 0.88470 -0.34000
C 	C 	0.76100 0.61620 0.88810 0.25700
C 	C 	0.79520 0.61100 0.96520 -0.37200
C 	C 	0.75880 0.65140 0.04130 0.42300
C 	C 	0.67850 0.68420 0.03940 -0.70600
C 	C 	0.64300 0.68620 0.95950 0.37200
C 	C 	0.64530 0.65640 0.79960 0.37300
C 	C 	0.87410 0.56400 0.96830 0.46300
C 	C 	0.63440 0.72780 0.12160 1.53300
C 	C 	0.64470 0.41440 0.64240 0.10700
C 	C 	0.64500 0.31600 0.64030 -0.22900
C 	C 	0.54520 0.21100 0.61880 0.12900
C 	C 	0.44470 0.21120 0.59770 -0.22300
C 	C 	0.45210 0.31140 0.60170 0.09100
C 	C 	0.53510 0.10300 0.61640 -0.11500
C 	C 	0.62110 0.08700 0.63430 -0.09800
C 	C 	0.49070 0.77680 0.63200 0.09800
C 	C 	0.49760 0.87560 0.63130 -0.17900
C 	C 	0.60310 0.97240 0.63270 0.11800
C 	C 	0.69700 0.95800 0.63570 -0.18400
C 	C 	0.68050 0.85220 0.63540 0.09900
C 	C 	0.03500 0.71100 0.69900 -2.07000
C 	C 	0.15530 0.65600 0.60330 -1.94300
C 	C 	0.18420 0.85540 0.64250 -2.01900
C 	C 	0.96810 0.65260 0.38470 -0.32100
C 	C 	0.85520 0.61620 0.38810 0.24100
C 	C 	0.81580 0.61100 0.46520 -0.35400
C 	C 	0.89260 0.65140 0.54130 0.39400
C 	C 	0.00570 0.68420 0.53940 -0.67700
C 	C 	0.04320 0.68620 0.45950 0.35300
C 	C 	0.01110 0.65640 0.29960 0.36000
C 	C 	0.68990 0.56400 0.46830 0.47000
C 	C 	0.09340 0.72780 0.62160 1.48300
C 	C 	0.76970 0.41440 0.14240 0.10900
C 	C 	0.67100 0.31600 0.14030 -0.23000
C 	C 	0.66580 0.21100 0.11880 0.13200
C 	C 	0.76650 0.21120 0.09770 -0.22300
C 	C 	0.85930 0.31140 0.10170 0.09300
C 	C 	0.56790 0.10300 0.11640 -0.11800
C 	C 	0.46590 0.08700 0.13430 -0.09300
C 	C 	0.28610 0.77680 0.13200 0.09600
C 	C 	0.37800 0.87560 0.13130 -0.17700
C 	C 	0.36930 0.97240 0.13270 0.11200
C 	C 	0.26100 0.95800 0.13570 -0.18500
C 	C 	0.17170 0.85220 0.13540 0.09800
C 	C 	0.32400 0.28900 0.80100 -2.16500
C 	C 	0.49930 0.34400 0.89670 -1.99000
C 	C 	0.32880 0.14460 0.85750 -2.07200
C 	C 	0.31550 0.34740 0.11530 -0.34000
C 	C 	0.23900 0.38380 0.11190 0.25700
C 	C 	0.20480 0.38900 0.03480 -0.37200
C 	C 	0.24120 0.34860 0.95870 0.42300
C 	C 	0.32150 0.31580 0.96060 -0.70600
C 	C 	0.35700 0.31380 0.04050 0.37200
C 	C 	0.35470 0.34360 0.20040 0.37300
C 	C 	0.12590 0.43600 0.03170 0.46300
C 	C 	0.36560 0.27220 0.87840 1.53300
C 	C 	0.35530 0.58560 0.35760 0.10700
C 	C 	0.35500 0.68400 0.35970 -0.22900
C 	C 	0.45480 0.78900 0.38120 0.12900
C 	C 	0.55530 0.78880 0.40230 -0.22300
C 	C 	0.54790 0.68860 0.39830 0.09100
C 	C 	0.46490 0.89700 0.38360 -0.11500
C 	C 	0.37890 0.91300 0.36570 -0.09800
C 	C 	0.50930 0.22320 0.36800 0.09800
C 	C 	0.50240 0.12440 0.36870 -0.17900
C 	C 	0.39690 0.02760 0.36730 0.11800
C 	C 	0.30300 0.04200 0.36430 -0.18400
C 	C 	0.31950 0.14780 0.36460 0.09900
N 	N 	0.13370 0.58400 0.87650 -0.25100
N 	N 	0.82100 0.24200 0.86720 -0.24700
N 	N 	0.54970 0.41600 0.62350 -0.25200
N 	N 	0.57900 0.75800 0.63280 -0.24600
N 	N 	0.86630 0.41600 0.12350 -0.25100
N 	N 	0.17900 0.75800 0.13280 -0.24700
N 	N 	0.45030 0.58400 0.37650 -0.25200
N 	N 	0.42100 0.24200 0.36720 -0.24600
O 	O 	0.04100 0.33000 0.75670 -0.41100
O 	O 	0.90800 0.36080 0.71640 -0.42100
O 	O 	0.33510 0.40000 0.45780 -0.50800
O 	O 	0.38060 0.50420 0.60250 -0.50000
O 	O 	0.71100 0.67000 0.74330 -0.41800
O 	O 	0.54720 0.63920 0.78360 -0.42300
O 	O 	0.93510 0.60000 0.04220 -0.49900
O 	O 	0.87640 0.49580 0.89750 -0.50100
O 	O 	0.95900 0.67000 0.24330 -0.41100
O 	O 	0.09200 0.63920 0.28360 -0.42100
O 	O 	0.66490 0.60000 0.54220 -0.50800
O 	O 	0.61940 0.49580 0.39750 -0.50000
O 	O 	0.28900 0.33000 0.25670 -0.41800
O 	O 	0.45280 0.36080 0.21640 -0.42300
O 	O 	0.06490 0.40000 0.95780 -0.49900
O 	O 	0.12360 0.50420 0.10250 -0.50100
