data_crystal

_cell_length_a 20.42300
_cell_length_b 43.21400
_cell_length_c 7.05180
_cell_angle_alpha 90.00000
_cell_angle_beta  90.00000
_cell_angle_gamma 90.00000

_symmetry_space_group_name_	'P 1'
_symmetry_space_group_name_H-M	'P 1'

loop_
_symmetry_equiv_pos_as_xyz
  x,y,z

loop_
_atom_site_label
_atom_site_type_symbol
_atom_site_fract_x
_atom_site_fract_y
_atom_site_fract_z
_atom_site_charge
C 	C 	0.62640 0.81198 0.28450 0.36200
C 	C 	0.56860 0.83200 0.24480 -0.06700
C 	C 	0.50940 0.81931 0.18350 0.00000
H 	H 	0.50540 0.79800 0.16670 0.03200
C 	C 	0.45660 0.83860 0.14770 -0.05900
C 	C 	0.46280 0.87028 0.17690 -0.10000
H 	H 	0.42720 0.88330 0.15620 0.08900
C 	C 	0.52270 0.88268 0.23760 0.16200
C 	C 	0.57510 0.86370 0.26820 -0.10900
H 	H 	0.61510 0.87200 0.30470 0.07700
C 	C 	0.39250 0.82615 0.08140 0.34400
C 	C 	0.58590 0.92708 0.30260 -0.02900
H 	H 	0.61710 0.92070 0.20660 0.04700
H 	H 	0.60100 0.91950 0.42450 0.05200
C 	C 	0.58120 0.96153 0.30640 0.05200
C 	C 	0.58510 0.97704 0.47990 -0.06000
H 	H 	0.58940 0.96580 0.59180 0.06800
C 	C 	0.58250 0.00931 0.48620 -0.05400
H 	H 	0.58570 0.01950 0.60200 0.06100
C 	C 	0.57540 0.02587 0.32380 0.04300
C 	C 	0.57080 0.01050 0.15130 -0.05500
H 	H 	0.56580 0.02170 0.03960 0.06500
C 	C 	0.57380 0.97868 0.14530 -0.06600
H 	H 	0.57070 0.96870 0.02900 0.06700
C 	C 	0.57410 0.06080 0.33320 -0.01900
H 	H 	0.58050 0.06750 0.46310 0.04900
H 	H 	0.60930 0.06920 0.25670 0.04200
C 	C 	0.50410 0.10316 0.27420 0.18000
C 	C 	0.55310 0.12390 0.33300 -0.11200
H 	H 	0.59440 0.11650 0.36480 0.08400
C 	C 	0.54000 0.15494 0.34340 -0.03900
C 	C 	0.47880 0.16617 0.29270 -0.01600
H 	H 	0.47020 0.18730 0.29910 0.04800
C 	C 	0.43000 0.14572 0.23220 -0.02400
C 	C 	0.44340 0.11432 0.22400 -0.12100
H 	H 	0.41100 0.10060 0.18420 0.09800
C 	C 	0.36530 0.15860 0.17190 0.31200
C 	C 	0.59370 0.17677 0.40750 0.36100
C 	C 	0.71700 0.05640 0.92100 -0.01000
C 	C 	0.71820 0.08780 0.96300 0.00600
O 	O 	0.68220 0.82345 0.28910 -0.40500
O 	O 	0.61520 0.78358 0.31860 -0.43200
O 	O 	0.38540 0.79772 0.05890 -0.35300
O 	O 	0.34780 0.84572 0.05330 -0.46100
O 	O 	0.52350 0.91445 0.26160 -0.20400
O 	O 	0.51330 0.07175 0.26550 -0.21000
O 	O 	0.32540 0.14142 0.08790 -0.39100
O 	O 	0.35440 0.18703 0.20260 -0.27600
O 	O 	0.57680 0.20441 0.42800 -0.48900
O 	O 	0.64950 0.16613 0.44090 -0.31900
C 	C 	0.72460 0.06780 0.63000 -0.01600
C 	C 	0.72620 0.09870 0.68900 0.02300
C 	C 	0.87360 0.68802 0.28450 0.36300
C 	C 	0.93140 0.66800 0.24480 -0.06600
C 	C 	0.99060 0.68069 0.18350 -0.00000
H 	H 	0.99460 0.70200 0.16670 0.03300
C 	C 	0.04340 0.66140 0.14770 -0.05700
C 	C 	0.03720 0.62972 0.17690 -0.09900
H 	H 	0.07280 0.61670 0.15620 0.09000
C 	C 	0.97730 0.61732 0.23760 0.16200
C 	C 	0.92490 0.63630 0.26820 -0.10900
H 	H 	0.88490 0.62800 0.30470 0.07600
C 	C 	0.10750 0.67385 0.08140 0.34400
C 	C 	0.91410 0.57292 0.30260 -0.02900
H 	H 	0.88290 0.57930 0.20660 0.04700
H 	H 	0.89900 0.58050 0.42450 0.05200
C 	C 	0.91880 0.53847 0.30640 0.05200
C 	C 	0.91490 0.52296 0.47990 -0.06000
H 	H 	0.91060 0.53420 0.59180 0.06800
C 	C 	0.91750 0.49069 0.48620 -0.05400
H 	H 	0.91430 0.48050 0.60200 0.06100
C 	C 	0.92460 0.47413 0.32380 0.04300
C 	C 	0.92920 0.48950 0.15130 -0.05500
H 	H 	0.93420 0.47830 0.03960 0.06400
C 	C 	0.92620 0.52132 0.14530 -0.06600
H 	H 	0.92930 0.53130 0.02900 0.06700
C 	C 	0.92590 0.43920 0.33320 -0.01900
H 	H 	0.91950 0.43250 0.46310 0.04900
H 	H 	0.89070 0.43080 0.25670 0.04200
C 	C 	0.99590 0.39684 0.27420 0.17900
C 	C 	0.94690 0.37610 0.33300 -0.11100
H 	H 	0.90560 0.38350 0.36480 0.08300
C 	C 	0.96000 0.34506 0.34340 -0.04100
C 	C 	0.02120 0.33383 0.29270 -0.01500
H 	H 	0.02980 0.31270 0.29910 0.04800
C 	C 	0.07000 0.35428 0.23220 -0.02500
C 	C 	0.05660 0.38568 0.22400 -0.12000
H 	H 	0.08900 0.39940 0.18420 0.09800
C 	C 	0.13470 0.34140 0.17190 0.31300
C 	C 	0.90630 0.32323 0.40750 0.36100
C 	C 	0.78300 0.44360 0.92100 -0.00900
C 	C 	0.78180 0.41220 0.96300 0.00700
O 	O 	0.81780 0.67655 0.28910 -0.40500
O 	O 	0.88480 0.71642 0.31860 -0.43200
O 	O 	0.11460 0.70228 0.05890 -0.35300
O 	O 	0.15220 0.65428 0.05330 -0.46100
O 	O 	0.97650 0.58555 0.26160 -0.20400
O 	O 	0.98670 0.42825 0.26550 -0.21000
O 	O 	0.17460 0.35858 0.08790 -0.39100
O 	O 	0.14560 0.31297 0.20260 -0.27600
O 	O 	0.92320 0.29559 0.42800 -0.48900
O 	O 	0.85050 0.33387 0.44090 -0.31900
C 	C 	0.77540 0.43220 0.63000 -0.01600
C 	C 	0.77380 0.40130 0.68900 0.02300
C 	C 	0.37360 0.31198 0.71550 0.36300
C 	C 	0.43140 0.33200 0.75520 -0.06600
C 	C 	0.49060 0.31931 0.81650 0.00100
H 	H 	0.49460 0.29800 0.83330 0.03300
C 	C 	0.54340 0.33860 0.85230 -0.05800
C 	C 	0.53720 0.37028 0.82310 -0.09900
H 	H 	0.57280 0.38330 0.84380 0.09000
C 	C 	0.47730 0.38268 0.76240 0.16300
C 	C 	0.42490 0.36370 0.73180 -0.10900
H 	H 	0.38490 0.37200 0.69530 0.07700
C 	C 	0.60750 0.32615 0.91860 0.34400
C 	C 	0.41410 0.42708 0.69740 -0.02900
H 	H 	0.38290 0.42070 0.79340 0.04700
H 	H 	0.39900 0.41950 0.57550 0.05200
C 	C 	0.41880 0.46153 0.69360 0.05200
C 	C 	0.41490 0.47704 0.52010 -0.06000
H 	H 	0.41060 0.46580 0.40820 0.06800
C 	C 	0.41750 0.50931 0.51380 -0.05400
H 	H 	0.41430 0.51950 0.39800 0.06100
C 	C 	0.42460 0.52587 0.67620 0.04300
C 	C 	0.42920 0.51050 0.84870 -0.05500
H 	H 	0.43420 0.52170 0.96040 0.06500
C 	C 	0.42620 0.47868 0.85470 -0.06600
H 	H 	0.42930 0.46870 0.97100 0.06700
C 	C 	0.42590 0.56080 0.66680 -0.01900
H 	H 	0.41950 0.56750 0.53690 0.04900
H 	H 	0.39070 0.56920 0.74330 0.04200
C 	C 	0.49590 0.60316 0.72580 0.18000
C 	C 	0.44690 0.62390 0.66700 -0.11200
H 	H 	0.40560 0.61650 0.63520 0.08400
C 	C 	0.46000 0.65494 0.65660 -0.03900
C 	C 	0.52120 0.66617 0.70730 -0.01600
H 	H 	0.52980 0.68730 0.70090 0.04800
C 	C 	0.57000 0.64572 0.76780 -0.02400
C 	C 	0.55660 0.61432 0.77600 -0.12100
H 	H 	0.58900 0.60060 0.81580 0.09800
C 	C 	0.63470 0.65860 0.82810 0.31200
C 	C 	0.40630 0.67677 0.59250 0.36100
C 	C 	0.28300 0.55640 0.07900 -0.01000
C 	C 	0.28180 0.58780 0.03700 0.00600
O 	O 	0.31780 0.32345 0.71090 -0.40500
O 	O 	0.38480 0.28358 0.68140 -0.43200
O 	O 	0.61460 0.29772 0.94110 -0.35300
O 	O 	0.65220 0.34572 0.94670 -0.46100
O 	O 	0.47650 0.41445 0.73840 -0.20400
O 	O 	0.48670 0.57175 0.73450 -0.21000
O 	O 	0.67460 0.64142 0.91210 -0.39100
O 	O 	0.64560 0.68703 0.79740 -0.27600
O 	O 	0.42320 0.70441 0.57200 -0.48900
O 	O 	0.35050 0.66613 0.55910 -0.31900
C 	C 	0.27540 0.56780 0.37000 -0.01600
C 	C 	0.27380 0.59870 0.31100 0.02300
C 	C 	0.12640 0.18802 0.71550 0.36300
C 	C 	0.06860 0.16800 0.75520 -0.06600
C 	C 	0.00940 0.18069 0.81650 -0.00000
H 	H 	0.00540 0.20200 0.83330 0.03300
C 	C 	0.95660 0.16140 0.85230 -0.05700
C 	C 	0.96280 0.12972 0.82310 -0.09900
H 	H 	0.92720 0.11670 0.84380 0.09000
C 	C 	0.02270 0.11732 0.76240 0.16200
C 	C 	0.07510 0.13630 0.73180 -0.10900
H 	H 	0.11510 0.12800 0.69530 0.07600
C 	C 	0.89250 0.17385 0.91860 0.34400
C 	C 	0.08590 0.07292 0.69740 -0.02900
H 	H 	0.11710 0.07930 0.79340 0.04700
H 	H 	0.10100 0.08050 0.57550 0.05200
C 	C 	0.08120 0.03847 0.69360 0.05200
C 	C 	0.08510 0.02296 0.52010 -0.06000
H 	H 	0.08940 0.03420 0.40820 0.06800
C 	C 	0.08250 0.99069 0.51380 -0.05400
H 	H 	0.08570 0.98050 0.39800 0.06100
C 	C 	0.07540 0.97413 0.67620 0.04300
C 	C 	0.07080 0.98950 0.84870 -0.05500
H 	H 	0.06580 0.97830 0.96040 0.06400
C 	C 	0.07380 0.02132 0.85470 -0.06600
H 	H 	0.07070 0.03130 0.97100 0.06700
C 	C 	0.07410 0.93920 0.66680 -0.01900
H 	H 	0.08050 0.93250 0.53690 0.04900
H 	H 	0.10930 0.93080 0.74330 0.04200
C 	C 	0.00410 0.89684 0.72580 0.17900
C 	C 	0.05310 0.87610 0.66700 -0.11100
H 	H 	0.09440 0.88350 0.63520 0.08300
C 	C 	0.04000 0.84506 0.65660 -0.04100
C 	C 	0.97880 0.83383 0.70730 -0.01500
H 	H 	0.97020 0.81270 0.70090 0.04800
C 	C 	0.93000 0.85428 0.76780 -0.02500
C 	C 	0.94340 0.88568 0.77600 -0.12000
H 	H 	0.91100 0.89940 0.81580 0.09800
C 	C 	0.86530 0.84140 0.82810 0.31300
C 	C 	0.09370 0.82323 0.59250 0.36100
C 	C 	0.21700 0.94360 0.07900 -0.00900
C 	C 	0.21820 0.91220 0.03700 0.00700
O 	O 	0.18220 0.17655 0.71090 -0.40500
O 	O 	0.11520 0.21642 0.68140 -0.43200
O 	O 	0.88540 0.20228 0.94110 -0.35300
O 	O 	0.84780 0.15428 0.94670 -0.46100
O 	O 	0.02350 0.08555 0.73840 -0.20400
O 	O 	0.01330 0.92825 0.73450 -0.21000
O 	O 	0.82540 0.85858 0.91210 -0.39100
O 	O 	0.85440 0.81297 0.79740 -0.27600
O 	O 	0.07680 0.79559 0.57200 -0.48900
O 	O 	0.14950 0.83387 0.55910 -0.31900
C 	C 	0.22460 0.93220 0.37000 -0.01600
C 	C 	0.22620 0.90130 0.31100 0.02300
C 	C 	0.37360 0.18802 0.71550 0.36300
C 	C 	0.43140 0.16800 0.75520 -0.06600
C 	C 	0.49060 0.18069 0.81650 0.00100
H 	H 	0.49460 0.20200 0.83330 0.03300
C 	C 	0.54340 0.16140 0.85230 -0.05800
C 	C 	0.53720 0.12972 0.82310 -0.09900
H 	H 	0.57280 0.11670 0.84380 0.09000
C 	C 	0.47730 0.11732 0.76240 0.16300
C 	C 	0.42490 0.13630 0.73180 -0.10900
H 	H 	0.38490 0.12800 0.69530 0.07700
C 	C 	0.60750 0.17385 0.91860 0.34400
C 	C 	0.41410 0.07292 0.69740 -0.02900
H 	H 	0.38290 0.07930 0.79340 0.04700
H 	H 	0.39900 0.08050 0.57550 0.05200
C 	C 	0.41880 0.03847 0.69360 0.05200
C 	C 	0.41490 0.02296 0.52010 -0.06000
H 	H 	0.41060 0.03420 0.40820 0.06800
C 	C 	0.41750 0.99069 0.51380 -0.05400
H 	H 	0.41430 0.98050 0.39800 0.06100
C 	C 	0.42460 0.97413 0.67620 0.04300
C 	C 	0.42920 0.98950 0.84870 -0.05500
H 	H 	0.43420 0.97830 0.96040 0.06500
C 	C 	0.42620 0.02132 0.85470 -0.06600
H 	H 	0.42930 0.03130 0.97100 0.06700
C 	C 	0.42590 0.93920 0.66680 -0.01900
H 	H 	0.41950 0.93250 0.53690 0.04900
H 	H 	0.39070 0.93080 0.74330 0.04200
C 	C 	0.49590 0.89684 0.72580 0.18000
C 	C 	0.44690 0.87610 0.66700 -0.11200
H 	H 	0.40560 0.88350 0.63520 0.08400
C 	C 	0.46000 0.84506 0.65660 -0.03900
C 	C 	0.52120 0.83383 0.70730 -0.01600
H 	H 	0.52980 0.81270 0.70090 0.04800
C 	C 	0.57000 0.85428 0.76780 -0.02400
C 	C 	0.55660 0.88568 0.77600 -0.12100
H 	H 	0.58900 0.89940 0.81580 0.09800
C 	C 	0.63470 0.84140 0.82810 0.31200
C 	C 	0.40630 0.82323 0.59250 0.36100
C 	C 	0.28300 0.94360 0.07900 -0.01000
C 	C 	0.28180 0.91220 0.03700 0.00600
O 	O 	0.31780 0.17655 0.71090 -0.40500
O 	O 	0.38480 0.21642 0.68140 -0.43200
O 	O 	0.61460 0.20228 0.94110 -0.35300
O 	O 	0.65220 0.15428 0.94670 -0.46100
O 	O 	0.47650 0.08555 0.73840 -0.20400
O 	O 	0.48670 0.92825 0.73450 -0.21000
O 	O 	0.67460 0.85858 0.91210 -0.39100
O 	O 	0.64560 0.81297 0.79740 -0.27600
O 	O 	0.42320 0.79559 0.57200 -0.48900
O 	O 	0.35050 0.83387 0.55910 -0.31900
C 	C 	0.27540 0.93220 0.37000 -0.01600
C 	C 	0.27380 0.90130 0.31100 0.02300
C 	C 	0.12640 0.31198 0.71550 0.36300
C 	C 	0.06860 0.33200 0.75520 -0.06600
C 	C 	0.00940 0.31931 0.81650 -0.00000
H 	H 	0.00540 0.29800 0.83330 0.03300
C 	C 	0.95660 0.33860 0.85230 -0.05700
C 	C 	0.96280 0.37028 0.82310 -0.09900
H 	H 	0.92720 0.38330 0.84380 0.09000
C 	C 	0.02270 0.38268 0.76240 0.16200
C 	C 	0.07510 0.36370 0.73180 -0.10900
H 	H 	0.11510 0.37200 0.69530 0.07600
C 	C 	0.89250 0.32615 0.91860 0.34400
C 	C 	0.08590 0.42708 0.69740 -0.02900
H 	H 	0.11710 0.42070 0.79340 0.04700
H 	H 	0.10100 0.41950 0.57550 0.05200
C 	C 	0.08120 0.46153 0.69360 0.05200
C 	C 	0.08510 0.47704 0.52010 -0.06000
H 	H 	0.08940 0.46580 0.40820 0.06800
C 	C 	0.08250 0.50931 0.51380 -0.05400
H 	H 	0.08570 0.51950 0.39800 0.06100
C 	C 	0.07540 0.52587 0.67620 0.04300
C 	C 	0.07080 0.51050 0.84870 -0.05500
H 	H 	0.06580 0.52170 0.96040 0.06400
C 	C 	0.07380 0.47868 0.85470 -0.06600
H 	H 	0.07070 0.46870 0.97100 0.06700
C 	C 	0.07410 0.56080 0.66680 -0.01900
H 	H 	0.08050 0.56750 0.53690 0.04900
H 	H 	0.10930 0.56920 0.74330 0.04200
C 	C 	0.00410 0.60316 0.72580 0.17900
C 	C 	0.05310 0.62390 0.66700 -0.11100
H 	H 	0.09440 0.61650 0.63520 0.08300
C 	C 	0.04000 0.65494 0.65660 -0.04100
C 	C 	0.97880 0.66617 0.70730 -0.01500
H 	H 	0.97020 0.68730 0.70090 0.04800
C 	C 	0.93000 0.64572 0.76780 -0.02500
C 	C 	0.94340 0.61432 0.77600 -0.12000
H 	H 	0.91100 0.60060 0.81580 0.09800
C 	C 	0.86530 0.65860 0.82810 0.31300
C 	C 	0.09370 0.67677 0.59250 0.36100
C 	C 	0.21700 0.55640 0.07900 -0.00900
C 	C 	0.21820 0.58780 0.03700 0.00700
O 	O 	0.18220 0.32345 0.71090 -0.40500
O 	O 	0.11520 0.28358 0.68140 -0.43200
O 	O 	0.88540 0.29772 0.94110 -0.35300
O 	O 	0.84780 0.34572 0.94670 -0.46100
O 	O 	0.02350 0.41445 0.73840 -0.20400
O 	O 	0.01330 0.57175 0.73450 -0.21000
O 	O 	0.82540 0.64142 0.91210 -0.39100
O 	O 	0.85440 0.68703 0.79740 -0.27600
O 	O 	0.07680 0.70441 0.57200 -0.48900
O 	O 	0.14950 0.66613 0.55910 -0.31900
C 	C 	0.22460 0.56780 0.37000 -0.01600
C 	C 	0.22620 0.59870 0.31100 0.02300
C 	C 	0.62640 0.68802 0.28450 0.36300
C 	C 	0.56860 0.66800 0.24480 -0.06600
C 	C 	0.50940 0.68069 0.18350 0.00100
H 	H 	0.50540 0.70200 0.16670 0.03300
C 	C 	0.45660 0.66140 0.14770 -0.05800
C 	C 	0.46280 0.62972 0.17690 -0.09900
H 	H 	0.42720 0.61670 0.15620 0.09000
C 	C 	0.52270 0.61732 0.23760 0.16300
C 	C 	0.57510 0.63630 0.26820 -0.10900
H 	H 	0.61510 0.62800 0.30470 0.07700
C 	C 	0.39250 0.67385 0.08140 0.34400
C 	C 	0.58590 0.57292 0.30260 -0.02900
H 	H 	0.61710 0.57930 0.20660 0.04700
H 	H 	0.60100 0.58050 0.42450 0.05200
C 	C 	0.58120 0.53847 0.30640 0.05200
C 	C 	0.58510 0.52296 0.47990 -0.06000
H 	H 	0.58940 0.53420 0.59180 0.06800
C 	C 	0.58250 0.49069 0.48620 -0.05400
H 	H 	0.58570 0.48050 0.60200 0.06100
C 	C 	0.57540 0.47413 0.32380 0.04300
C 	C 	0.57080 0.48950 0.15130 -0.05500
H 	H 	0.56580 0.47830 0.03960 0.06500
C 	C 	0.57380 0.52132 0.14530 -0.06600
H 	H 	0.57070 0.53130 0.02900 0.06700
C 	C 	0.57410 0.43920 0.33320 -0.01900
H 	H 	0.58050 0.43250 0.46310 0.04900
H 	H 	0.60930 0.43080 0.25670 0.04200
C 	C 	0.50410 0.39684 0.27420 0.18000
C 	C 	0.55310 0.37610 0.33300 -0.11200
H 	H 	0.59440 0.38350 0.36480 0.08400
C 	C 	0.54000 0.34506 0.34340 -0.03900
C 	C 	0.47880 0.33383 0.29270 -0.01600
H 	H 	0.47020 0.31270 0.29910 0.04800
C 	C 	0.43000 0.35428 0.23220 -0.02400
C 	C 	0.44340 0.38568 0.22400 -0.12100
H 	H 	0.41100 0.39940 0.18420 0.09800
C 	C 	0.36530 0.34140 0.17190 0.31200
C 	C 	0.59370 0.32323 0.40750 0.36100
C 	C 	0.71700 0.44360 0.92100 -0.01000
C 	C 	0.71820 0.41220 0.96300 0.00600
O 	O 	0.68220 0.67655 0.28910 -0.40500
O 	O 	0.61520 0.71642 0.31860 -0.43200
O 	O 	0.38540 0.70228 0.05890 -0.35300
O 	O 	0.34780 0.65428 0.05330 -0.46100
O 	O 	0.52350 0.58555 0.26160 -0.20400
O 	O 	0.51330 0.42825 0.26550 -0.21000
O 	O 	0.32540 0.35858 0.08790 -0.39100
O 	O 	0.35440 0.31297 0.20260 -0.27600
O 	O 	0.57680 0.29559 0.42800 -0.48900
O 	O 	0.64950 0.33387 0.44090 -0.31900
C 	C 	0.72460 0.43220 0.63000 -0.01600
C 	C 	0.72620 0.40130 0.68900 0.02300
C 	C 	0.87360 0.81198 0.28450 0.36300
C 	C 	0.93140 0.83200 0.24480 -0.06600
C 	C 	0.99060 0.81931 0.18350 -0.00000
H 	H 	0.99460 0.79800 0.16670 0.03300
C 	C 	0.04340 0.83860 0.14770 -0.05700
C 	C 	0.03720 0.87028 0.17690 -0.09900
H 	H 	0.07280 0.88330 0.15620 0.09000
C 	C 	0.97730 0.88268 0.23760 0.16200
C 	C 	0.92490 0.86370 0.26820 -0.10900
H 	H 	0.88490 0.87200 0.30470 0.07600
C 	C 	0.10750 0.82615 0.08140 0.34400
C 	C 	0.91410 0.92708 0.30260 -0.02900
H 	H 	0.88290 0.92070 0.20660 0.04700
H 	H 	0.89900 0.91950 0.42450 0.05200
C 	C 	0.91880 0.96153 0.30640 0.05200
C 	C 	0.91490 0.97704 0.47990 -0.06000
H 	H 	0.91060 0.96580 0.59180 0.06800
C 	C 	0.91750 0.00931 0.48620 -0.05400
H 	H 	0.91430 0.01950 0.60200 0.06100
C 	C 	0.92460 0.02587 0.32380 0.04300
C 	C 	0.92920 0.01050 0.15130 -0.05500
H 	H 	0.93420 0.02170 0.03960 0.06400
C 	C 	0.92620 0.97868 0.14530 -0.06600
H 	H 	0.92930 0.96870 0.02900 0.06700
C 	C 	0.92590 0.06080 0.33320 -0.01900
H 	H 	0.91950 0.06750 0.46310 0.04900
H 	H 	0.89070 0.06920 0.25670 0.04200
C 	C 	0.99590 0.10316 0.27420 0.17900
C 	C 	0.94690 0.12390 0.33300 -0.11100
H 	H 	0.90560 0.11650 0.36480 0.08300
C 	C 	0.96000 0.15494 0.34340 -0.04100
C 	C 	0.02120 0.16617 0.29270 -0.01500
H 	H 	0.02980 0.18730 0.29910 0.04800
C 	C 	0.07000 0.14572 0.23220 -0.02500
C 	C 	0.05660 0.11432 0.22400 -0.12000
H 	H 	0.08900 0.10060 0.18420 0.09800
C 	C 	0.13470 0.15860 0.17190 0.31300
C 	C 	0.90630 0.17677 0.40750 0.36100
C 	C 	0.78300 0.05640 0.92100 -0.00900
C 	C 	0.78180 0.08780 0.96300 0.00700
O 	O 	0.81780 0.82345 0.28910 -0.40500
O 	O 	0.88480 0.78358 0.31860 -0.43200
O 	O 	0.11460 0.79772 0.05890 -0.35300
O 	O 	0.15220 0.84572 0.05330 -0.46100
O 	O 	0.97650 0.91445 0.26160 -0.20400
O 	O 	0.98670 0.07175 0.26550 -0.21000
O 	O 	0.17460 0.14142 0.08790 -0.39100
O 	O 	0.14560 0.18703 0.20260 -0.27600
O 	O 	0.92320 0.20441 0.42800 -0.48900
O 	O 	0.85050 0.16613 0.44090 -0.31900
C 	C 	0.77540 0.06780 0.63000 -0.01600
C 	C 	0.77380 0.09870 0.68900 0.02300
Co	Co	0.75000 0.84311 0.08890 1.15800
C 	C 	0.75000 0.88440 0.43970 0.06600
H 	H 	0.75000 0.86510 0.49870 0.02600
C 	C 	0.75000 0.91040 0.55410 -0.12700
H 	H 	0.75000 0.90840 0.68540 0.09200
C 	C 	0.75000 0.93960 0.46980 0.05300
C 	C 	0.75000 0.94080 0.27240 -0.12400
H 	H 	0.75000 0.95980 0.21000 0.07900
C 	C 	0.75000 0.91310 0.16860 0.06300
H 	H 	0.75000 0.91420 0.03690 0.00400
C 	C 	0.75000 0.96650 0.59770 0.08000
C 	C 	0.75000 0.01280 0.71980 0.10600
C 	C 	0.75000 0.04630 0.75270 -0.01500
N 	N 	0.75000 0.88503 0.25010 -0.22500
N 	N 	0.75000 0.99270 0.86000 -0.09800
N 	N 	0.75000 0.96330 0.78280 -0.09300
N 	N 	0.75000 0.99723 0.55200 -0.09600
N 	N 	0.75000 0.01180 0.37400 -0.24800
H 	H 	0.75000 0.03170 0.36710 0.14200
H 	H 	0.75000 0.00090 0.27210 0.14400
N 	N 	0.75000 0.10908 0.85060 -0.21500
O 	O 	0.75000 0.78319 0.51600 -0.36400
Co	Co	0.75000 0.65689 0.08890 1.15800
C 	C 	0.75000 0.61560 0.43970 0.06600
H 	H 	0.75000 0.63490 0.49870 0.02600
C 	C 	0.75000 0.58960 0.55410 -0.12700
H 	H 	0.75000 0.59160 0.68540 0.09200
C 	C 	0.75000 0.56040 0.46980 0.05300
C 	C 	0.75000 0.55920 0.27240 -0.12400
H 	H 	0.75000 0.54020 0.21000 0.07900
C 	C 	0.75000 0.58690 0.16860 0.06300
H 	H 	0.75000 0.58580 0.03690 0.00400
C 	C 	0.75000 0.53350 0.59770 0.08000
C 	C 	0.75000 0.48720 0.71980 0.10600
C 	C 	0.75000 0.45370 0.75270 -0.01500
N 	N 	0.75000 0.61497 0.25010 -0.22500
N 	N 	0.75000 0.50730 0.86000 -0.09800
N 	N 	0.75000 0.53670 0.78280 -0.09300
N 	N 	0.75000 0.50277 0.55200 -0.09600
N 	N 	0.75000 0.48820 0.37400 -0.24800
H 	H 	0.75000 0.46830 0.36710 0.14200
H 	H 	0.75000 0.49910 0.27210 0.14400
N 	N 	0.75000 0.39092 0.85060 -0.21500
O 	O 	0.75000 0.71681 0.51600 -0.36400
Co	Co	0.25000 0.34311 0.91110 1.15800
C 	C 	0.25000 0.38440 0.56030 0.06600
H 	H 	0.25000 0.36510 0.50130 0.02600
C 	C 	0.25000 0.41040 0.44590 -0.12700
H 	H 	0.25000 0.40840 0.31460 0.09200
C 	C 	0.25000 0.43960 0.53020 0.05300
C 	C 	0.25000 0.44080 0.72760 -0.12400
H 	H 	0.25000 0.45980 0.79000 0.07900
C 	C 	0.25000 0.41310 0.83140 0.06300
H 	H 	0.25000 0.41420 0.96310 0.00400
C 	C 	0.25000 0.46650 0.40230 0.08000
C 	C 	0.25000 0.51280 0.28020 0.10600
C 	C 	0.25000 0.54630 0.24730 -0.01500
N 	N 	0.25000 0.38503 0.74990 -0.22500
N 	N 	0.25000 0.49270 0.14000 -0.09800
N 	N 	0.25000 0.46330 0.21720 -0.09300
N 	N 	0.25000 0.49723 0.44800 -0.09600
N 	N 	0.25000 0.51180 0.62600 -0.24800
H 	H 	0.25000 0.53170 0.63290 0.14200
H 	H 	0.25000 0.50090 0.72790 0.14400
N 	N 	0.25000 0.60908 0.14940 -0.21500
O 	O 	0.25000 0.28319 0.48400 -0.36400
Co	Co	0.25000 0.15689 0.91110 1.15800
C 	C 	0.25000 0.11560 0.56030 0.06600
H 	H 	0.25000 0.13490 0.50130 0.02600
C 	C 	0.25000 0.08960 0.44590 -0.12700
H 	H 	0.25000 0.09160 0.31460 0.09200
C 	C 	0.25000 0.06040 0.53020 0.05300
C 	C 	0.25000 0.05920 0.72760 -0.12400
H 	H 	0.25000 0.04020 0.79000 0.07900
C 	C 	0.25000 0.08690 0.83140 0.06300
H 	H 	0.25000 0.08580 0.96310 0.00400
C 	C 	0.25000 0.03350 0.40230 0.08000
C 	C 	0.25000 0.98720 0.28020 0.10600
C 	C 	0.25000 0.95370 0.24730 -0.01500
N 	N 	0.25000 0.11497 0.74990 -0.22500
N 	N 	0.25000 0.00730 0.14000 -0.09800
N 	N 	0.25000 0.03670 0.21720 -0.09300
N 	N 	0.25000 0.00277 0.44800 -0.09600
N 	N 	0.25000 0.98820 0.62600 -0.24800
H 	H 	0.25000 0.96830 0.63290 0.14200
H 	H 	0.25000 0.99910 0.72790 0.14400
N 	N 	0.25000 0.89092 0.14940 -0.21500
O 	O 	0.25000 0.21681 0.48400 -0.36400
Co	Co	0.25000 0.84292 0.05065 1.10000
Co	Co	0.25000 0.65708 0.05065 1.10000
Co	Co	0.75000 0.34292 0.94935 1.10000
Co	Co	0.75000 0.15708 0.94935 1.10000
Co	Co	0.67566 0.75000 0.41050 1.15400
Co	Co	0.82434 0.75000 0.41050 1.15400
Co	Co	0.32434 0.25000 0.58950 1.15400
Co	Co	0.17566 0.25000 0.58950 1.15400
Co	Co	0.58975 0.25000 0.43130 1.07800
Co	Co	0.91025 0.25000 0.43130 1.07800
Co	Co	0.41025 0.75000 0.56870 1.07800
Co	Co	0.08975 0.75000 0.56870 1.07800
O 	O 	0.75000 0.75000 0.19360 -0.41600
O 	O 	0.25000 0.25000 0.80640 -0.41600
