data_crystal

_cell_length_a 12.64300
_cell_length_b 13.94400
_cell_length_c 15.44300
_cell_angle_alpha 59.64700
_cell_angle_beta  83.26200
_cell_angle_gamma 86.87600

_symmetry_space_group_name_	'P 1'
_symmetry_space_group_name_H-M	'P 1'

loop_
_symmetry_equiv_pos_as_xyz
  x,y,z

loop_
_atom_site_label
_atom_site_type_symbol
_atom_site_fract_x
_atom_site_fract_y
_atom_site_fract_z
_atom_site_charge
La	La	0.06831 0.09328 0.25108 1.63400
La	La	0.06766 0.84634 0.53337 1.68200
Cu	Cu	0.45225 0.58724 0.22545 0.84600
O 	O 	0.19100 0.95580 0.21150 -0.39300
O 	O 	0.18820 0.91850 0.36800 -0.46500
O 	O 	0.85990 0.32200 0.48630 -0.37200
O 	O 	0.83580 0.32950 0.34450 -0.39000
O 	O 	0.80560 0.78330 0.91150 -0.40300
O 	O 	0.73120 0.84990 0.76990 -0.36100
O 	O 	0.08000 0.30140 0.37890 -0.42000
O 	O 	0.05880 0.27160 0.25410 -0.45700
O 	O 	0.08210 0.05700 0.42540 -0.51900
O 	O 	0.96660 0.89660 0.38890 -0.56700
O 	O 	0.94350 0.96730 0.22960 -0.48600
O 	O 	0.25130 0.89930 0.56580 -0.43900
O 	O 	0.11460 0.88110 0.67470 -0.57000
N 	N 	0.41050 0.68220 0.29100 -0.27400
N 	N 	0.56470 0.53320 0.32490 -0.27000
N 	N 	0.50140 0.65250 0.07480 -0.26600
N 	N 	0.34660 0.50780 0.19260 -0.27400
C 	C 	0.32770 0.75210 0.27180 0.27600
C 	C 	0.31120 0.81760 0.31710 -0.24000
C 	C 	0.37950 0.80460 0.38570 0.10800
C 	C 	0.46430 0.73270 0.40520 -0.15100
C 	C 	0.47870 0.67300 0.35500 0.05800
C 	C 	0.56770 0.59450 0.37010 0.04600
C 	C 	0.65010 0.58390 0.42680 -0.14800
C 	C 	0.72930 0.50710 0.43780 0.08800
C 	C 	0.72670 0.44410 0.39150 -0.21700
C 	C 	0.64180 0.45800 0.33540 0.25700
C 	C 	0.25300 0.74840 0.20620 -0.63800
C 	C 	0.22440 0.90160 0.29660 0.39700
C 	C 	0.62660 0.39250 0.28560 -0.63100
C 	C 	0.81340 0.36050 0.40830 0.35700
C 	C 	0.59180 0.71110 0.02370 0.24900
C 	C 	0.62260 0.73780 0.92320 -0.21100
C 	C 	0.55340 0.71050 0.87460 0.08800
C 	C 	0.46080 0.65260 0.92610 -0.14600
C 	C 	0.43800 0.62260 0.02810 0.04900
C 	C 	0.34560 0.55170 0.09170 0.05100
C 	C 	0.26390 0.52760 0.05270 -0.15100
C 	C 	0.18530 0.45330 0.11900 0.10900
C 	C 	0.18790 0.40400 0.22300 -0.24400
C 	C 	0.27080 0.43460 0.25800 0.26800
C 	C 	0.65340 0.74340 0.08300 -0.61700
C 	C 	0.72590 0.79460 0.86510 0.35500
C 	C 	0.28270 0.38820 0.36660 -0.63200
C 	C 	0.10350 0.32020 0.29090 0.41400
C 	C 	0.84880 0.79990 0.35000 -0.94800
C 	C 	0.92440 0.89210 0.32030 0.61300
C 	C 	0.21400 0.89500 0.64650 0.57900
C 	C 	0.28530 0.90150 0.71450 -0.89300
H 	H 	0.36800 0.84560 0.41980 0.00300
H 	H 	0.51190 0.72410 0.45190 0.06300
H 	H 	0.65190 0.62830 0.45720 0.05400
H 	H 	0.78560 0.49750 0.47710 -0.00100
H 	H 	0.27630 0.80160 0.13540 0.19600
H 	H 	0.18120 0.76780 0.22390 0.21600
H 	H 	0.25200 0.67340 0.21580 0.17500
H 	H 	0.58510 0.32530 0.33310 0.19700
H 	H 	0.69620 0.37160 0.26510 0.22200
H 	H 	0.58850 0.43760 0.22610 0.16600
H 	H 	0.57050 0.73210 0.80550 0.00200
H 	H 	0.41350 0.63340 0.89380 0.05700
H 	H 	0.26220 0.56140 0.98180 0.06700
H 	H 	0.12910 0.43570 0.09360 -0.00500
H 	H 	0.62880 0.81580 0.07310 0.19000
H 	H 	0.72940 0.74800 0.05960 0.22000
H 	H 	0.64210 0.68730 0.15480 0.16900
H 	H 	0.32550 0.32040 0.39100 0.19200
H 	H 	0.21220 0.37050 0.40520 0.21600
H 	H 	0.31820 0.44300 0.37540 0.16300
H 	H 	0.88810 0.73650 0.35180 0.29500
H 	H 	0.79650 0.82510 0.30090 0.29300
H 	H 	0.81200 0.77750 0.41700 0.29200
H 	H 	0.30740 0.82650 0.76330 0.27300
H 	H 	0.24670 0.93590 0.75070 0.27300
H 	H 	0.34840 0.94640 0.67410 0.28200
La	La	0.93169 0.90672 0.74892 1.63300
La	La	0.93234 0.15366 0.46663 1.68100
Cu	Cu	0.54775 0.41276 0.77455 0.84600
O 	O 	0.80900 0.04420 0.78850 -0.39300
O 	O 	0.81180 0.08150 0.63200 -0.46500
O 	O 	0.14010 0.67800 0.51370 -0.37200
O 	O 	0.16420 0.67050 0.65550 -0.39000
O 	O 	0.19440 0.21670 0.08850 -0.40300
O 	O 	0.26880 0.15010 0.23010 -0.36100
O 	O 	0.92000 0.69860 0.62110 -0.42000
O 	O 	0.94120 0.72840 0.74590 -0.45700
O 	O 	0.91790 0.94300 0.57460 -0.51900
O 	O 	0.03340 0.10340 0.61110 -0.56700
O 	O 	0.05650 0.03270 0.77040 -0.48600
O 	O 	0.74870 0.10070 0.43420 -0.43900
O 	O 	0.88540 0.11890 0.32530 -0.57000
N 	N 	0.58950 0.31780 0.70900 -0.27400
N 	N 	0.43530 0.46680 0.67510 -0.27000
N 	N 	0.49860 0.34750 0.92520 -0.26600
N 	N 	0.65340 0.49220 0.80740 -0.27400
C 	C 	0.67230 0.24790 0.72820 0.27600
C 	C 	0.68880 0.18240 0.68290 -0.24000
C 	C 	0.62050 0.19540 0.61430 0.10800
C 	C 	0.53570 0.26730 0.59480 -0.15100
C 	C 	0.52130 0.32700 0.64500 0.05800
C 	C 	0.43230 0.40550 0.62990 0.04600
C 	C 	0.34990 0.41610 0.57320 -0.14800
C 	C 	0.27070 0.49290 0.56220 0.08800
C 	C 	0.27330 0.55590 0.60850 -0.21700
C 	C 	0.35820 0.54200 0.66460 0.25700
C 	C 	0.74700 0.25160 0.79380 -0.63800
C 	C 	0.77560 0.09840 0.70340 0.39700
C 	C 	0.37340 0.60750 0.71440 -0.63100
C 	C 	0.18660 0.63950 0.59170 0.35700
C 	C 	0.40820 0.28890 0.97630 0.24900
C 	C 	0.37740 0.26220 0.07680 -0.21100
C 	C 	0.44660 0.28950 0.12540 0.08800
C 	C 	0.53920 0.34740 0.07390 -0.14600
C 	C 	0.56200 0.37740 0.97190 0.04900
C 	C 	0.65440 0.44830 0.90830 0.05100
C 	C 	0.73610 0.47240 0.94730 -0.15100
C 	C 	0.81470 0.54670 0.88100 0.10900
C 	C 	0.81210 0.59600 0.77700 -0.24400
C 	C 	0.72920 0.56540 0.74200 0.26800
C 	C 	0.34660 0.25660 0.91700 -0.61700
C 	C 	0.27410 0.20540 0.13490 0.35500
C 	C 	0.71730 0.61180 0.63340 -0.63200
C 	C 	0.89650 0.67980 0.70910 0.41400
C 	C 	0.15120 0.20010 0.65000 -0.94800
C 	C 	0.07560 0.10790 0.67970 0.61300
C 	C 	0.78600 0.10500 0.35350 0.57900
C 	C 	0.71470 0.09850 0.28550 -0.89300
H 	H 	0.63200 0.15440 0.58020 0.00300
H 	H 	0.48810 0.27590 0.54810 0.06300
H 	H 	0.34810 0.37170 0.54280 0.05400
H 	H 	0.21440 0.50250 0.52290 -0.00100
H 	H 	0.72370 0.19840 0.86460 0.19600
H 	H 	0.81880 0.23220 0.77610 0.21600
H 	H 	0.74800 0.32660 0.78420 0.17500
H 	H 	0.41490 0.67470 0.66690 0.19700
H 	H 	0.30380 0.62840 0.73490 0.22200
H 	H 	0.41150 0.56240 0.77390 0.16600
H 	H 	0.42950 0.26790 0.19450 0.00200
H 	H 	0.58650 0.36660 0.10620 0.05700
H 	H 	0.73780 0.43860 0.01820 0.06700
H 	H 	0.87090 0.56430 0.90640 -0.00500
H 	H 	0.37120 0.18420 0.92690 0.19000
H 	H 	0.27060 0.25200 0.94040 0.22000
H 	H 	0.35790 0.31270 0.84520 0.16900
H 	H 	0.67450 0.67960 0.60900 0.19200
H 	H 	0.78780 0.62950 0.59480 0.21600
H 	H 	0.68180 0.55700 0.62460 0.16300
H 	H 	0.11190 0.26350 0.64820 0.29500
H 	H 	0.20350 0.17490 0.69910 0.29300
H 	H 	0.18800 0.22250 0.58300 0.29200
H 	H 	0.69260 0.17350 0.23670 0.27300
H 	H 	0.75330 0.06410 0.24930 0.27300
H 	H 	0.65160 0.05360 0.32590 0.28200
