data_crystal

_cell_length_a 26.15770
_cell_length_b 26.15770
_cell_length_c 6.86710
_cell_angle_alpha 90.00000
_cell_angle_beta  90.00000
_cell_angle_gamma 120.00000

_symmetry_space_group_name_	'P 1'
_symmetry_space_group_name_H-M	'P 1'

loop_
_symmetry_equiv_pos_as_xyz
  x,y,z

loop_
_atom_site_label
_atom_site_type_symbol
_atom_site_fract_x
_atom_site_fract_y
_atom_site_fract_z
_atom_site_charge
Fe	Fe	0.38289 0.35225 0.14280 1.15700
O 	O 	0.32676 0.29450 0.36670 -0.56400
O 	O 	0.30187 0.22741 0.60000 -0.45400
O 	O 	0.35501 0.27326 0.00930 -0.52100
C 	C 	0.31893 0.24522 0.42730 0.39200
C 	C 	0.32803 0.20589 0.28570 -0.17500
C 	C 	0.34464 0.22113 0.09330 0.19000
C 	C 	0.35214 0.18326 0.97380 -0.08500
H 	H 	0.36023 0.19266 0.82960 0.06800
Fe	Fe	0.04956 0.68558 0.47613 1.15700
O 	O 	0.99343 0.62783 0.70003 -0.56400
O 	O 	0.96854 0.56074 0.93333 -0.45400
O 	O 	0.02168 0.60659 0.34263 -0.52000
C 	C 	0.98560 0.57855 0.76063 0.39200
C 	C 	0.99470 0.53922 0.61903 -0.17600
C 	C 	0.01131 0.55446 0.42663 0.19000
C 	C 	0.01881 0.51659 0.30713 -0.08700
H 	H 	0.02690 0.52599 0.16293 0.06700
Fe	Fe	0.71622 0.01892 0.80947 1.15600
O 	O 	0.66009 0.96117 0.03337 -0.56500
O 	O 	0.63520 0.89408 0.26667 -0.45500
O 	O 	0.68834 0.93993 0.67597 -0.52200
C 	C 	0.65226 0.91189 0.09397 0.39200
C 	C 	0.66136 0.87256 0.95237 -0.17700
C 	C 	0.67797 0.88780 0.75997 0.19000
C 	C 	0.68547 0.84993 0.64047 -0.08700
H 	H 	0.69356 0.85933 0.49627 0.06700
Fe	Fe	0.64775 0.03064 0.14280 1.15600
O 	O 	0.70550 0.03226 0.36670 -0.56500
O 	O 	0.77259 0.07446 0.60000 -0.45500
O 	O 	0.72674 0.08175 0.00930 -0.52200
C 	C 	0.75478 0.07371 0.42730 0.39100
C 	C 	0.79411 0.12214 0.28570 -0.17500
C 	C 	0.77887 0.12351 0.09330 0.18900
C 	C 	0.81674 0.16888 0.97380 -0.08500
H 	H 	0.80734 0.16757 0.82960 0.06600
Fe	Fe	0.31442 0.36397 0.47613 1.15600
O 	O 	0.37217 0.36559 0.70003 -0.56500
O 	O 	0.43926 0.40779 0.93333 -0.45500
O 	O 	0.39341 0.41508 0.34263 -0.52200
C 	C 	0.42145 0.40704 0.76063 0.39100
C 	C 	0.46078 0.45547 0.61903 -0.17600
C 	C 	0.44554 0.45684 0.42663 0.19000
C 	C 	0.48341 0.50221 0.30713 -0.08700
H 	H 	0.47401 0.50090 0.16293 0.06700
Fe	Fe	0.98108 0.69731 0.80947 1.15600
O 	O 	0.03883 0.69893 0.03337 -0.56500
O 	O 	0.10592 0.74113 0.26667 -0.45500
O 	O 	0.06007 0.74842 0.67597 -0.52200
C 	C 	0.08811 0.74038 0.09397 0.39200
C 	C 	0.12744 0.78881 0.95237 -0.17700
C 	C 	0.11220 0.79018 0.75997 0.19100
C 	C 	0.15007 0.83555 0.64047 -0.08800
H 	H 	0.14067 0.83424 0.49627 0.06700
Fe	Fe	0.96936 0.61711 0.14280 1.15600
O 	O 	0.96774 0.67324 0.36670 -0.56500
O 	O 	0.92554 0.69813 0.60000 -0.45500
O 	O 	0.91825 0.64499 0.00930 -0.52200
C 	C 	0.92629 0.68107 0.42730 0.39100
C 	C 	0.87786 0.67197 0.28570 -0.17600
C 	C 	0.87649 0.65536 0.09330 0.18900
C 	C 	0.83112 0.64786 0.97380 -0.08600
H 	H 	0.83243 0.63977 0.82960 0.06700
Fe	Fe	0.63603 0.95044 0.47613 1.15600
O 	O 	0.63441 0.00657 0.70003 -0.56500
O 	O 	0.59221 0.03146 0.93333 -0.45500
O 	O 	0.58492 0.97832 0.34263 -0.52200
C 	C 	0.59296 0.01440 0.76063 0.39100
C 	C 	0.54453 0.00530 0.61903 -0.17600
C 	C 	0.54316 0.98869 0.42663 0.19000
C 	C 	0.49779 0.98119 0.30713 -0.08700
H 	H 	0.49910 0.97310 0.16293 0.06700
Fe	Fe	0.30269 0.28378 0.80947 1.15600
O 	O 	0.30107 0.33991 0.03337 -0.56500
O 	O 	0.25887 0.36480 0.26667 -0.45500
O 	O 	0.25158 0.31166 0.67597 -0.52200
C 	C 	0.25962 0.34774 0.09397 0.39100
C 	C 	0.21119 0.33864 0.95237 -0.17600
C 	C 	0.20982 0.32203 0.75997 0.19000
C 	C 	0.16445 0.31453 0.64047 -0.08700
H 	H 	0.16576 0.30644 0.49627 0.06700
Fe	Fe	0.61711 0.64775 0.85720 1.15600
O 	O 	0.67324 0.70550 0.63330 -0.56500
O 	O 	0.69813 0.77259 0.40000 -0.45500
O 	O 	0.64499 0.72674 0.99070 -0.52200
C 	C 	0.68107 0.75478 0.57270 0.39100
C 	C 	0.67197 0.79411 0.71430 -0.17600
C 	C 	0.65536 0.77887 0.90670 0.18900
C 	C 	0.64786 0.81674 0.02620 -0.08600
H 	H 	0.63977 0.80734 0.17040 0.06700
Fe	Fe	0.28378 0.98108 0.19053 1.15600
O 	O 	0.33991 0.03883 0.96663 -0.56500
O 	O 	0.36480 0.10592 0.73333 -0.45500
O 	O 	0.31166 0.06007 0.32403 -0.52200
C 	C 	0.34774 0.08811 0.90603 0.39200
C 	C 	0.33864 0.12744 0.04763 -0.17700
C 	C 	0.32203 0.11220 0.24003 0.19000
C 	C 	0.31453 0.15007 0.35953 -0.08700
H 	H 	0.30644 0.14067 0.50373 0.06700
Fe	Fe	0.95044 0.31442 0.52387 1.15600
O 	O 	0.00657 0.37217 0.29997 -0.56500
O 	O 	0.03146 0.43926 0.06667 -0.45500
O 	O 	0.97832 0.39341 0.65737 -0.52100
C 	C 	0.01440 0.42145 0.23937 0.39100
C 	C 	0.00530 0.46078 0.38097 -0.17600
C 	C 	0.98869 0.44554 0.57337 0.19000
C 	C 	0.98119 0.48341 0.69287 -0.08700
H 	H 	0.97310 0.47401 0.83707 0.06700
Fe	Fe	0.35225 0.96936 0.85720 1.15600
O 	O 	0.29450 0.96774 0.63330 -0.56500
O 	O 	0.22741 0.92554 0.40000 -0.45500
O 	O 	0.27326 0.91825 0.99070 -0.52200
C 	C 	0.24522 0.92629 0.57270 0.39100
C 	C 	0.20589 0.87786 0.71430 -0.17500
C 	C 	0.22113 0.87649 0.90670 0.18900
C 	C 	0.18326 0.83112 0.02620 -0.08500
H 	H 	0.19266 0.83243 0.17040 0.06600
Fe	Fe	0.01892 0.30269 0.19053 1.15600
O 	O 	0.96117 0.30107 0.96663 -0.56500
O 	O 	0.89408 0.25887 0.73333 -0.45500
O 	O 	0.93993 0.25158 0.32403 -0.52200
C 	C 	0.91189 0.25962 0.90603 0.39200
C 	C 	0.87256 0.21119 0.04763 -0.17700
C 	C 	0.88780 0.20982 0.24003 0.19100
C 	C 	0.84993 0.16445 0.35953 -0.08800
H 	H 	0.85933 0.16576 0.50373 0.06700
Fe	Fe	0.68558 0.63603 0.52387 1.15600
O 	O 	0.62783 0.63441 0.29997 -0.56500
O 	O 	0.56074 0.59221 0.06667 -0.45500
O 	O 	0.60659 0.58492 0.65737 -0.52200
C 	C 	0.57855 0.59296 0.23937 0.39100
C 	C 	0.53922 0.54453 0.38097 -0.17600
C 	C 	0.55446 0.54316 0.57337 0.19000
C 	C 	0.51659 0.49779 0.69287 -0.08700
H 	H 	0.52599 0.49910 0.83707 0.06700
Fe	Fe	0.03064 0.38289 0.85720 1.15600
O 	O 	0.03226 0.32676 0.63330 -0.56500
O 	O 	0.07446 0.30187 0.40000 -0.45500
O 	O 	0.08175 0.35501 0.99070 -0.52200
C 	C 	0.07371 0.31893 0.57270 0.39100
C 	C 	0.12214 0.32803 0.71430 -0.17600
C 	C 	0.12351 0.34464 0.90670 0.18900
C 	C 	0.16888 0.35214 0.02620 -0.08600
H 	H 	0.16757 0.36023 0.17040 0.06700
Fe	Fe	0.69731 0.71622 0.19053 1.15600
O 	O 	0.69893 0.66009 0.96663 -0.56500
O 	O 	0.74113 0.63520 0.73333 -0.45500
O 	O 	0.74842 0.68834 0.32403 -0.52200
C 	C 	0.74038 0.65226 0.90603 0.39100
C 	C 	0.78881 0.66136 0.04763 -0.17600
C 	C 	0.79018 0.67797 0.24003 0.19000
C 	C 	0.83555 0.68547 0.35953 -0.08700
H 	H 	0.83424 0.69356 0.50373 0.06700
Fe	Fe	0.36397 0.04956 0.52387 1.15600
O 	O 	0.36559 0.99343 0.29997 -0.56500
O 	O 	0.40779 0.96854 0.06667 -0.45500
O 	O 	0.41508 0.02168 0.65737 -0.52200
C 	C 	0.40704 0.98560 0.23937 0.39100
C 	C 	0.45547 0.99470 0.38097 -0.17600
C 	C 	0.45684 0.01131 0.57337 0.19000
C 	C 	0.50221 0.01881 0.69287 -0.08700
H 	H 	0.50090 0.02690 0.83707 0.06700
