data_crystal

_cell_length_a 26.12430
_cell_length_b 26.12430
_cell_length_c 6.87520
_cell_angle_alpha 90.00000
_cell_angle_beta  90.00000
_cell_angle_gamma 120.00000

_symmetry_space_group_name_	'P 1'
_symmetry_space_group_name_H-M	'P 1'

loop_
_symmetry_equiv_pos_as_xyz
  x,y,z

loop_
_atom_site_label
_atom_site_type_symbol
_atom_site_fract_x
_atom_site_fract_y
_atom_site_fract_z
_atom_site_charge
Fe	Fe	0.38284 0.35180 0.14790 1.18000
O 	O 	0.32708 0.29516 0.36190 -0.56500
O 	O 	0.30065 0.22525 0.59290 -0.40000
O 	O 	0.35544 0.27360 0.00590 -0.49600
C 	C 	0.31936 0.24711 0.42340 0.40800
C 	C 	0.32668 0.20573 0.28720 -0.14600
C 	C 	0.34574 0.22231 0.09560 0.20200
C 	C 	0.35073 0.18081 0.97680 -0.04000
H 	H 	0.36320 0.19310 0.83080 0.08000
O 	O 	0.47040 0.35150 0.24900 0.09900
N 	N 	0.51756 0.39191 0.21330 -0.02400
N 	N 	0.56100 0.43090 0.16350 -0.26900
N 	N 	0.50900 0.37320 0.33270 0.02600
O 	O 	0.55910 0.40270 0.40200 -0.09100
N 	N 	0.46190 0.34810 0.28530 -0.07900
N 	N 	0.47110 0.36300 0.26830 -0.15200
O 	O 	0.56570 0.41870 0.14200 0.24900
Fe	Fe	0.04951 0.68513 0.48123 1.18000
O 	O 	0.99375 0.62849 0.69523 -0.56500
O 	O 	0.96732 0.55858 0.92623 -0.40000
O 	O 	0.02211 0.60693 0.33923 -0.49500
C 	C 	0.98603 0.58044 0.75673 0.40900
C 	C 	0.99335 0.53906 0.62053 -0.14400
C 	C 	0.01241 0.55564 0.42893 0.20300
C 	C 	0.01740 0.51414 0.31013 -0.03800
H 	H 	0.02987 0.52643 0.16413 0.08100
O 	O 	0.13707 0.68483 0.58233 0.10100
N 	N 	0.18423 0.72524 0.54663 -0.02300
N 	N 	0.22767 0.76423 0.49683 -0.26800
N 	N 	0.17567 0.70653 0.66603 0.02800
O 	O 	0.22577 0.73603 0.73533 -0.09000
N 	N 	0.12857 0.68143 0.61863 -0.07800
N 	N 	0.13777 0.69633 0.60163 -0.15100
O 	O 	0.23237 0.75203 0.47533 0.25100
Fe	Fe	0.71617 0.01847 0.81457 1.18100
O 	O 	0.66041 0.96183 0.02857 -0.56400
O 	O 	0.63398 0.89192 0.25957 -0.39900
O 	O 	0.68877 0.94027 0.67257 -0.49500
C 	C 	0.65269 0.91378 0.09007 0.40800
C 	C 	0.66001 0.87240 0.95387 -0.14400
C 	C 	0.67907 0.88898 0.76227 0.20200
C 	C 	0.68406 0.84748 0.64347 -0.03800
H 	H 	0.69653 0.85977 0.49747 0.08100
O 	O 	0.80373 0.01817 0.91567 0.10000
N 	N 	0.85089 0.05858 0.87997 -0.02300
N 	N 	0.89433 0.09757 0.83017 -0.26800
N 	N 	0.84233 0.03987 0.99937 0.02800
O 	O 	0.89243 0.06937 0.06867 -0.09000
N 	N 	0.79523 0.01477 0.95197 -0.07800
N 	N 	0.80443 0.02967 0.93497 -0.15100
O 	O 	0.89903 0.08537 0.80867 0.25000
Fe	Fe	0.64820 0.03104 0.14790 1.18100
O 	O 	0.70484 0.03192 0.36190 -0.56400
O 	O 	0.77475 0.07540 0.59290 -0.39900
O 	O 	0.72640 0.08184 0.00590 -0.49500
C 	C 	0.75289 0.07225 0.42340 0.40900
C 	C 	0.79427 0.12095 0.28720 -0.14500
C 	C 	0.77769 0.12343 0.09560 0.20300
C 	C 	0.81919 0.16992 0.97680 -0.03900
H 	H 	0.80690 0.17010 0.83080 0.08100
O 	O 	0.64850 0.11890 0.24900 0.10000
N 	N 	0.60809 0.12565 0.21330 -0.02300
N 	N 	0.56910 0.13010 0.16350 -0.26800
N 	N 	0.62680 0.13580 0.33270 0.02800
O 	O 	0.59730 0.15640 0.40200 -0.09000
N 	N 	0.65190 0.11380 0.28530 -0.07800
N 	N 	0.63700 0.10810 0.26830 -0.15100
O 	O 	0.58130 0.14700 0.14200 0.25000
Fe	Fe	0.31487 0.36437 0.48123 1.18100
O 	O 	0.37151 0.36525 0.69523 -0.56400
O 	O 	0.44142 0.40873 0.92623 -0.39900
O 	O 	0.39307 0.41517 0.33923 -0.49500
C 	C 	0.41956 0.40558 0.75673 0.40900
C 	C 	0.46094 0.45428 0.62053 -0.14500
C 	C 	0.44436 0.45676 0.42893 0.20300
C 	C 	0.48586 0.50325 0.31013 -0.03800
H 	H 	0.47357 0.50343 0.16413 0.08100
O 	O 	0.31517 0.45223 0.58233 0.10100
N 	N 	0.27476 0.45898 0.54663 -0.02300
N 	N 	0.23577 0.46343 0.49683 -0.26800
N 	N 	0.29347 0.46913 0.66603 0.02800
O 	O 	0.26397 0.48973 0.73533 -0.09000
N 	N 	0.31857 0.44713 0.61863 -0.07800
N 	N 	0.30367 0.44143 0.60163 -0.15100
O 	O 	0.24797 0.48033 0.47533 0.25100
Fe	Fe	0.98153 0.69771 0.81457 1.18100
O 	O 	0.03817 0.69859 0.02857 -0.56400
O 	O 	0.10808 0.74207 0.25957 -0.39900
O 	O 	0.05973 0.74851 0.67257 -0.49500
C 	C 	0.08622 0.73892 0.09007 0.40900
C 	C 	0.12760 0.78762 0.95387 -0.14400
C 	C 	0.11102 0.79010 0.76227 0.20300
C 	C 	0.15252 0.83659 0.64347 -0.03800
H 	H 	0.14023 0.83677 0.49747 0.08100
O 	O 	0.98183 0.78557 0.91567 0.10000
N 	N 	0.94142 0.79232 0.87997 -0.02300
N 	N 	0.90243 0.79677 0.83017 -0.26800
N 	N 	0.96013 0.80247 0.99937 0.02700
O 	O 	0.93063 0.82307 0.06867 -0.09000
N 	N 	0.98523 0.78047 0.95197 -0.07800
N 	N 	0.97033 0.77477 0.93497 -0.15100
O 	O 	0.91463 0.81367 0.80867 0.25000
Fe	Fe	0.96896 0.61716 0.14790 1.18100
O 	O 	0.96808 0.67292 0.36190 -0.56400
O 	O 	0.92460 0.69935 0.59290 -0.39900
O 	O 	0.91816 0.64456 0.00590 -0.49500
C 	C 	0.92775 0.68064 0.42340 0.40900
C 	C 	0.87905 0.67332 0.28720 -0.14500
C 	C 	0.87657 0.65426 0.09560 0.20300
C 	C 	0.83008 0.64927 0.97680 -0.03900
H 	H 	0.82990 0.63680 0.83080 0.08100
O 	O 	0.88110 0.52960 0.24900 0.10000
N 	N 	0.87435 0.48244 0.21330 -0.02300
N 	N 	0.86990 0.43900 0.16350 -0.26800
N 	N 	0.86420 0.49100 0.33270 0.02800
O 	O 	0.84360 0.44090 0.40200 -0.09000
N 	N 	0.88620 0.53810 0.28530 -0.07800
N 	N 	0.89190 0.52890 0.26830 -0.15100
O 	O 	0.85300 0.43430 0.14200 0.25000
Fe	Fe	0.63563 0.95049 0.48123 1.18100
O 	O 	0.63475 0.00625 0.69523 -0.56400
O 	O 	0.59127 0.03268 0.92623 -0.39900
O 	O 	0.58483 0.97789 0.33923 -0.49500
C 	C 	0.59442 0.01397 0.75673 0.40900
C 	C 	0.54572 0.00665 0.62053 -0.14400
C 	C 	0.54324 0.98759 0.42893 0.20300
C 	C 	0.49675 0.98260 0.31013 -0.03800
H 	H 	0.49657 0.97013 0.16413 0.08100
O 	O 	0.54777 0.86293 0.58233 0.10100
N 	N 	0.54102 0.81577 0.54663 -0.02300
N 	N 	0.53657 0.77233 0.49683 -0.26800
N 	N 	0.53087 0.82433 0.66603 0.02800
O 	O 	0.51027 0.77423 0.73533 -0.09000
N 	N 	0.55287 0.87143 0.61863 -0.07800
N 	N 	0.55857 0.86223 0.60163 -0.15100
O 	O 	0.51967 0.76763 0.47533 0.25100
Fe	Fe	0.30229 0.28383 0.81457 1.18100
O 	O 	0.30141 0.33959 0.02857 -0.56400
O 	O 	0.25793 0.36602 0.25957 -0.39900
O 	O 	0.25149 0.31123 0.67257 -0.49500
C 	C 	0.26108 0.34731 0.09007 0.40800
C 	C 	0.21238 0.33999 0.95387 -0.14400
C 	C 	0.20990 0.32093 0.76227 0.20200
C 	C 	0.16341 0.31594 0.64347 -0.03800
H 	H 	0.16323 0.30347 0.49747 0.08100
O 	O 	0.21443 0.19627 0.91567 0.10000
N 	N 	0.20768 0.14911 0.87997 -0.02300
N 	N 	0.20323 0.10567 0.83017 -0.26800
N 	N 	0.19753 0.15767 0.99937 0.02700
O 	O 	0.17693 0.10757 0.06867 -0.09000
N 	N 	0.21953 0.20477 0.95197 -0.07800
N 	N 	0.22523 0.19557 0.93497 -0.15100
O 	O 	0.18633 0.10097 0.80867 0.25000
Fe	Fe	0.61716 0.64820 0.85210 1.18100
O 	O 	0.67292 0.70484 0.63810 -0.56400
O 	O 	0.69935 0.77475 0.40710 -0.39900
O 	O 	0.64456 0.72640 0.99410 -0.49500
C 	C 	0.68064 0.75289 0.57660 0.40900
C 	C 	0.67332 0.79427 0.71280 -0.14500
C 	C 	0.65426 0.77769 0.90440 0.20300
C 	C 	0.64927 0.81919 0.02320 -0.03900
H 	H 	0.63680 0.80690 0.16920 0.08100
O 	O 	0.52960 0.64850 0.75100 0.10000
N 	N 	0.48244 0.60809 0.78670 -0.02300
N 	N 	0.43900 0.56910 0.83650 -0.26800
N 	N 	0.49100 0.62680 0.66730 0.02700
O 	O 	0.44090 0.59730 0.59800 -0.09000
N 	N 	0.53810 0.65190 0.71470 -0.07800
N 	N 	0.52890 0.63700 0.73170 -0.15100
O 	O 	0.43430 0.58130 0.85800 0.25000
Fe	Fe	0.28383 0.98153 0.18543 1.18100
O 	O 	0.33959 0.03817 0.97143 -0.56400
O 	O 	0.36602 0.10808 0.74043 -0.39900
O 	O 	0.31123 0.05973 0.32743 -0.49500
C 	C 	0.34731 0.08622 0.90993 0.40800
C 	C 	0.33999 0.12760 0.04613 -0.14400
C 	C 	0.32093 0.11102 0.23773 0.20200
C 	C 	0.31594 0.15252 0.35653 -0.03800
H 	H 	0.30347 0.14023 0.50253 0.08100
O 	O 	0.19627 0.98183 0.08433 0.10000
N 	N 	0.14911 0.94142 0.12003 -0.02300
N 	N 	0.10567 0.90243 0.16983 -0.26800
N 	N 	0.15767 0.96013 0.00063 0.02800
O 	O 	0.10757 0.93063 0.93133 -0.09000
N 	N 	0.20477 0.98523 0.04803 -0.07800
N 	N 	0.19557 0.97033 0.06503 -0.15100
O 	O 	0.10097 0.91463 0.19133 0.25000
Fe	Fe	0.95049 0.31487 0.51877 1.18100
O 	O 	0.00625 0.37151 0.30477 -0.56400
O 	O 	0.03268 0.44142 0.07377 -0.39900
O 	O 	0.97789 0.39307 0.66077 -0.49500
C 	C 	0.01397 0.41956 0.24327 0.40900
C 	C 	0.00665 0.46094 0.37947 -0.14400
C 	C 	0.98759 0.44436 0.57107 0.20300
C 	C 	0.98260 0.48586 0.68987 -0.03800
H 	H 	0.97013 0.47357 0.83587 0.08100
O 	O 	0.86293 0.31517 0.41767 0.10100
N 	N 	0.81577 0.27476 0.45337 -0.02300
N 	N 	0.77233 0.23577 0.50317 -0.26800
N 	N 	0.82433 0.29347 0.33397 0.02800
O 	O 	0.77423 0.26397 0.26467 -0.09000
N 	N 	0.87143 0.31857 0.38137 -0.07800
N 	N 	0.86223 0.30367 0.39837 -0.15100
O 	O 	0.76763 0.24797 0.52467 0.25100
Fe	Fe	0.35180 0.96896 0.85210 1.18100
O 	O 	0.29516 0.96808 0.63810 -0.56400
O 	O 	0.22525 0.92460 0.40710 -0.39900
O 	O 	0.27360 0.91816 0.99410 -0.49500
C 	C 	0.24711 0.92775 0.57660 0.40900
C 	C 	0.20573 0.87905 0.71280 -0.14500
C 	C 	0.22231 0.87657 0.90440 0.20300
C 	C 	0.18081 0.83008 0.02320 -0.03900
H 	H 	0.19310 0.82990 0.16920 0.08100
O 	O 	0.35150 0.88110 0.75100 0.10000
N 	N 	0.39191 0.87435 0.78670 -0.02300
N 	N 	0.43090 0.86990 0.83650 -0.26800
N 	N 	0.37320 0.86420 0.66730 0.02800
O 	O 	0.40270 0.84360 0.59800 -0.09000
N 	N 	0.34810 0.88620 0.71470 -0.07800
N 	N 	0.36300 0.89190 0.73170 -0.15100
O 	O 	0.41870 0.85300 0.85800 0.25000
Fe	Fe	0.01847 0.30229 0.18543 1.18100
O 	O 	0.96183 0.30141 0.97143 -0.56400
O 	O 	0.89192 0.25793 0.74043 -0.39900
O 	O 	0.94027 0.25149 0.32743 -0.49500
C 	C 	0.91378 0.26108 0.90993 0.40900
C 	C 	0.87240 0.21238 0.04613 -0.14400
C 	C 	0.88898 0.20990 0.23773 0.20300
C 	C 	0.84748 0.16341 0.35653 -0.03800
H 	H 	0.85977 0.16323 0.50253 0.08100
O 	O 	0.01817 0.21443 0.08433 0.10000
N 	N 	0.05858 0.20768 0.12003 -0.02300
N 	N 	0.09757 0.20323 0.16983 -0.26800
N 	N 	0.03987 0.19753 0.00063 0.02700
O 	O 	0.06937 0.17693 0.93133 -0.09000
N 	N 	0.01477 0.21953 0.04803 -0.07800
N 	N 	0.02967 0.22523 0.06503 -0.15100
O 	O 	0.08537 0.18633 0.19133 0.25000
Fe	Fe	0.68513 0.63563 0.51877 1.18100
O 	O 	0.62849 0.63475 0.30477 -0.56400
O 	O 	0.55858 0.59127 0.07377 -0.39900
O 	O 	0.60693 0.58483 0.66077 -0.49500
C 	C 	0.58044 0.59442 0.24327 0.40900
C 	C 	0.53906 0.54572 0.37947 -0.14500
C 	C 	0.55564 0.54324 0.57107 0.20300
C 	C 	0.51414 0.49675 0.68987 -0.03800
H 	H 	0.52643 0.49657 0.83587 0.08100
O 	O 	0.68483 0.54777 0.41767 0.10100
N 	N 	0.72524 0.54102 0.45337 -0.02300
N 	N 	0.76423 0.53657 0.50317 -0.26800
N 	N 	0.70653 0.53087 0.33397 0.02800
O 	O 	0.73603 0.51027 0.26467 -0.09000
N 	N 	0.68143 0.55287 0.38137 -0.07800
N 	N 	0.69633 0.55857 0.39837 -0.15100
O 	O 	0.75203 0.51967 0.52467 0.25100
Fe	Fe	0.03104 0.38284 0.85210 1.18100
O 	O 	0.03192 0.32708 0.63810 -0.56400
O 	O 	0.07540 0.30065 0.40710 -0.39900
O 	O 	0.08184 0.35544 0.99410 -0.49500
C 	C 	0.07225 0.31936 0.57660 0.40900
C 	C 	0.12095 0.32668 0.71280 -0.14500
C 	C 	0.12343 0.34574 0.90440 0.20300
C 	C 	0.16992 0.35073 0.02320 -0.03900
H 	H 	0.17010 0.36320 0.16920 0.08100
O 	O 	0.11890 0.47040 0.75100 0.10000
N 	N 	0.12565 0.51756 0.78670 -0.02300
N 	N 	0.13010 0.56100 0.83650 -0.26800
N 	N 	0.13580 0.50900 0.66730 0.02800
O 	O 	0.15640 0.55910 0.59800 -0.09000
N 	N 	0.11380 0.46190 0.71470 -0.07800
N 	N 	0.10810 0.47110 0.73170 -0.15100
O 	O 	0.14700 0.56570 0.85800 0.25000
Fe	Fe	0.69771 0.71617 0.18543 1.18100
O 	O 	0.69859 0.66041 0.97143 -0.56400
O 	O 	0.74207 0.63398 0.74043 -0.39900
O 	O 	0.74851 0.68877 0.32743 -0.49500
C 	C 	0.73892 0.65269 0.90993 0.40800
C 	C 	0.78762 0.66001 0.04613 -0.14400
C 	C 	0.79010 0.67907 0.23773 0.20200
C 	C 	0.83659 0.68406 0.35653 -0.03800
H 	H 	0.83677 0.69653 0.50253 0.08100
O 	O 	0.78557 0.80373 0.08433 0.10000
N 	N 	0.79232 0.85089 0.12003 -0.02300
N 	N 	0.79677 0.89433 0.16983 -0.26800
N 	N 	0.80247 0.84233 0.00063 0.02700
O 	O 	0.82307 0.89243 0.93133 -0.09000
N 	N 	0.78047 0.79523 0.04803 -0.07800
N 	N 	0.77477 0.80443 0.06503 -0.15100
O 	O 	0.81367 0.89903 0.19133 0.25000
Fe	Fe	0.36437 0.04951 0.51877 1.18100
O 	O 	0.36525 0.99375 0.30477 -0.56400
O 	O 	0.40873 0.96732 0.07377 -0.39900
O 	O 	0.41517 0.02211 0.66077 -0.49500
C 	C 	0.40558 0.98603 0.24327 0.40900
C 	C 	0.45428 0.99335 0.37947 -0.14400
C 	C 	0.45676 0.01241 0.57107 0.20300
C 	C 	0.50325 0.01740 0.68987 -0.03800
H 	H 	0.50343 0.02987 0.83587 0.08100
O 	O 	0.45223 0.13707 0.41767 0.10100
N 	N 	0.45898 0.18423 0.45337 -0.02300
N 	N 	0.46343 0.22767 0.50317 -0.26800
N 	N 	0.46913 0.17567 0.33397 0.02800
O 	O 	0.48973 0.22577 0.26467 -0.09000
N 	N 	0.44713 0.12857 0.38137 -0.07800
N 	N 	0.44143 0.13777 0.39837 -0.15100
O 	O 	0.48033 0.23237 0.52467 0.25100
