data_crystal

_cell_length_a 25.61910
_cell_length_b 25.61910
_cell_length_c 6.80420
_cell_angle_alpha 90.00000
_cell_angle_beta  90.00000
_cell_angle_gamma 120.00000

_symmetry_space_group_name_	'P 1'
_symmetry_space_group_name_H-M	'P 1'

loop_
_symmetry_equiv_pos_as_xyz
  x,y,z

loop_
_atom_site_label
_atom_site_type_symbol
_atom_site_fract_x
_atom_site_fract_y
_atom_site_fract_z
_atom_site_charge
Fe	Fe	0.38968 0.35116 0.15400 1.17100
O 	O 	0.32222 0.29670 0.35770 -0.53400
O 	O 	0.30050 0.22950 0.59580 -0.44300
O 	O 	0.35534 0.27360 0.99620 -0.51300
C 	C 	0.31670 0.24730 0.41560 0.36700
C 	C 	0.32650 0.20510 0.29350 -0.18100
C 	C 	0.34310 0.22190 0.10110 0.14100
C 	C 	0.34880 0.18150 0.96150 -0.06800
H 	H 	0.36170 0.19070 0.83400 0.06700
Fe	Fe	0.05635 0.68449 0.48733 1.17100
O 	O 	0.98889 0.63003 0.69103 -0.53500
O 	O 	0.96717 0.56283 0.92913 -0.44300
O 	O 	0.02201 0.60693 0.32953 -0.51600
C 	C 	0.98337 0.58063 0.74893 0.36800
C 	C 	0.99317 0.53843 0.62683 -0.18400
C 	C 	0.00977 0.55523 0.43443 0.14700
C 	C 	0.01547 0.51483 0.29483 -0.07700
H 	H 	0.02837 0.52403 0.16733 0.07100
Fe	Fe	0.72301 0.01783 0.82067 1.17100
O 	O 	0.65555 0.96337 0.02437 -0.53600
O 	O 	0.63383 0.89617 0.26247 -0.44500
O 	O 	0.68867 0.94027 0.66287 -0.51700
C 	C 	0.65003 0.91397 0.08227 0.37200
C 	C 	0.65983 0.87177 0.96017 -0.19200
C 	C 	0.67643 0.88857 0.76777 0.15000
C 	C 	0.68213 0.84817 0.62817 -0.08000
H 	H 	0.69503 0.85737 0.50067 0.07200
Fe	Fe	0.64884 0.03852 0.15400 1.16900
O 	O 	0.70330 0.02552 0.35770 -0.53500
O 	O 	0.77050 0.07100 0.59580 -0.44300
O 	O 	0.72640 0.08174 0.99620 -0.51200
C 	C 	0.75270 0.06940 0.41560 0.36600
C 	C 	0.79490 0.12140 0.29350 -0.17900
C 	C 	0.77810 0.12120 0.10110 0.13700
C 	C 	0.81850 0.16730 0.96150 -0.06200
H 	H 	0.80930 0.17100 0.83400 0.06600
Fe	Fe	0.31551 0.37185 0.48733 1.17100
O 	O 	0.36997 0.35885 0.69103 -0.53500
O 	O 	0.43717 0.40433 0.92913 -0.44400
O 	O 	0.39307 0.41507 0.32953 -0.51600
C 	C 	0.41937 0.40273 0.74893 0.36800
C 	C 	0.46157 0.45473 0.62683 -0.18400
C 	C 	0.44477 0.45453 0.43443 0.14700
C 	C 	0.48517 0.50063 0.29483 -0.07700
H 	H 	0.47597 0.50433 0.16733 0.07000
Fe	Fe	0.98217 0.70519 0.82067 1.17100
O 	O 	0.03663 0.69219 0.02437 -0.53600
O 	O 	0.10383 0.73767 0.26247 -0.44500
O 	O 	0.05973 0.74841 0.66287 -0.51800
C 	C 	0.08603 0.73607 0.08227 0.37400
C 	C 	0.12823 0.78807 0.96017 -0.19600
C 	C 	0.11143 0.78787 0.76777 0.15200
C 	C 	0.15183 0.83397 0.62817 -0.08200
H 	H 	0.14263 0.83767 0.50067 0.07200
Fe	Fe	0.96148 0.61032 0.15400 1.17000
O 	O 	0.97448 0.67778 0.35770 -0.53500
O 	O 	0.92900 0.69950 0.59580 -0.44400
O 	O 	0.91826 0.64466 0.99620 -0.51400
C 	C 	0.93060 0.68330 0.41560 0.36700
C 	C 	0.87860 0.67350 0.29350 -0.18100
C 	C 	0.87880 0.65690 0.10110 0.14000
C 	C 	0.83270 0.65120 0.96150 -0.06800
H 	H 	0.82900 0.63830 0.83400 0.06700
Fe	Fe	0.62815 0.94365 0.48733 1.17100
O 	O 	0.64115 0.01111 0.69103 -0.53500
O 	O 	0.59567 0.03283 0.92913 -0.44300
O 	O 	0.58493 0.97799 0.32953 -0.51600
C 	C 	0.59727 0.01663 0.74893 0.36800
C 	C 	0.54527 0.00683 0.62683 -0.18400
C 	C 	0.54547 0.99023 0.43443 0.14600
C 	C 	0.49937 0.98453 0.29483 -0.07700
H 	H 	0.49567 0.97163 0.16733 0.07100
Fe	Fe	0.29481 0.27699 0.82067 1.17100
O 	O 	0.30781 0.34445 0.02437 -0.53600
O 	O 	0.26233 0.36617 0.26247 -0.44500
O 	O 	0.25159 0.31133 0.66287 -0.51700
C 	C 	0.26393 0.34997 0.08227 0.37200
C 	C 	0.21193 0.34017 0.96017 -0.19100
C 	C 	0.21213 0.32357 0.76777 0.15000
C 	C 	0.16603 0.31787 0.62817 -0.08000
H 	H 	0.16233 0.30497 0.50067 0.07200
Fe	Fe	0.61032 0.64884 0.84600 1.17000
O 	O 	0.67778 0.70330 0.64230 -0.53500
O 	O 	0.69950 0.77050 0.40420 -0.44400
O 	O 	0.64466 0.72640 0.00380 -0.51400
C 	C 	0.68330 0.75270 0.58440 0.36700
C 	C 	0.67350 0.79490 0.70650 -0.18100
C 	C 	0.65690 0.77810 0.89890 0.14100
C 	C 	0.65120 0.81850 0.03850 -0.06800
H 	H 	0.63830 0.80930 0.16600 0.06700
Fe	Fe	0.27699 0.98217 0.17933 1.17100
O 	O 	0.34445 0.03663 0.97563 -0.53600
O 	O 	0.36617 0.10383 0.73753 -0.44500
O 	O 	0.31133 0.05973 0.33713 -0.51700
C 	C 	0.34997 0.08603 0.91773 0.37200
C 	C 	0.34017 0.12823 0.03983 -0.19200
C 	C 	0.32357 0.11143 0.23223 0.15000
C 	C 	0.31787 0.15183 0.37183 -0.08000
H 	H 	0.30497 0.14263 0.49933 0.07200
Fe	Fe	0.94365 0.31551 0.51267 1.17100
O 	O 	0.01111 0.36997 0.30897 -0.53500
O 	O 	0.03283 0.43717 0.07087 -0.44300
O 	O 	0.97799 0.39307 0.67047 -0.51600
C 	C 	0.01663 0.41937 0.25107 0.36800
C 	C 	0.00683 0.46157 0.37317 -0.18400
C 	C 	0.99023 0.44477 0.56557 0.14700
C 	C 	0.98453 0.48517 0.70517 -0.07700
H 	H 	0.97163 0.47597 0.83267 0.07100
Fe	Fe	0.35116 0.96148 0.84600 1.16900
O 	O 	0.29670 0.97448 0.64230 -0.53500
O 	O 	0.22950 0.92900 0.40420 -0.44300
O 	O 	0.27360 0.91826 0.00380 -0.51200
C 	C 	0.24730 0.93060 0.58440 0.36600
C 	C 	0.20510 0.87860 0.70650 -0.17900
C 	C 	0.22190 0.87880 0.89890 0.13700
C 	C 	0.18150 0.83270 0.03850 -0.06200
H 	H 	0.19070 0.82900 0.16600 0.06600
Fe	Fe	0.01783 0.29481 0.17933 1.17100
O 	O 	0.96337 0.30781 0.97563 -0.53600
O 	O 	0.89617 0.26233 0.73753 -0.44500
O 	O 	0.94027 0.25159 0.33713 -0.51800
C 	C 	0.91397 0.26393 0.91773 0.37400
C 	C 	0.87177 0.21193 0.03983 -0.19600
C 	C 	0.88857 0.21213 0.23223 0.15200
C 	C 	0.84817 0.16603 0.37183 -0.08200
H 	H 	0.85737 0.16233 0.49933 0.07200
Fe	Fe	0.68449 0.62815 0.51267 1.17100
O 	O 	0.63003 0.64115 0.30897 -0.53500
O 	O 	0.56283 0.59567 0.07087 -0.44400
O 	O 	0.60693 0.58493 0.67047 -0.51600
C 	C 	0.58063 0.59727 0.25107 0.36800
C 	C 	0.53843 0.54527 0.37317 -0.18400
C 	C 	0.55523 0.54547 0.56557 0.14700
C 	C 	0.51483 0.49937 0.70517 -0.07700
H 	H 	0.52403 0.49567 0.83267 0.07000
Fe	Fe	0.03852 0.38968 0.84600 1.17000
O 	O 	0.02552 0.32222 0.64230 -0.53500
O 	O 	0.07100 0.30050 0.40420 -0.44400
O 	O 	0.08174 0.35534 0.00380 -0.51400
C 	C 	0.06940 0.31670 0.58440 0.36700
C 	C 	0.12140 0.32650 0.70650 -0.18100
C 	C 	0.12120 0.34310 0.89890 0.14000
C 	C 	0.16730 0.34880 0.03850 -0.06800
H 	H 	0.17100 0.36170 0.16600 0.06700
Fe	Fe	0.70519 0.72301 0.17933 1.17100
O 	O 	0.69219 0.65555 0.97563 -0.53600
O 	O 	0.73767 0.63383 0.73753 -0.44500
O 	O 	0.74841 0.68867 0.33713 -0.51700
C 	C 	0.73607 0.65003 0.91773 0.37200
C 	C 	0.78807 0.65983 0.03983 -0.19100
C 	C 	0.78787 0.67643 0.23223 0.15000
C 	C 	0.83397 0.68213 0.37183 -0.08000
H 	H 	0.83767 0.69503 0.49933 0.07200
Fe	Fe	0.37185 0.05635 0.51267 1.17100
O 	O 	0.35885 0.98889 0.30897 -0.53500
O 	O 	0.40433 0.96717 0.07087 -0.44300
O 	O 	0.41507 0.02201 0.67047 -0.51600
C 	C 	0.40273 0.98337 0.25107 0.36800
C 	C 	0.45473 0.99317 0.37317 -0.18400
C 	C 	0.45453 0.00977 0.56557 0.14600
C 	C 	0.50063 0.01547 0.70517 -0.07700
H 	H 	0.50433 0.02837 0.83267 0.07100
