data_crystal

_cell_length_a 9.95600
_cell_length_b 11.20800
_cell_length_c 10.61500
_cell_angle_alpha 90.00000
_cell_angle_beta  113.53000
_cell_angle_gamma 90.00000

_symmetry_space_group_name_	'P 1'
_symmetry_space_group_name_H-M	'P 1'

loop_
_symmetry_equiv_pos_as_xyz
  x,y,z

loop_
_atom_site_label
_atom_site_type_symbol
_atom_site_fract_x
_atom_site_fract_y
_atom_site_fract_z
_atom_site_charge
Zr	Zr	0.91040 0.16416 0.72238 3.20000
Rb	Rb	0.61900 0.56902 0.61550 0.69500
N 	N 	0.06550 0.27077 0.93338 -0.10100
N 	N 	0.95920 0.01011 0.57988 -0.11200
C 	C 	0.08570 0.39400 0.89500 -0.53500
C 	C 	0.20490 0.20400 0.99480 -0.49900
C 	C 	0.99130 0.26950 0.03060 -0.44600
C 	C 	0.95310 0.43630 0.77350 0.51300
C 	C 	0.16930 0.07200 0.98160 0.51600
C 	C 	0.83490 0.22690 0.96870 0.46700
C 	C 	0.91660 0.89340 0.61630 -0.67400
C 	C 	0.11760 0.01450 0.60860 -0.16800
C 	C 	0.86960 0.03920 0.43320 -0.27800
C 	C 	0.78660 0.90600 0.65340 0.48800
C 	C 	0.17180 0.14210 0.63600 0.39300
C 	C 	0.74540 0.12470 0.41200 0.42800
O 	O 	0.93230 0.54378 0.74920 -0.36700
O 	O 	0.87107 0.35425 0.69673 -0.68400
O 	O 	0.24340 0.00033 0.06670 -0.31100
O 	O 	0.05415 0.04468 0.87143 -0.68700
O 	O 	0.76360 0.22227 0.03970 -0.25400
O 	O 	0.78476 0.19112 0.84306 -0.65200
O 	O 	0.71430 0.81789 0.65520 -0.36800
O 	O 	0.76120 0.01119 0.68490 -0.60800
O 	O 	0.28296 0.17100 0.62110 -0.29400
O 	O 	0.09570 0.21260 0.67856 -0.68400
O 	O 	0.64150 0.13160 0.30180 -0.29000
O 	O 	0.76150 0.19300 0.51473 -0.67300
H 	H 	0.10700 0.44800 0.96600 0.23100
H 	H 	0.16600 0.39700 0.86400 0.19400
H 	H 	0.25900 0.23000 0.08400 0.21100
H 	H 	0.26000 0.22300 0.93900 0.18800
H 	H 	0.04100 0.21300 0.10600 0.15800
H 	H 	0.99800 0.34400 0.06500 0.23100
H 	H 	0.00000 0.86300 0.69200 0.21400
H 	H 	0.90100 0.83900 0.55500 0.31000
H 	H 	0.14000 0.98500 0.53900 0.05100
H 	H 	0.17100 0.97200 0.69400 0.03700
H 	H 	0.83500 0.96500 0.38000 0.10300
H 	H 	0.93700 0.08100 0.39400 0.13500
Zr	Zr	0.08960 0.66416 0.27762 3.19800
Rb	Rb	0.38100 0.06902 0.38450 0.70700
N 	N 	0.93450 0.77077 0.06662 -0.08800
N 	N 	0.04080 0.51011 0.42012 -0.08500
C 	C 	0.91430 0.89400 0.10500 -0.39000
C 	C 	0.79510 0.70400 0.00520 -0.50700
C 	C 	0.00870 0.76950 0.96940 -0.55100
C 	C 	0.04690 0.93630 0.22650 0.34000
C 	C 	0.83070 0.57200 0.01840 0.50900
C 	C 	0.16510 0.72690 0.03130 0.46800
C 	C 	0.08340 0.39340 0.38370 -0.72900
C 	C 	0.88240 0.51450 0.39140 -0.53300
C 	C 	0.13040 0.53920 0.56680 -0.39800
C 	C 	0.21340 0.40600 0.34660 0.57300
C 	C 	0.82820 0.64210 0.36400 0.49600
C 	C 	0.25460 0.62470 0.58800 0.45700
O 	O 	0.06770 0.04378 0.25080 -0.27900
O 	O 	0.12893 0.85425 0.30327 -0.66400
O 	O 	0.75660 0.50033 0.93330 -0.34000
O 	O 	0.94585 0.54468 0.12857 -0.69700
O 	O 	0.23640 0.72227 0.96030 -0.27300
O 	O 	0.21524 0.69112 0.15694 -0.67300
O 	O 	0.28570 0.31789 0.34480 -0.38200
O 	O 	0.23880 0.51119 0.31510 -0.67600
O 	O 	0.71704 0.67100 0.37890 -0.34400
O 	O 	0.90430 0.71260 0.32144 -0.69300
O 	O 	0.35850 0.63160 0.69820 -0.31800
O 	O 	0.23850 0.69300 0.48527 -0.69100
H 	H 	0.89300 0.94800 0.03400 0.17400
H 	H 	0.83400 0.89700 0.13600 0.14700
H 	H 	0.74100 0.73000 0.91600 0.21400
H 	H 	0.74000 0.72300 0.06100 0.18200
H 	H 	0.95900 0.71300 0.89400 0.21300
H 	H 	0.00200 0.84400 0.93500 0.23900
H 	H 	0.00000 0.36300 0.30800 0.24300
H 	H 	0.09900 0.33900 0.44500 0.32700
H 	H 	0.86000 0.48500 0.46100 0.23700
H 	H 	0.82900 0.47200 0.30600 0.19900
H 	H 	0.16500 0.46500 0.62000 0.16800
H 	H 	0.06300 0.58100 0.60600 0.14200
