data_crystal

_cell_length_a 26.27360
_cell_length_b 26.27360
_cell_length_c 6.72130
_cell_angle_alpha 90.00000
_cell_angle_beta  90.00000
_cell_angle_gamma 120.00000

_symmetry_space_group_name_	'P 1'
_symmetry_space_group_name_H-M	'P 1'

loop_
_symmetry_equiv_pos_as_xyz
  x,y,z

loop_
_atom_site_label
_atom_site_type_symbol
_atom_site_fract_x
_atom_site_fract_y
_atom_site_fract_z
_atom_site_charge
C 	C 	0.42180 0.40830 0.25330 0.42800
C 	C 	0.46110 0.45280 0.12330 -0.18000
C 	C 	0.55730 0.54220 0.06980 0.20500
C 	C 	0.51830 0.49680 0.19580 -0.08500
H 	H 	0.52910 0.49550 0.33290 0.07500
Fe	Fe	0.61356 0.64838 0.34420 1.19800
O 	O 	0.43910 0.40460 0.42590 -0.43600
O 	O 	0.37463 0.36600 0.18580 -0.52500
O 	O 	0.61027 0.58670 0.14470 -0.50700
O 	O 	0.54290 0.65780 0.19700 -0.25000
H 	H 	0.56330 0.63600 0.19200 -0.03500
C 	C 	0.48510 0.61490 0.22200 -0.05000
H 	H 	0.46000 0.62500 0.12900 0.05600
H 	H 	0.48110 0.57450 0.18100 0.04900
H 	H 	0.47400 0.61400 0.37200 0.04800
C 	C 	0.08847 0.74163 0.58663 0.42900
C 	C 	0.12777 0.78613 0.45663 -0.17900
C 	C 	0.22397 0.87553 0.40313 0.20600
C 	C 	0.18497 0.83013 0.52913 -0.08400
H 	H 	0.19577 0.82883 0.66623 0.07500
Fe	Fe	0.28023 0.98171 0.67753 1.19900
O 	O 	0.10577 0.73793 0.75923 -0.43600
O 	O 	0.04130 0.69933 0.51913 -0.52400
O 	O 	0.27694 0.92003 0.47803 -0.50600
O 	O 	0.20957 0.99113 0.53033 -0.24900
H 	H 	0.22997 0.96933 0.52533 -0.03500
C 	C 	0.15177 0.94823 0.55533 -0.05000
H 	H 	0.12667 0.95833 0.46233 0.05600
H 	H 	0.14777 0.90783 0.51433 0.04900
H 	H 	0.14067 0.94733 0.70533 0.04800
C 	C 	0.75513 0.07497 0.91997 0.43100
C 	C 	0.79443 0.11947 0.78997 -0.17900
C 	C 	0.89063 0.20887 0.73647 0.20600
C 	C 	0.85163 0.16347 0.86247 -0.08300
H 	H 	0.86243 0.16217 0.99957 0.07600
Fe	Fe	0.94689 0.31505 0.01087 1.19800
O 	O 	0.77243 0.07127 0.09257 -0.43600
O 	O 	0.70796 0.03267 0.85247 -0.52500
O 	O 	0.94360 0.25337 0.81137 -0.50500
O 	O 	0.87623 0.32447 0.86367 -0.25000
H 	H 	0.89663 0.30267 0.85867 -0.03400
C 	C 	0.81843 0.28157 0.88867 -0.04300
H 	H 	0.79333 0.29167 0.79567 0.05400
H 	H 	0.81443 0.24117 0.84767 0.04800
H 	H 	0.80733 0.28067 0.03867 0.04400
C 	C 	0.59170 0.01350 0.25330 0.42900
C 	C 	0.54720 0.00830 0.12330 -0.17900
C 	C 	0.45780 0.01510 0.06980 0.20500
C 	C 	0.50320 0.02150 0.19580 -0.08400
H 	H 	0.50450 0.03360 0.33290 0.07600
Fe	Fe	0.35162 0.96518 0.34420 1.20000
O 	O 	0.59540 0.03450 0.42590 -0.43500
O 	O 	0.63400 0.00863 0.18580 -0.52400
O 	O 	0.41330 0.02357 0.14470 -0.50600
O 	O 	0.34220 0.88510 0.19700 -0.24900
H 	H 	0.36400 0.92730 0.19200 -0.03500
C 	C 	0.38510 0.87020 0.22200 -0.05000
H 	H 	0.37500 0.83500 0.12900 0.05700
H 	H 	0.42550 0.90660 0.18100 0.04900
H 	H 	0.38600 0.86000 0.37200 0.04800
C 	C 	0.25837 0.34683 0.58663 0.42900
C 	C 	0.21387 0.34163 0.45663 -0.17900
C 	C 	0.12447 0.34843 0.40313 0.20600
C 	C 	0.16987 0.35483 0.52913 -0.08300
H 	H 	0.17117 0.36693 0.66623 0.07500
Fe	Fe	0.01829 0.29851 0.67753 1.19900
O 	O 	0.26207 0.36783 0.75923 -0.43600
O 	O 	0.30067 0.34196 0.51913 -0.52500
O 	O 	0.07997 0.35690 0.47803 -0.50600
O 	O 	0.00887 0.21843 0.53033 -0.24900
H 	H 	0.03067 0.26063 0.52533 -0.03500
C 	C 	0.05177 0.20353 0.55533 -0.05000
H 	H 	0.04167 0.16833 0.46233 0.05600
H 	H 	0.09217 0.23993 0.51433 0.04900
H 	H 	0.05267 0.19333 0.70533 0.04800
C 	C 	0.92503 0.68017 0.91997 0.43000
C 	C 	0.88053 0.67497 0.78997 -0.17900
C 	C 	0.79113 0.68177 0.73647 0.20600
C 	C 	0.83653 0.68817 0.86247 -0.08300
H 	H 	0.83783 0.70027 0.99957 0.07600
Fe	Fe	0.68495 0.63185 0.01087 1.19900
O 	O 	0.92873 0.70117 0.09257 -0.43600
O 	O 	0.96733 0.67530 0.85247 -0.52500
O 	O 	0.74663 0.69024 0.81137 -0.50600
O 	O 	0.67553 0.55177 0.86367 -0.25000
H 	H 	0.69733 0.59397 0.85867 -0.03500
C 	C 	0.71843 0.53687 0.88867 -0.04400
H 	H 	0.70833 0.50167 0.79567 0.05500
H 	H 	0.75883 0.57327 0.84767 0.04800
H 	H 	0.71933 0.52667 0.03867 0.04500
C 	C 	0.98650 0.57820 0.25330 0.42900
C 	C 	0.99170 0.53890 0.12330 -0.17900
C 	C 	0.98490 0.44270 0.06980 0.20500
C 	C 	0.97850 0.48170 0.19580 -0.08400
H 	H 	0.96640 0.47090 0.33290 0.07600
Fe	Fe	0.03482 0.38644 0.34420 1.19900
O 	O 	0.96550 0.56090 0.42590 -0.43500
O 	O 	0.99137 0.62537 0.18580 -0.52400
O 	O 	0.97643 0.38973 0.14470 -0.50600
O 	O 	0.11490 0.45710 0.19700 -0.24900
H 	H 	0.07270 0.43670 0.19200 -0.03500
C 	C 	0.12980 0.51490 0.22200 -0.05000
H 	H 	0.16500 0.54000 0.12900 0.05700
H 	H 	0.09340 0.51890 0.18100 0.04900
H 	H 	0.14000 0.52600 0.37200 0.04800
C 	C 	0.65317 0.91153 0.58663 0.42900
C 	C 	0.65837 0.87223 0.45663 -0.17900
C 	C 	0.65157 0.77603 0.40313 0.20600
C 	C 	0.64517 0.81503 0.52913 -0.08300
H 	H 	0.63307 0.80423 0.66623 0.07500
Fe	Fe	0.70149 0.71977 0.67753 1.19900
O 	O 	0.63217 0.89423 0.75923 -0.43600
O 	O 	0.65804 0.95870 0.51913 -0.52500
O 	O 	0.64310 0.72306 0.47803 -0.50600
O 	O 	0.78157 0.79043 0.53033 -0.24900
H 	H 	0.73937 0.77003 0.52533 -0.03500
C 	C 	0.79647 0.84823 0.55533 -0.05000
H 	H 	0.83167 0.87333 0.46233 0.05600
H 	H 	0.76007 0.85223 0.51433 0.04900
H 	H 	0.80667 0.85933 0.70533 0.04800
C 	C 	0.31983 0.24487 0.91997 0.42900
C 	C 	0.32503 0.20557 0.78997 -0.17900
C 	C 	0.31823 0.10937 0.73647 0.20600
C 	C 	0.31183 0.14837 0.86247 -0.08300
H 	H 	0.29973 0.13757 0.99957 0.07600
Fe	Fe	0.36815 0.05311 0.01087 1.19800
O 	O 	0.29883 0.22757 0.09257 -0.43600
O 	O 	0.32470 0.29204 0.85247 -0.52500
O 	O 	0.30976 0.05640 0.81137 -0.50500
O 	O 	0.44823 0.12377 0.86367 -0.25000
H 	H 	0.40603 0.10337 0.85867 -0.03400
C 	C 	0.46313 0.18157 0.88867 -0.04400
H 	H 	0.49833 0.20667 0.79567 0.05500
H 	H 	0.42673 0.18557 0.84767 0.04800
H 	H 	0.47333 0.19267 0.03867 0.04500
C 	C 	0.57820 0.59170 0.74670 0.42900
C 	C 	0.53890 0.54720 0.87670 -0.17900
C 	C 	0.44270 0.45780 0.93020 0.20600
C 	C 	0.48170 0.50320 0.80420 -0.08400
H 	H 	0.47090 0.50450 0.66710 0.07600
Fe	Fe	0.38644 0.35162 0.65580 1.19900
O 	O 	0.56090 0.59540 0.57410 -0.43500
O 	O 	0.62537 0.63400 0.81420 -0.52400
O 	O 	0.38973 0.41330 0.85530 -0.50600
O 	O 	0.45710 0.34220 0.80300 -0.24900
H 	H 	0.43670 0.36400 0.80800 -0.03500
C 	C 	0.51490 0.38510 0.77800 -0.05000
H 	H 	0.54000 0.37500 0.87100 0.05600
H 	H 	0.51890 0.42550 0.81900 0.04900
H 	H 	0.52600 0.38600 0.62800 0.04800
C 	C 	0.24487 0.92503 0.08003 0.43100
C 	C 	0.20557 0.88053 0.21003 -0.17900
C 	C 	0.10937 0.79113 0.26353 0.20600
C 	C 	0.14837 0.83653 0.13753 -0.08300
H 	H 	0.13757 0.83783 0.00043 0.07600
Fe	Fe	0.05311 0.68495 0.98913 1.19800
O 	O 	0.22757 0.92873 0.90743 -0.43600
O 	O 	0.29204 0.96733 0.14753 -0.52500
O 	O 	0.05640 0.74663 0.18863 -0.50500
O 	O 	0.12377 0.67553 0.13633 -0.25000
H 	H 	0.10337 0.69733 0.14133 -0.03400
C 	C 	0.18157 0.71843 0.11133 -0.04300
H 	H 	0.20667 0.70833 0.20433 0.05400
H 	H 	0.18557 0.75883 0.15233 0.04800
H 	H 	0.19267 0.71933 0.96133 0.04400
C 	C 	0.91153 0.25837 0.41337 0.42900
C 	C 	0.87223 0.21387 0.54337 -0.17900
C 	C 	0.77603 0.12447 0.59687 0.20600
C 	C 	0.81503 0.16987 0.47087 -0.08400
H 	H 	0.80423 0.17117 0.33377 0.07500
Fe	Fe	0.71977 0.01829 0.32247 1.19900
O 	O 	0.89423 0.26207 0.24077 -0.43600
O 	O 	0.95870 0.30067 0.48087 -0.52400
O 	O 	0.72306 0.07997 0.52197 -0.50600
O 	O 	0.79043 0.00887 0.46967 -0.24900
H 	H 	0.77003 0.03067 0.47467 -0.03500
C 	C 	0.84823 0.05177 0.44467 -0.05000
H 	H 	0.87333 0.04167 0.53767 0.05600
H 	H 	0.85223 0.09217 0.48567 0.04900
H 	H 	0.85933 0.05267 0.29467 0.04800
C 	C 	0.40830 0.98650 0.74670 0.42900
C 	C 	0.45280 0.99170 0.87670 -0.17900
C 	C 	0.54220 0.98490 0.93020 0.20500
C 	C 	0.49680 0.97850 0.80420 -0.08400
H 	H 	0.49550 0.96640 0.66710 0.07600
Fe	Fe	0.64838 0.03482 0.65580 1.20000
O 	O 	0.40460 0.96550 0.57410 -0.43500
O 	O 	0.36600 0.99137 0.81420 -0.52400
O 	O 	0.58670 0.97643 0.85530 -0.50600
O 	O 	0.65780 0.11490 0.80300 -0.24900
H 	H 	0.63600 0.07270 0.80800 -0.03500
C 	C 	0.61490 0.12980 0.77800 -0.05000
H 	H 	0.62500 0.16500 0.87100 0.05700
H 	H 	0.57450 0.09340 0.81900 0.04900
H 	H 	0.61400 0.14000 0.62800 0.04800
C 	C 	0.07497 0.31983 0.08003 0.43000
C 	C 	0.11947 0.32503 0.21003 -0.17900
C 	C 	0.20887 0.31823 0.26353 0.20600
C 	C 	0.16347 0.31183 0.13753 -0.08300
H 	H 	0.16217 0.29973 0.00043 0.07600
Fe	Fe	0.31505 0.36815 0.98913 1.19900
O 	O 	0.07127 0.29883 0.90743 -0.43600
O 	O 	0.03267 0.32470 0.14753 -0.52500
O 	O 	0.25337 0.30976 0.18863 -0.50600
O 	O 	0.32447 0.44823 0.13633 -0.25000
H 	H 	0.30267 0.40603 0.14133 -0.03500
C 	C 	0.28157 0.46313 0.11133 -0.04400
H 	H 	0.29167 0.49833 0.20433 0.05500
H 	H 	0.24117 0.42673 0.15233 0.04800
H 	H 	0.28067 0.47333 0.96133 0.04500
C 	C 	0.74163 0.65317 0.41337 0.42900
C 	C 	0.78613 0.65837 0.54337 -0.17900
C 	C 	0.87553 0.65157 0.59687 0.20600
C 	C 	0.83013 0.64517 0.47087 -0.08300
H 	H 	0.82883 0.63307 0.33377 0.07500
Fe	Fe	0.98171 0.70149 0.32247 1.19900
O 	O 	0.73793 0.63217 0.24077 -0.43600
O 	O 	0.69933 0.65804 0.48087 -0.52500
O 	O 	0.92003 0.64310 0.52197 -0.50600
O 	O 	0.99113 0.78157 0.46967 -0.24900
H 	H 	0.96933 0.73937 0.47467 -0.03500
C 	C 	0.94823 0.79647 0.44467 -0.05000
H 	H 	0.95833 0.83167 0.53767 0.05600
H 	H 	0.90783 0.76007 0.48567 0.04900
H 	H 	0.94733 0.80667 0.29467 0.04800
C 	C 	0.01350 0.42180 0.74670 0.42900
C 	C 	0.00830 0.46110 0.87670 -0.17900
C 	C 	0.01510 0.55730 0.93020 0.20500
C 	C 	0.02150 0.51830 0.80420 -0.08400
H 	H 	0.03360 0.52910 0.66710 0.07600
Fe	Fe	0.96518 0.61356 0.65580 1.19900
O 	O 	0.03450 0.43910 0.57410 -0.43500
O 	O 	0.00863 0.37463 0.81420 -0.52400
O 	O 	0.02357 0.61027 0.85530 -0.50600
O 	O 	0.88510 0.54290 0.80300 -0.24900
H 	H 	0.92730 0.56330 0.80800 -0.03500
C 	C 	0.87020 0.48510 0.77800 -0.05000
H 	H 	0.83500 0.46000 0.87100 0.05700
H 	H 	0.90660 0.48110 0.81900 0.04900
H 	H 	0.86000 0.47400 0.62800 0.04800
C 	C 	0.68017 0.75513 0.08003 0.42900
C 	C 	0.67497 0.79443 0.21003 -0.17900
C 	C 	0.68177 0.89063 0.26353 0.20600
C 	C 	0.68817 0.85163 0.13753 -0.08300
H 	H 	0.70027 0.86243 0.00043 0.07600
Fe	Fe	0.63185 0.94689 0.98913 1.19800
O 	O 	0.70117 0.77243 0.90743 -0.43600
O 	O 	0.67530 0.70796 0.14753 -0.52500
O 	O 	0.69024 0.94360 0.18863 -0.50500
O 	O 	0.55177 0.87623 0.13633 -0.25000
H 	H 	0.59397 0.89663 0.14133 -0.03400
C 	C 	0.53687 0.81843 0.11133 -0.04400
H 	H 	0.50167 0.79333 0.20433 0.05500
H 	H 	0.57327 0.81443 0.15233 0.04800
H 	H 	0.52667 0.80733 0.96133 0.04500
C 	C 	0.34683 0.08847 0.41337 0.42900
C 	C 	0.34163 0.12777 0.54337 -0.17900
C 	C 	0.34843 0.22397 0.59687 0.20600
C 	C 	0.35483 0.18497 0.47087 -0.08300
H 	H 	0.36693 0.19577 0.33377 0.07500
Fe	Fe	0.29851 0.28023 0.32247 1.19900
O 	O 	0.36783 0.10577 0.24077 -0.43600
O 	O 	0.34196 0.04130 0.48087 -0.52500
O 	O 	0.35690 0.27694 0.52197 -0.50600
O 	O 	0.21843 0.20957 0.46967 -0.24900
H 	H 	0.26063 0.22997 0.47467 -0.03500
C 	C 	0.20353 0.15177 0.44467 -0.05000
H 	H 	0.16833 0.12667 0.53767 0.05600
H 	H 	0.23993 0.14777 0.48567 0.04900
H 	H 	0.19333 0.14067 0.29467 0.04800
