data_crystal

_cell_length_a 7.49420
_cell_length_b 7.72570
_cell_length_c 17.85200
_cell_angle_alpha 90.00000
_cell_angle_beta  97.74000
_cell_angle_gamma 90.00000

_symmetry_space_group_name_	'P 1'
_symmetry_space_group_name_H-M	'P 1'

loop_
_symmetry_equiv_pos_as_xyz
  x,y,z

loop_
_atom_site_label
_atom_site_type_symbol
_atom_site_fract_x
_atom_site_fract_y
_atom_site_fract_z
_atom_site_charge
Co	Co	0.12893 0.05357 0.36354 1.18600
Co	Co	0.78476 0.80520 0.30831 1.18800
P 	P 	0.94660 0.42370 0.31096 0.55300
O 	O 	0.90820 0.95430 0.40740 -0.46000
O 	O 	0.07360 0.30800 0.36240 -0.39000
O 	O 	0.01200 0.44000 0.23310 -0.54400
O 	O 	0.30170 0.84770 0.38340 -0.33400
O 	O 	0.35130 0.13440 0.30150 -0.40500
O 	O 	0.79590 0.90440 0.51580 -0.31200
O 	O 	0.55820 0.74030 0.35660 -0.30600
O 	O 	0.92300 0.59870 0.34530 -0.38800
O 	O 	0.61340 0.02000 0.27670 -0.35500
O 	O 	0.75120 0.33900 0.29970 -0.44600
H 	H 	0.75620 0.24240 0.28100 0.27300
C 	C 	0.91410 0.95740 0.47860 0.25600
C 	C 	0.44070 0.85610 0.35240 0.22300
C 	C 	0.47050 0.01900 0.30530 0.26200
Co	Co	0.87107 0.55357 0.13646 1.18500
Co	Co	0.21524 0.30520 0.19169 1.18700
P 	P 	0.05340 0.92370 0.18904 0.55100
O 	O 	0.09180 0.45430 0.09260 -0.46100
O 	O 	0.92640 0.80800 0.13760 -0.38900
O 	O 	0.98800 0.94000 0.26690 -0.54200
O 	O 	0.69830 0.34770 0.11660 -0.33400
O 	O 	0.64870 0.63440 0.19850 -0.40500
O 	O 	0.20410 0.40440 0.98420 -0.31200
O 	O 	0.44180 0.24030 0.14340 -0.30600
O 	O 	0.07700 0.09870 0.15470 -0.38700
O 	O 	0.38660 0.52000 0.22330 -0.35500
O 	O 	0.24880 0.83900 0.20030 -0.44500
H 	H 	0.24380 0.74240 0.21900 0.27300
C 	C 	0.08590 0.45740 0.02140 0.25500
C 	C 	0.55930 0.35610 0.14760 0.22300
C 	C 	0.52950 0.51900 0.19470 0.26200
Co	Co	0.87107 0.94643 0.63646 1.18500
Co	Co	0.21524 0.19480 0.69169 1.18700
P 	P 	0.05340 0.57630 0.68904 0.55300
O 	O 	0.09180 0.04570 0.59260 -0.46000
O 	O 	0.92640 0.69200 0.63760 -0.39000
O 	O 	0.98800 0.56000 0.76690 -0.54400
O 	O 	0.69830 0.15230 0.61660 -0.33400
O 	O 	0.64870 0.86560 0.69850 -0.40500
O 	O 	0.20410 0.09560 0.48420 -0.31200
O 	O 	0.44180 0.25970 0.64340 -0.30600
O 	O 	0.07700 0.40130 0.65470 -0.38800
O 	O 	0.38660 0.98000 0.72330 -0.35500
O 	O 	0.24880 0.66100 0.70030 -0.44600
H 	H 	0.24380 0.75760 0.71900 0.27300
C 	C 	0.08590 0.04260 0.52140 0.25600
C 	C 	0.55930 0.14390 0.64760 0.22300
C 	C 	0.52950 0.98100 0.69470 0.26200
Co	Co	0.12893 0.44643 0.86354 1.18500
Co	Co	0.78476 0.69480 0.80831 1.18700
P 	P 	0.94660 0.07630 0.81096 0.55100
O 	O 	0.90820 0.54570 0.90740 -0.46100
O 	O 	0.07360 0.19200 0.86240 -0.38900
O 	O 	0.01200 0.06000 0.73310 -0.54200
O 	O 	0.30170 0.65230 0.88340 -0.33400
O 	O 	0.35130 0.36560 0.80150 -0.40500
O 	O 	0.79590 0.59560 0.01580 -0.31200
O 	O 	0.55820 0.75970 0.85660 -0.30600
O 	O 	0.92300 0.90130 0.84530 -0.38700
O 	O 	0.61340 0.48000 0.77670 -0.35500
O 	O 	0.75120 0.16100 0.79970 -0.44500
H 	H 	0.75620 0.25760 0.78100 0.27300
C 	C 	0.91410 0.54260 0.97860 0.25500
C 	C 	0.44070 0.64390 0.85240 0.22300
C 	C 	0.47050 0.48100 0.80530 0.26200
