data_crystal

_cell_length_a 19.11800
_cell_length_b 23.02400
_cell_length_c 30.07500
_cell_angle_alpha 90.07000
_cell_angle_beta  97.36000
_cell_angle_gamma 90.09000

_symmetry_space_group_name_	'P 1'
_symmetry_space_group_name_H-M	'P 1'

loop_
_symmetry_equiv_pos_as_xyz
  x,y,z

loop_
_atom_site_label
_atom_site_type_symbol
_atom_site_fract_x
_atom_site_fract_y
_atom_site_fract_z
_atom_site_charge
Zn	Zn	0.99396 0.76256 0.18433 1.20800
Zn	Zn	0.00354 0.90576 0.61603 1.20700
Zn	Zn	0.42270 0.33467 0.60608 1.20800
Zn	Zn	0.93010 0.82903 0.68021 1.21300
Zn	Zn	0.50329 0.25853 0.68744 1.17800
Zn	Zn	0.88847 0.83078 0.10995 1.17200
Zn	Zn	0.47987 0.40163 0.11433 1.20600
Zn	Zn	0.58894 0.33992 0.62234 1.21500
Zn	Zn	0.09601 0.83456 0.68938 1.20700
Zn	Zn	0.01443 0.77059 0.60111 1.17500
Zn	Zn	0.56117 0.33073 0.19296 1.21500
Zn	Zn	0.05955 0.83735 0.11266 1.21600
Zn	Zn	0.50322 0.39722 0.69040 1.21100
Zn	Zn	0.48831 0.26939 0.10539 1.21200
Zn	Zn	0.38914 0.32492 0.17288 1.18000
Zn	Zn	0.98903 0.89608 0.18890 1.20800
H 	H 	0.14150 0.63260 0.19010 0.05800
H 	H 	0.16270 0.14040 0.58850 0.07100
H 	H 	0.34170 0.13070 0.06340 0.03700
H 	H 	0.63280 0.54220 0.71600 0.03600
H 	H 	0.86880 0.61160 0.19150 0.05900
H 	H 	0.83800 0.14750 0.60190 0.06300
H 	H 	0.13410 0.82850 0.90860 0.06000
H 	H 	0.14060 0.63760 0.61290 0.03500
H 	H 	0.19590 0.55420 0.57120 0.05400
H 	H 	0.82050 0.52260 0.22140 0.06400
H 	H 	0.54940 0.23150 0.89620 0.05000
H 	H 	0.69950 0.62490 0.72090 0.05600
H 	H 	0.63900 0.12340 0.67500 0.04600
H 	H 	0.48470 0.45280 0.90340 0.07400
H 	H 	0.61760 0.36810 0.48610 0.03100
H 	H 	0.35980 0.55320 0.11530 0.05600
H 	H 	0.63810 0.51810 0.10320 0.05000
H 	H 	0.31250 0.15740 0.19180 0.05100
H 	H 	0.77660 0.68120 0.07420 0.02900
H 	H 	0.51850 0.27030 0.96870 0.04900
H 	H 	0.36650 0.30820 0.30900 0.03000
H 	H 	0.72030 0.48720 0.60760 0.04900
H 	H 	0.47550 0.44120 0.97740 0.03200
H 	H 	0.07060 0.83330 0.97570 0.05500
H 	H 	0.24070 0.21320 0.58390 0.03400
H 	H 	0.27180 0.47500 0.57540 0.03600
H 	H 	0.23120 0.72670 0.10000 0.03800
H 	H 	0.70630 0.18990 0.23030 0.04100
H 	H 	0.39130 0.12140 0.65910 0.03600
H 	H 	0.68310 0.61090 0.07260 0.05300
H 	H 	0.78270 0.99030 0.07230 0.02700
H 	H 	0.91080 0.84860 0.82140 0.05600
H 	H 	0.26860 0.04840 0.05910 0.05500
H 	H 	0.41160 0.31600 0.46230 0.05400
H 	H 	0.99700 0.91250 0.32960 0.06500
H 	H 	0.75300 0.94340 0.69060 0.03500
H 	H 	0.84190 0.03060 0.20550 0.05500
H 	H 	0.56970 0.24200 0.82410 0.03100
H 	H 	0.19320 0.98400 0.09480 0.05100
H 	H 	0.51250 0.41500 0.83050 0.06800
H 	H 	0.25160 0.69830 0.72510 0.04100
H 	H 	0.22680 0.09800 0.22730 0.06000
H 	H 	0.73340 0.45270 0.22080 0.03600
H 	H 	0.85340 0.84700 0.88820 0.06400
H 	H 	0.87100 0.04530 0.61810 0.05700
H 	H 	0.00400 0.95430 0.47570 0.04400
H 	H 	0.36830 0.28260 0.38460 0.06400
H 	H 	0.27790 0.95180 0.69530 0.03700
H 	H 	0.57110 0.35630 0.33510 0.05900
H 	H 	0.80170 0.55140 0.57520 0.05700
H 	H 	0.00610 0.96120 0.40190 0.06800
H 	H 	0.97180 0.78170 0.47170 0.03900
H 	H 	0.85990 0.64140 0.57390 0.03200
H 	H 	0.27500 0.46020 0.20850 0.02700
H 	H 	0.75870 0.22430 0.60590 0.03700
H 	H 	0.31350 0.65490 0.09530 0.06300
H 	H 	0.61830 0.38250 0.41290 0.06800
H 	H 	0.36100 0.02530 0.69160 0.05200
H 	H 	0.72380 0.07880 0.06470 0.05900
H 	H 	0.14580 0.02380 0.22280 0.04200
H 	H 	0.18440 0.53060 0.20650 0.06000
H 	H 	0.97500 0.72660 0.39870 0.05700
H 	H 	0.32890 0.62290 0.72760 0.06700
H 	H 	0.65760 0.15710 0.09850 0.05700
H 	H 	0.13040 0.04620 0.61780 0.06100
H 	H 	0.77860 0.11050 0.23940 0.06600
H 	H 	0.86090 0.84910 0.96620 0.02800
H 	H 	0.79750 0.68350 0.69330 0.05200
H 	H 	0.67510 0.01980 0.69470 0.05700
H 	H 	0.12930 0.83160 0.83230 0.04400
H 	H 	0.99140 0.73340 0.32630 0.03400
H 	H 	0.36420 0.52820 0.69660 0.05800
C 	C 	0.47850 0.32410 0.26520 0.38800
C 	C 	0.20880 0.13700 0.60440 -0.10300
C 	C 	0.51260 0.30750 0.95510 -0.02100
C 	C 	0.27410 0.50170 0.59970 0.01600
C 	C 	0.82370 0.00520 0.13950 -0.10400
C 	C 	0.90250 0.84590 0.95210 0.02700
C 	C 	0.29130 0.62500 0.70380 -0.09100
C 	C 	0.32450 0.17590 0.62350 -0.10300
C 	C 	0.46060 0.32280 0.40660 0.02100
C 	C 	0.67910 0.47790 0.15900 -0.10500
C 	C 	0.74220 0.06520 0.09360 -0.09200
C 	C 	0.25260 0.05070 0.12680 0.01400
C 	C 	0.96080 0.84610 0.88320 0.03200
C 	C 	0.68000 0.12820 0.66050 -0.01900
C 	C 	0.95580 0.84570 0.83870 -0.03600
C 	C 	0.79790 0.57980 0.59780 -0.08400
C 	C 	0.14200 0.94650 0.66070 0.37100
C 	C 	0.99110 0.81700 0.41170 0.01500
C 	C 	0.69100 0.18070 0.64220 -0.10000
C 	C 	0.01840 0.84100 0.81630 -0.09400
C 	C 	0.31440 0.02990 0.67670 -0.08100
C 	C 	0.23030 0.69240 0.11740 0.02100
C 	C 	0.57810 0.36480 0.42280 -0.10400
C 	C 	0.01510 0.84120 0.76780 0.38200
C 	C 	0.67220 0.17800 0.16410 -0.08200
C 	C 	0.37260 0.44310 0.64040 0.38500
C 	C 	0.30300 0.13570 0.16480 -0.03900
C 	C 	0.24600 0.66960 0.70220 0.02100
C 	C 	0.22710 0.59080 0.17010 0.02700
C 	C 	0.87040 0.94020 0.64980 0.38600
C 	C 	0.22850 0.54850 0.59750 -0.08800
C 	C 	0.40710 0.30250 0.37480 -0.08600
C 	C 	0.27840 0.64960 0.11470 -0.08400
C 	C 	0.22530 0.08710 0.63020 0.03600
C 	C 	0.00230 0.92400 0.41500 -0.09800
C 	C 	0.31970 0.11940 0.08860 0.00400
C 	C 	0.18960 0.67430 0.66660 -0.09500
C 	C 	0.12540 0.73170 0.14800 0.39500
C 	C 	0.28390 0.58030 0.67000 0.02500
C 	C 	0.61890 0.22420 0.15780 0.32900
C 	C 	0.76480 0.08630 0.17240 0.02100
C 	C 	0.98240 0.81670 0.45720 -0.04100
C 	C 	0.17760 0.63610 0.17130 -0.03400
C 	C 	0.62330 0.43530 0.15740 0.36700
C 	C 	0.16880 0.98700 0.15930 -0.10600
C 	C 	0.32740 0.55060 0.13660 -0.02100
C 	C 	0.67080 0.50570 0.66230 -0.12100
C 	C 	0.34360 0.12590 0.64640 -0.02800
C 	C 	0.67600 0.51890 0.12700 -0.01600
C 	C 	0.53500 0.33060 0.81840 -0.08000
C 	C 	0.75480 0.57070 0.63080 0.01800
C 	C 	0.13630 0.72320 0.66610 0.36600
C 	C 	0.09000 0.83390 0.89060 -0.07800
C 	C 	0.22950 0.58660 0.63240 0.01600
C 	C 	0.17690 0.04290 0.63320 -0.04300
C 	C 	0.75480 0.12000 0.21070 -0.08900
C 	C 	0.88510 0.70000 0.13880 0.36100
C 	C 	0.83060 0.04050 0.63320 -0.03000
C 	C 	0.18060 0.63480 0.63500 -0.02600
C 	C 	0.68130 0.14630 0.12700 -0.03800
C 	C 	0.72880 0.56400 0.12780 0.00900
C 	C 	0.32900 0.53320 0.67160 -0.03400
C 	C 	0.48860 0.34710 0.02830 0.37700
C 	C 	0.52130 0.31500 0.90990 0.00300
C 	C 	0.77630 0.65280 0.09710 -0.00700
C 	C 	0.52890 0.34320 0.34550 -0.03300
C 	C 	0.49300 0.41550 0.91640 -0.10900
C 	C 	0.54220 0.26870 0.88260 -0.07400
C 	C 	0.71100 0.16550 0.20530 0.01700
C 	C 	0.83570 0.63160 0.59850 0.01600
C 	C 	0.02670 0.83780 0.95740 -0.02300
C 	C 	0.27550 0.49430 0.19090 0.00900
C 	C 	0.32880 0.15290 0.12710 -0.08300
C 	C 	0.26490 0.98650 0.67930 0.00800
C 	C 	0.32890 0.50480 0.16230 -0.09900
C 	C 	0.71540 0.51560 0.62990 -0.01300
C 	C 	0.81530 0.03870 0.17730 -0.02500
C 	C 	0.99930 0.91970 0.45840 0.01900
C 	C 	0.83060 0.65190 0.13550 -0.08500
C 	C 	0.98730 0.86660 0.53200 0.35300
C 	C 	0.32290 0.49380 0.63710 -0.09600
C 	C 	0.99870 0.87620 0.34470 -0.05300
C 	C 	0.51140 0.37070 0.88970 0.04200
C 	C 	0.83840 0.67020 0.63620 -0.09800
C 	C 	0.26180 0.08510 0.16320 0.02000
C 	C 	0.49530 0.35460 0.97943 -0.10500
C 	C 	0.72260 0.60950 0.09520 -0.07500
C 	C 	0.17450 0.02920 0.19960 0.01400
C 	C 	0.45520 0.32590 0.45210 -0.01900
C 	C 	0.27890 0.06950 0.08630 -0.08100
C 	C 	0.40870 0.31060 0.32940 0.02400
C 	C 	0.83250 0.60970 0.16670 -0.04200
C 	C 	0.76060 0.97960 0.67680 0.01900
C 	C 	0.78340 0.08680 0.63490 0.02900
C 	C 	0.72550 0.08030 0.65950 0.01600
C 	C 	0.57640 0.36020 0.46580 0.03400
C 	C 	0.08700 0.83490 0.84563 0.01400
C 	C 	0.88320 0.72210 0.63780 0.38500
C 	C 	0.51870 0.37780 0.84390 -0.04900
C 	C 	0.27850 0.59700 0.13960 0.01900
C 	C 	0.62650 0.45480 0.65970 0.40700
C 	C 	0.75050 0.18800 0.61930 0.02200
C 	C 	0.81890 0.98760 0.65340 -0.09500
C 	C 	0.11870 0.94320 0.15758 0.36300
C 	C 	0.38600 0.20130 0.13120 0.36900
C 	C 	0.78220 0.01610 0.09690 0.01700
C 	C 	0.52500 0.34540 0.39080 0.03500
C 	C 	0.22380 0.53810 0.19100 -0.08700
C 	C 	0.64120 0.22970 0.64610 0.39300
C 	C 	0.51010 0.34180 0.53150 0.39300
C 	C 	0.20310 0.00390 0.12260 -0.01900
C 	C 	0.98970 0.86830 0.48040 -0.08700
C 	C 	0.02570 0.84100 0.91200 0.01500
C 	C 	0.96670 0.84080 0.97730 -0.10000
C 	C 	0.78400 0.56280 0.16520 0.03500
C 	C 	0.38060 0.45420 0.15810 0.42100
C 	C 	0.79710 0.14210 0.61630 -0.08900
C 	C 	0.19600 0.99350 0.65850 -0.08900
C 	C 	0.70560 0.59720 0.69820 -0.09800
C 	C 	0.71500 0.02510 0.67930 -0.08200
C 	C 	0.97160 0.83800 0.02810 0.40400
C 	C 	0.79680 0.65690 0.66910 -0.03100
C 	C 	0.75360 0.60760 0.67010 0.02800
C 	C 	0.48640 0.40880 0.96003 0.03400
C 	C 	0.78340 0.52210 0.19710 -0.09800
C 	C 	0.72720 0.09610 0.13100 0.02400
C 	C 	0.73290 0.47970 0.19690 0.02500
C 	C 	0.55230 0.27340 0.84000 -0.00700
C 	C 	0.00010 0.81850 0.31980 -0.09100
C 	C 	0.98420 0.76290 0.38570 -0.09500
C 	C 	0.00100 0.82320 0.26980 0.38200
C 	C 	0.37640 0.22390 0.62290 0.33900
C 	C 	0.89840 0.84640 0.90560 -0.09600
C 	C 	0.99180 0.76840 0.34297 0.02500
C 	C 	0.25480 0.17980 0.60120 0.03000
C 	C 	0.53920 0.33840 0.76930 0.35000
C 	C 	0.51120 0.34280 0.48300 -0.10800
C 	C 	0.66550 0.54800 0.69510 0.03600
C 	C 	0.22050 0.07370 0.20150 -0.08500
C 	C 	0.29600 0.08100 0.65190 0.01000
C 	C 	0.18100 0.68510 0.14560 -0.09100
C 	C 	0.99990 0.87220 0.38710 0.03400
C 	C 	0.87680 0.95890 0.14220 0.37000
C 	C 	0.47420 0.32260 0.31360 -0.09700
O 	O 	0.57250 0.45510 0.67960 -0.50900
O 	O 	0.96250 0.82360 0.54761 -0.50600
O 	O 	0.87660 0.75800 0.67041 -0.48200
O 	O 	0.65580 0.27740 0.62756 -0.48600
O 	O 	0.42110 0.20710 0.09884 -0.49900
O 	O 	0.07390 0.84170 0.75149 -0.48800
O 	O 	0.03330 0.83730 0.04849 -0.49500
O 	O 	0.15650 0.76670 0.69062 -0.48900
O 	O 	0.91610 0.95420 0.18031 -0.49200
O 	O 	0.07730 0.93850 0.18866 -0.48100
O 	O 	0.98310 0.83186 0.14804 -0.96500
O 	O 	0.44820 0.33330 0.54488 -0.47700
O 	O 	0.91660 0.83610 0.04559 -0.49300
O 	O 	0.35290 0.27250 0.60520 -0.46900
O 	O 	0.92580 0.70170 0.17599 -0.49400
O 	O 	0.37960 0.23690 0.16140 -0.52000
O 	O 	0.01070 0.83342 0.64814 -0.95900
O 	O 	0.86150 0.89305 0.66913 -0.49000
O 	O 	0.15930 0.90120 0.68198 -0.49900
O 	O 	0.92170 0.72840 0.60836 -0.49100
O 	O 	0.42610 0.31040 0.23962 -0.48800
O 	O 	0.51510 0.38630 0.75403 -0.49300
O 	O 	0.43980 0.21550 0.63619 -0.50000
O 	O 	0.08230 0.72360 0.17647 -0.49600
O 	O 	0.41760 0.46300 0.12746 -0.52100
O 	O 	0.41540 0.43920 0.67566 -0.51300
O 	O 	0.38220 0.41490 0.18330 -0.54500
O 	O 	0.54040 0.33590 0.25395 -0.48200
O 	O 	0.12720 0.77330 0.12307 -0.50600
O 	O 	0.62840 0.39450 0.18776 -0.47600
O 	O 	0.59150 0.22130 0.66785 -0.49800
O 	O 	0.48092 0.33053 0.14738 -0.96400
O 	O 	0.95570 0.83650 0.74512 -0.49500
O 	O 	0.57760 0.22920 0.12074 -0.47700
O 	O 	0.99680 0.87160 0.25191 -0.51000
O 	O 	0.11580 0.90820 0.12423 -0.48000
O 	O 	0.61920 0.26140 0.19148 -0.46300
O 	O 	0.49770 0.29680 0.04524 -0.50400
O 	O 	0.64230 0.41230 0.63647 -0.49400
O 	O 	0.08020 0.95600 0.63998 -0.50800
O 	O 	0.50530 0.33155 0.65062 -0.95200
O 	O 	0.57260 0.43940 0.12642 -0.49200
O 	O 	0.00390 0.77480 0.24924 -0.49200
O 	O 	0.07820 0.71560 0.64400 -0.51100
O 	O 	0.92210 0.95070 0.62839 -0.50000
O 	O 	0.47590 0.39210 0.04972 -0.50700
O 	O 	0.56430 0.34890 0.55695 -0.50200
O 	O 	0.55630 0.29580 0.74660 -0.49900
O 	O 	0.36890 0.40730 0.60846 -0.49700
O 	O 	0.88300 0.73630 0.10884 -0.50100
O 	O 	0.87580 0.92300 0.11160 -0.50100
O 	O 	0.00240 0.91370 0.55160 -0.48500
Zn	Zn	0.99646 0.09424 0.38397 1.20800
Zn	Zn	0.01097 0.10392 0.81110 1.20800
Zn	Zn	0.00604 0.23744 0.81567 1.20900
Zn	Zn	0.52013 0.59837 0.88567 1.20700
Zn	Zn	0.90399 0.16544 0.31062 1.20700
Zn	Zn	0.06990 0.17097 0.31979 1.21400
Zn	Zn	0.49671 0.74147 0.31256 1.17900
Zn	Zn	0.41106 0.66008 0.37766 1.21600
Zn	Zn	0.49678 0.60278 0.30960 1.21100
Zn	Zn	0.43883 0.66927 0.80704 1.21500
Zn	Zn	0.11153 0.16922 0.89005 1.17300
Zn	Zn	0.51169 0.73061 0.89461 1.21200
Zn	Zn	0.98557 0.22941 0.39889 1.17500
Zn	Zn	0.94045 0.16265 0.88734 1.21600
Zn	Zn	0.57730 0.66533 0.39392 1.20900
Zn	Zn	0.61086 0.67508 0.82712 1.18000
H 	H 	0.16200 0.85250 0.39810 0.06300
H 	H 	0.60870 0.87860 0.34090 0.03600
H 	H 	0.85850 0.36740 0.80990 0.05800
H 	H 	0.00300 0.08750 0.67040 0.06500
H 	H 	0.51530 0.54720 0.09660 0.07400
H 	H 	0.02500 0.27340 0.60130 0.05700
H 	H 	0.99390 0.03880 0.59810 0.06800
H 	H 	0.31690 0.38910 0.92740 0.05300
H 	H 	0.72820 0.52500 0.42460 0.03600
H 	H 	0.67110 0.37710 0.27240 0.06700
H 	H 	0.58840 0.68400 0.53770 0.05400
H 	H 	0.13120 0.38840 0.80850 0.05900
H 	H 	0.19830 0.44860 0.42480 0.05700
H 	H 	0.15810 0.96940 0.79450 0.05500
H 	H 	0.38240 0.63190 0.51390 0.03100
H 	H 	0.76880 0.27330 0.90000 0.03800
H 	H 	0.17950 0.47740 0.77860 0.06400
H 	H 	0.26660 0.54730 0.77920 0.03600
H 	H 	0.81560 0.46940 0.79350 0.06000
H 	H 	0.24700 0.05660 0.30940 0.03500
H 	H 	0.20250 0.31650 0.30670 0.05200
H 	H 	0.43030 0.75800 0.17590 0.03100
H 	H 	0.65830 0.86930 0.93660 0.03700
H 	H 	0.73140 0.95160 0.94090 0.05500
H 	H 	0.42890 0.64370 0.66490 0.05900
H 	H 	0.63900 0.97470 0.30840 0.05200
H 	H 	0.02820 0.21830 0.52830 0.03900
H 	H 	0.75930 0.78680 0.41610 0.03400
H 	H 	0.24130 0.77570 0.39410 0.03700
H 	H 	0.38170 0.61750 0.58710 0.06800
H 	H 	0.72210 0.04820 0.30470 0.03700
H 	H 	0.85940 0.36240 0.38710 0.03500
H 	H 	0.63170 0.71740 0.61540 0.06400
H 	H 	0.83730 0.85960 0.41150 0.07100
H 	H 	0.29370 0.81010 0.76970 0.04100
H 	H 	0.92940 0.16670 0.02430 0.05500
H 	H 	0.80680 0.01600 0.90520 0.05100
H 	H 	0.48150 0.72970 0.03130 0.04900
H 	H 	0.45060 0.76850 0.10380 0.05000
H 	H 	0.74840 0.30170 0.27490 0.04100
H 	H 	0.21730 0.00970 0.92770 0.02700
H 	H 	0.36100 0.87660 0.32500 0.04600
H 	H 	0.85420 0.97620 0.77720 0.04200
H 	H 	0.48750 0.58500 0.16950 0.06800
H 	H 	0.08920 0.15140 0.17860 0.05600
H 	H 	0.14660 0.15300 0.11180 0.06400
H 	H 	0.87070 0.16840 0.16770 0.04400
H 	H 	0.27970 0.51280 0.39240 0.04900
H 	H 	0.68750 0.84260 0.80820 0.05100
H 	H 	0.86960 0.95380 0.38220 0.06100
H 	H 	0.72500 0.53980 0.79150 0.02700
H 	H 	0.12900 0.95470 0.38190 0.05700
H 	H 	0.63580 0.47180 0.30340 0.05800
H 	H 	0.34240 0.84290 0.90150 0.05700
H 	H 	0.13910 0.15090 0.03380 0.02800
H 	H 	0.52450 0.55880 0.02260 0.03200
H 	H 	0.14010 0.35860 0.42610 0.03200
H 	H 	0.32490 0.98020 0.30530 0.05700
H 	H 	0.86590 0.17150 0.09140 0.06000
H 	H 	0.22140 0.88950 0.76060 0.06600
H 	H 	0.30050 0.37510 0.27910 0.05600
H 	H 	0.80410 0.44580 0.42880 0.05400
H 	H 	0.00860 0.26660 0.67370 0.03400
H 	H 	0.99600 0.04570 0.52430 0.04400
H 	H 	0.27620 0.92120 0.93530 0.05900
H 	H 	0.36190 0.48190 0.89680 0.05000
H 	H 	0.77320 0.90200 0.77270 0.06000
H 	H 	0.22340 0.31880 0.92580 0.02900
H 	H 	0.64020 0.44680 0.88470 0.05600
H 	H 	0.68650 0.34510 0.90470 0.06300
H 	H 	0.63350 0.69180 0.69100 0.03000
H 	H 	0.36720 0.45780 0.28400 0.03600
C 	C 	0.28900 0.83450 0.79470 0.01700
C 	C 	0.62740 0.55690 0.35960 0.38500
C 	C 	0.01030 0.13170 0.51960 -0.08700
C 	C 	0.53940 0.67720 0.59340 0.02100
C 	C 	0.52150 0.67590 0.73480 0.38800
C 	C 	0.50700 0.58450 0.08360 -0.10900
C 	C 	0.65640 0.87410 0.35360 -0.02800
C 	C 	0.29440 0.40280 0.30180 -0.09800
C 	C 	0.27450 0.91970 0.34050 0.01600
C 	C 	0.20210 0.42020 0.40220 -0.08400
C 	C 	0.76970 0.30760 0.88260 0.02100
C 	C 	0.22370 0.34720 0.90290 -0.00700
C 	C 	0.51140 0.65290 0.97170 0.37700
C 	C 	0.24520 0.88000 0.78930 -0.08900
C 	C 	0.38110 0.77580 0.84220 0.32900
C 	C 	0.88130 0.05680 0.84242 0.36300
C 	C 	0.44770 0.72660 0.16000 -0.00700
C 	C 	0.02840 0.16200 0.97190 0.40400
C 	C 	0.81940 0.36520 0.36500 -0.02600
C 	C 	0.67710 0.50620 0.36290 -0.09600
C 	C 	0.10160 0.15360 0.09440 -0.09600
C 	C 	0.97330 0.16220 0.04260 -0.02300
C 	C 	0.67110 0.49520 0.83770 -0.09900
C 	C 	0.74740 0.94930 0.87320 0.01400
C 	C 	0.26710 0.52030 0.80310 0.02500
C 	C 	0.73510 0.01350 0.32070 0.00800
C 	C 	0.67260 0.44940 0.86340 -0.02100
C 	C 	0.18470 0.96130 0.82270 -0.02500
C 	C 	0.03920 0.15390 0.11680 0.03200
C 	C 	0.86370 0.27680 0.33390 0.36600
C 	C 	0.71610 0.41970 0.33000 0.02500
C 	C 	0.25780 0.93480 0.90640 -0.09200
C 	C 	0.32000 0.87180 0.33950 -0.01900
C 	C 	0.04420 0.15430 0.16130 -0.03600
C 	C 	0.23940 0.02040 0.32320 0.01900
C 	C 	0.87460 0.26830 0.85200 0.39500
C 	C 	0.77950 0.92630 0.79850 -0.08500
C 	C 	0.32920 0.49430 0.33770 -0.12100
C 	C 	0.67120 0.84710 0.87290 -0.08300
C 	C 	0.00890 0.18300 0.58830 0.01500
C 	C 	0.91000 0.16610 0.10940 -0.07800
C 	C 	0.35880 0.77030 0.35390 0.39300
C 	C 	0.70870 0.37500 0.29620 -0.09100
C 	C 	0.16430 0.36840 0.40150 0.01600
C 	C 	0.24640 0.39240 0.32990 0.02800
C 	C 	0.48740 0.69250 0.04490 -0.02100
C 	C 	0.16940 0.34810 0.86450 -0.08500
C 	C 	0.11490 0.30000 0.86120 0.36100
C 	C 	0.67100 0.46680 0.32840 -0.03400
C 	C 	0.01760 0.18330 0.54280 -0.04100
C 	C 	0.67550 0.82410 0.37650 -0.10300
C 	C 	0.16940 0.95950 0.36680 -0.03000
C 	C 	0.80400 0.00650 0.34150 -0.08900
C 	C 	0.51360 0.59120 0.03997 0.03400
C 	C 	0.16160 0.32980 0.36380 -0.09800
C 	C 	0.16750 0.39030 0.83330 -0.04200
C 	C 	0.62360 0.77610 0.37710 0.33900
C 	C 	0.77620 0.46190 0.80900 -0.08700
C 	C 	0.72450 0.50570 0.80910 0.00900
C 	C 	0.68030 0.88060 0.91140 0.00400
C 	C 	0.68560 0.97010 0.32330 -0.08100
C 	C 	0.50470 0.64540 0.02057 -0.10500
C 	C 	0.37350 0.54520 0.34030 0.40700
C 	C 	0.77150 0.45150 0.40250 -0.08800
C 	C 	0.27280 0.90390 0.86900 0.02400
C 	C 	0.72150 0.40300 0.86040 0.01900
C 	C 	0.77290 0.40920 0.82990 0.02700
C 	C 	0.27120 0.43600 0.87220 0.00900
C 	C 	0.31870 0.85370 0.87300 -0.03800
C 	C 	0.21780 0.98390 0.90310 0.01700
C 	C 	0.72590 0.49830 0.40030 0.01600
C 	C 	0.20290 0.85790 0.38370 -0.08900
C 	C 	0.82550 0.97080 0.80040 0.01400
C 	C 	0.99770 0.07600 0.58500 -0.09800
C 	C 	0.28500 0.97490 0.32070 -0.08200
C 	C 	0.24520 0.42930 0.36920 0.01800
C 	C 	0.54480 0.67410 0.54790 -0.01900
C 	C 	0.46080 0.66160 0.23070 0.35000
C 	C 	0.47870 0.68500 0.09010 0.00300
C 	C 	0.46500 0.66940 0.18160 -0.08000
C 	C 	0.32400 0.48110 0.87300 -0.01600
C 	C 	0.73820 0.91490 0.83680 0.02000
C 	C 	0.32780 0.82200 0.83590 -0.08200
C 	C 	0.81040 0.32570 0.33340 -0.09500
C 	C 	0.32090 0.52210 0.84100 -0.10500
C 	C 	0.33450 0.45200 0.30490 0.03600
C 	C 	0.75400 0.33040 0.29780 0.02100
C 	C 	0.00010 0.12780 0.61290 0.03400
C 	C 	0.24950 0.81200 0.38070 0.02200
C 	C 	0.52580 0.67740 0.68640 -0.09700
C 	C 	0.00070 0.08030 0.54160 0.01900
C 	C 	0.79120 0.86300 0.39560 -0.10300
C 	C 	0.70400 0.91900 0.34810 0.01000
C 	C 	0.48860 0.62930 0.11030 0.04200
C 	C 	0.59130 0.68940 0.67060 0.02400
C 	C 	0.77050 0.41340 0.36760 0.01600
C 	C 	0.91300 0.16510 0.15437 0.01400
C 	C 	0.23520 0.91370 0.82760 0.02100
C 	C 	0.11680 0.27790 0.36220 0.38500
C 	C 	0.77470 0.91290 0.36980 0.03600
C 	C 	0.28460 0.48440 0.37010 -0.01300
C 	C 	0.72160 0.35040 0.88530 -0.08400
C 	C 	0.99990 0.18150 0.68020 -0.09100
C 	C 	0.82310 0.95710 0.36680 -0.04300
C 	C 	0.99900 0.17680 0.73020 0.38200
C 	C 	0.18110 0.01240 0.34660 -0.09500
C 	C 	0.81900 0.31490 0.85440 -0.09100
C 	C 	0.03330 0.15920 0.02270 -0.10000
C 	C 	0.20320 0.34310 0.33090 -0.03100
C 	C 	0.61940 0.54580 0.84190 0.42100
C 	C 	0.83120 0.01300 0.84070 -0.10600
C 	C 	0.42190 0.63520 0.57720 -0.10400
C 	C 	0.01270 0.13340 0.46800 0.35300
C 	C 	0.21660 0.47790 0.80290 -0.09800
C 	C 	0.12960 0.05980 0.35020 0.38600
C 	C 	0.98490 0.15880 0.23220 0.38200
C 	C 	0.21600 0.43720 0.83480 0.03500
C 	C 	0.09750 0.15410 0.04790 0.02700
C 	C 	0.21660 0.91320 0.36510 0.02900
C 	C 	0.00130 0.12380 0.65530 -0.05300
C 	C 	0.48880 0.65720 0.51700 -0.10800
C 	C 	0.61400 0.79870 0.86880 0.36900
C 	C 	0.00820 0.23160 0.65703 0.02500
C 	C 	0.01580 0.23710 0.61430 -0.09500
C 	C 	0.47500 0.65460 0.60920 0.03500
C 	C 	0.45780 0.73130 0.11740 -0.07400
C 	C 	0.48130 0.62220 0.15610 -0.04900
C 	C 	0.82240 0.36390 0.82870 -0.03400
C 	C 	0.85800 0.05350 0.33930 0.37100
C 	C 	0.74520 0.82020 0.39880 0.03000
C 	C 	0.42360 0.63980 0.53420 0.03400
C 	C 	0.37670 0.56470 0.84260 0.36700
C 	C 	0.72110 0.93050 0.91370 -0.08100
C 	C 	0.30900 0.81930 0.35780 -0.10000
C 	C 	0.97430 0.15900 0.08800 0.01500
C 	C 	0.48990 0.65820 0.46850 0.39300
C 	C 	0.47110 0.65680 0.65450 -0.03300
C 	C 	0.12320 0.04110 0.85780 0.37000
C 	C 	0.17630 0.99480 0.86050 -0.10400
C 	C 	0.69700 0.86430 0.83520 -0.03900
C 	C 	0.27740 0.39050 0.90480 -0.07500
C 	C 	0.79690 0.99610 0.87740 -0.01900
C 	C 	0.59290 0.69750 0.62520 -0.08600
C 	C 	0.98160 0.15900 0.18370 -0.09400
O 	O 	0.87280 0.22670 0.87693 -0.50600
O 	O 	0.37160 0.60550 0.81224 -0.47600
O 	O 	0.84350 0.23330 0.30938 -0.48900
O 	O 	0.50230 0.70320 0.95476 -0.50400
O 	O 	0.38080 0.73860 0.80852 -0.46300
O 	O 	0.12340 0.24200 0.32959 -0.48200
O 	O 	0.96670 0.16270 0.95151 -0.49500
O 	O 	0.98930 0.16658 0.35186 -0.95900
O 	O 	0.61780 0.58510 0.81670 -0.54500
O 	O 	0.11700 0.26370 0.89116 -0.50100
O 	O 	0.08340 0.16390 0.95441 -0.49300
O 	O 	0.58240 0.53700 0.87254 -0.52100
O 	O 	0.49470 0.66845 0.34938 -0.95200
O 	O 	0.62040 0.76310 0.83860 -0.52000
O 	O 	0.48490 0.61370 0.24597 -0.49300
O 	O 	0.52410 0.60790 0.95028 -0.50700
O 	O 	0.12420 0.07700 0.88840 -0.50100
O 	O 	0.42740 0.56060 0.87358 -0.49200
O 	O 	0.91980 0.04400 0.36002 -0.50800
O 	O 	0.99760 0.08630 0.44840 -0.48500
O 	O 	0.58460 0.56080 0.32434 -0.51300
O 	O 	0.08390 0.04580 0.81969 -0.49200
O 	O 	0.35770 0.58770 0.36353 -0.49400
O 	O 	0.57890 0.79290 0.90116 -0.49900
O 	O 	0.43570 0.65110 0.44305 -0.50200
O 	O 	0.45960 0.66410 0.74605 -0.48200
O 	O 	0.01690 0.16814 0.85196 -0.96500
O 	O 	0.55180 0.66670 0.45512 -0.47700
O 	O 	0.40850 0.77870 0.33215 -0.49800
O 	O 	0.42750 0.54490 0.32040 -0.50900
O 	O 	0.03750 0.17640 0.45239 -0.50600
O 	O 	0.99610 0.22520 0.75076 -0.49200
O 	O 	0.13850 0.10695 0.33087 -0.49000
O 	O 	0.92270 0.06150 0.81134 -0.48100
O 	O 	0.88420 0.09180 0.87577 -0.48000
O 	O 	0.04430 0.16350 0.25488 -0.49500
O 	O 	0.64710 0.72750 0.39480 -0.46900
O 	O 	0.84070 0.09880 0.31802 -0.49900
O 	O 	0.92610 0.15830 0.24851 -0.48800
O 	O 	0.63110 0.59270 0.39154 -0.49700
O 	O 	0.92180 0.28440 0.35600 -0.51100
O 	O 	0.56020 0.78450 0.36381 -0.50000
O 	O 	0.34420 0.72260 0.37244 -0.48600
O 	O 	0.42240 0.77080 0.87926 -0.47700
O 	O 	0.57390 0.68960 0.76038 -0.48800
O 	O 	0.00320 0.12840 0.74809 -0.51000
O 	O 	0.51908 0.66947 0.85262 -0.96400
O 	O 	0.91770 0.27640 0.82353 -0.49600
O 	O 	0.07420 0.29830 0.82401 -0.49400
O 	O 	0.07790 0.04930 0.37161 -0.50000
O 	O 	0.44370 0.70420 0.25340 -0.49900
O 	O 	0.07830 0.27160 0.39164 -0.49100
