data_crystal

_cell_length_a 10.00620
_cell_length_b 15.38740
_cell_length_c 15.38740
_cell_angle_alpha 75.43030
_cell_angle_beta  71.02590
_cell_angle_gamma 71.02590

_symmetry_space_group_name_	'P 1'
_symmetry_space_group_name_H-M	'P 1'

loop_
_symmetry_equiv_pos_as_xyz
  x,y,z

loop_
_atom_site_label
_atom_site_type_symbol
_atom_site_fract_x
_atom_site_fract_y
_atom_site_fract_z
_atom_site_charge
Cu	Cu	0.09987 0.45454 0.04546 0.91000
Cu	Cu	0.90013 0.54546 0.95454 0.91000
Cu	Cu	0.90013 0.95454 0.54546 0.91000
Cu	Cu	0.09987 0.04546 0.45454 0.91000
H 	H 	0.40350 0.43960 0.75900 0.12800
H 	H 	0.18970 0.67650 0.56130 0.03600
H 	H 	0.00000 0.12160 0.87840 0.05700
H 	H 	0.89790 0.93960 0.25900 0.12800
H 	H 	0.81030 0.43870 0.32350 0.03600
H 	H 	0.18970 0.56130 0.67650 0.03600
H 	H 	0.40350 0.75900 0.43960 0.12800
H 	H 	0.59650 0.56040 0.24100 0.12800
H 	H 	0.81030 0.32350 0.43870 0.03600
H 	H 	0.07250 0.17650 0.06130 0.03600
H 	H 	0.92750 0.82350 0.93870 0.03600
H 	H 	0.89790 0.25900 0.93960 0.12800
H 	H 	0.00000 0.87840 0.12160 0.05700
H 	H 	0.10210 0.74100 0.06040 0.12800
H 	H 	0.07250 0.06130 0.17650 0.03600
H 	H 	0.59650 0.24100 0.56040 0.12800
H 	H 	0.50000 0.37840 0.62160 0.05900
H 	H 	0.10210 0.06040 0.74100 0.12800
H 	H 	0.50000 0.62160 0.37840 0.05900
H 	H 	0.92750 0.93870 0.82350 0.03600
C 	C 	0.00000 0.92780 0.07220 -0.05700
C 	C 	0.95364 0.25776 0.97816 -0.22800
C 	C 	0.19247 0.84753 0.49053 0.41500
C 	C 	0.31044 0.75776 0.47816 -0.23100
C 	C 	0.28284 0.52206 0.67606 0.04400
C 	C 	0.01904 0.02206 0.17606 0.04100
C 	C 	0.03053 0.00947 0.65247 0.41500
C 	C 	0.01107 0.01143 0.08423 -0.00600
C 	C 	0.68956 0.52184 0.24224 -0.23100
C 	C 	0.98096 0.97794 0.82394 0.04100
C 	C 	0.28284 0.67606 0.52206 0.04400
C 	C 	0.98096 0.82394 0.97794 0.04100
C 	C 	0.80753 0.50947 0.15247 0.41500
C 	C 	0.60673 0.48857 0.41577 -0.00100
C 	C 	0.31044 0.47816 0.75776 -0.23100
C 	C 	0.03053 0.65247 0.00947 0.41500
C 	C 	0.68956 0.24224 0.52184 -0.23100
C 	C 	0.04636 0.74224 0.02184 -0.22800
C 	C 	0.98893 0.98857 0.91577 -0.00600
C 	C 	0.50000 0.57220 0.42780 -0.06700
C 	C 	0.71716 0.47794 0.32394 0.04400
C 	C 	0.96947 0.34753 0.99053 0.41500
C 	C 	0.19247 0.49053 0.84753 0.41500
C 	C 	0.04636 0.02184 0.74224 -0.22800
C 	C 	0.39327 0.51143 0.58423 -0.00100
C 	C 	0.01107 0.08423 0.01143 -0.00600
C 	C 	0.60673 0.41577 0.48857 -0.00100
C 	C 	0.50000 0.42780 0.57220 -0.06700
C 	C 	0.98893 0.91577 0.98857 -0.00600
C 	C 	0.95364 0.97816 0.25776 -0.22800
C 	C 	0.71716 0.32394 0.47794 0.04400
C 	C 	0.80753 0.15247 0.50947 0.41500
C 	C 	0.00000 0.07220 0.92780 -0.05700
C 	C 	0.39327 0.58423 0.51143 -0.00100
C 	C 	0.96947 0.99053 0.34753 0.41500
C 	C 	0.01904 0.17606 0.02206 0.04100
O 	O 	0.76436 0.54706 0.07882 -0.41300
O 	O 	0.93364 0.46807 0.15565 -0.42500
O 	O 	0.94264 0.96807 0.65565 -0.42900
O 	O 	0.76436 0.07882 0.54706 -0.41300
O 	O 	0.06636 0.84435 0.53193 -0.42500
O 	O 	0.89024 0.95294 0.42118 -0.41600
O 	O 	0.94264 0.65565 0.96807 -0.42900
O 	O 	0.05736 0.34435 0.03193 -0.42900
O 	O 	0.89024 0.42118 0.95294 -0.41600
O 	O 	0.10976 0.04706 0.57882 -0.41600
O 	O 	0.23564 0.92118 0.45294 -0.41300
O 	O 	0.10976 0.57882 0.04706 -0.41600
O 	O 	0.06636 0.53193 0.84435 -0.42500
O 	O 	0.23564 0.45294 0.92118 -0.41300
O 	O 	0.93364 0.15565 0.46807 -0.42500
O 	O 	0.05736 0.03193 0.34435 -0.42900
