data_crystal

_cell_length_a 11.44600
_cell_length_b 13.43400
_cell_length_c 15.35200
_cell_angle_alpha 79.59000
_cell_angle_beta  76.45000
_cell_angle_gamma 79.82000

_symmetry_space_group_name_	'P 1'
_symmetry_space_group_name_H-M	'P 1'

loop_
_symmetry_equiv_pos_as_xyz
  x,y,z

loop_
_atom_site_label
_atom_site_type_symbol
_atom_site_fract_x
_atom_site_fract_y
_atom_site_fract_z
_atom_site_charge
Cu	Cu	0.20021 0.63781 0.47923 0.81500
Cu	Cu	0.42746 0.33448 0.89380 0.82300
Cu	Cu	0.32764 0.62898 0.26946 0.75700
Cu	Cu	0.19201 0.51428 0.21743 0.79300
Cu	Cu	0.69859 0.02949 0.68497 0.82500
N 	N 	0.93100 0.50340 0.67300 -0.26700
N 	N 	0.57390 0.23260 0.89270 -0.23000
N 	N 	0.89690 0.29970 0.73770 -0.22300
N 	N 	0.67170 0.25850 0.82570 -0.26400
N 	N 	0.74170 0.12310 0.91720 -0.13400
C 	C 	0.62030 0.15120 0.94650 0.08300
C 	C 	0.97800 0.58780 0.62050 0.07200
C 	C 	0.00060 0.31700 0.67910 0.00200
C 	C 	0.54680 0.10490 0.02880 0.01600
C 	C 	0.76610 0.19430 0.84100 0.06600
C 	C 	0.88590 0.20320 0.78170 -0.01000
C 	C 	0.01160 0.42500 0.63880 0.04900
N 	N 	0.34140 0.52010 0.44660 -0.20900
N 	N 	0.07970 0.55800 0.56270 -0.21300
N 	N 	0.10080 0.45570 0.57310 -0.10600
N 	N 	0.36450 0.51540 0.35620 -0.26800
N 	N 	0.45110 0.36660 0.42080 -0.14200
N 	N 	0.38980 0.43160 0.19610 -0.22300
C 	C 	0.39420 0.42980 0.48320 0.09000
C 	C 	0.42040 0.40990 0.11000 -0.02100
C 	C 	0.57530 0.33280 0.22570 -0.07600
H 	H 	0.62730 0.30840 0.26560 0.04600
C 	C 	0.42820 0.42550 0.34340 0.06800
C 	C 	0.46550 0.39300 0.25300 0.00300
N 	N 	0.38710 0.34830 0.76930 -0.24500
N 	N 	0.23730 0.49360 0.94230 -0.11400
N 	N 	0.33760 0.43610 0.96920 -0.21500
N 	N 	0.23240 0.51590 0.08660 -0.25800
C 	C 	0.39020 0.39990 0.58240 0.01500
C 	C 	0.32940 0.43870 0.73490 0.01800
H 	H 	0.28540 0.48280 0.77500 0.00400
C 	C 	0.33220 0.46930 0.64310 -0.08100
H 	H 	0.29660 0.53430 0.62210 0.01900
C 	C 	0.44550 0.30830 0.61560 -0.12400
H 	H 	0.48400 0.26060 0.57730 0.04900
C 	C 	0.44420 0.28650 0.70770 0.01800
H 	H 	0.48610 0.22420 0.72850 -0.03900
C 	C 	0.33300 0.45250 0.05440 0.06100
C 	C 	0.53120 0.34820 0.08080 -0.05500
H 	H 	0.55240 0.33400 0.02160 0.00600
C 	C 	0.60650 0.30980 0.13780 -0.01800
H 	H 	0.67870 0.26820 0.11860 0.03600
C 	C 	0.92060 0.69180 0.62970 -0.01300
C 	C 	0.17700 0.54170 0.01180 0.08900
C 	C 	0.35720 0.08240 0.13010 0.04600
H 	H 	0.27300 0.09690 0.14100 -0.00500
C 	C 	0.60040 0.03670 0.09490 -0.10600
H 	H 	0.68420 0.01830 0.08400 0.07100
C 	C 	0.53010 0.99720 0.17500 0.04700
H 	H 	0.56880 0.95350 0.21710 -0.02000
C 	C 	0.99410 0.65370 0.08350 -0.08300
H 	H 	0.01700 0.63790 0.13920 0.02200
C 	C 	0.06550 0.61120 0.00900 0.00400
C 	C 	0.42140 0.12730 0.04880 -0.09300
H 	H 	0.38090 0.17190 0.00820 0.02000
C 	C 	0.08590 0.14280 0.70280 -0.03300
H 	H 	0.14870 0.08960 0.69080 0.03000
C 	C 	0.79720 0.71460 0.64220 -0.11700
H 	H 	0.75100 0.66320 0.64540 0.04500
C 	C 	0.09910 0.24000 0.65870 -0.07700
H 	H 	0.16990 0.25430 0.61740 0.05600
C 	C 	0.97700 0.12210 0.76660 -0.03100
C 	C 	0.97900 0.77060 0.63050 -0.11100
H 	H 	0.06270 0.75950 0.62560 0.02600
N 	N 	0.40790 0.01840 0.19570 -0.23900
C 	C 	0.02160 0.63910 0.92740 -0.09700
H 	H 	0.06560 0.61360 0.87510 0.05700
N 	N 	0.84690 0.74470 0.99890 -0.14100
C 	C 	0.89000 0.71900 0.07430 0.03800
H 	H 	0.84590 0.74780 0.12490 0.01200
C 	C 	0.91470 0.70350 0.92540 0.04800
H 	H 	0.88740 0.71960 0.87130 0.00300
C 	C 	0.91590 0.86830 0.63880 0.05300
H 	H 	0.96050 0.92100 0.63490 -0.01900
C 	C 	0.74060 0.81230 0.65030 0.05700
H 	H 	0.65690 0.82480 0.65510 -0.01800
N 	N 	0.79680 0.89060 0.65160 -0.24000
N 	N 	0.23140 0.76840 0.42180 -0.24000
C 	C 	0.25670 0.84740 0.38190 -0.23800
Cu	Cu	0.79979 0.36219 0.52077 0.81400
Cu	Cu	0.57254 0.66552 0.10620 0.82200
Cu	Cu	0.67236 0.37102 0.73054 0.75600
Cu	Cu	0.80799 0.48572 0.78257 0.79200
Cu	Cu	0.30141 0.97051 0.31503 0.82500
N 	N 	0.06900 0.49660 0.32700 -0.26700
N 	N 	0.42610 0.76740 0.10730 -0.23000
N 	N 	0.10310 0.70030 0.26230 -0.22300
N 	N 	0.32830 0.74150 0.17430 -0.26400
N 	N 	0.25830 0.87690 0.08280 -0.13400
C 	C 	0.37970 0.84880 0.05350 0.08300
C 	C 	0.02200 0.41220 0.37950 0.07200
C 	C 	0.99940 0.68300 0.32090 0.00200
C 	C 	0.45320 0.89510 0.97120 0.01600
C 	C 	0.23390 0.80570 0.15900 0.06600
C 	C 	0.11410 0.79680 0.21830 -0.01000
C 	C 	0.98840 0.57500 0.36120 0.04900
N 	N 	0.65860 0.47990 0.55340 -0.20900
N 	N 	0.92030 0.44200 0.43730 -0.21300
N 	N 	0.89920 0.54430 0.42690 -0.10600
N 	N 	0.63550 0.48460 0.64380 -0.26800
N 	N 	0.54890 0.63340 0.57920 -0.14200
N 	N 	0.61020 0.56840 0.80390 -0.22300
C 	C 	0.60580 0.57020 0.51680 0.09000
C 	C 	0.57960 0.59010 0.89000 -0.02100
C 	C 	0.42470 0.66720 0.77430 -0.07600
H 	H 	0.37270 0.69160 0.73440 0.04600
C 	C 	0.57180 0.57450 0.65660 0.06800
C 	C 	0.53450 0.60700 0.74700 0.00300
N 	N 	0.61290 0.65170 0.23070 -0.24500
N 	N 	0.76270 0.50640 0.05770 -0.11400
N 	N 	0.66240 0.56390 0.03080 -0.21500
N 	N 	0.76760 0.48410 0.91340 -0.25800
C 	C 	0.60980 0.60010 0.41760 0.01500
C 	C 	0.67060 0.56130 0.26510 0.01800
H 	H 	0.71460 0.51720 0.22500 0.00400
C 	C 	0.66780 0.53070 0.35690 -0.08100
H 	H 	0.70340 0.46570 0.37790 0.01900
C 	C 	0.55450 0.69170 0.38440 -0.12400
H 	H 	0.51600 0.73940 0.42270 0.04900
C 	C 	0.55580 0.71350 0.29230 0.01800
H 	H 	0.51390 0.77580 0.27150 -0.03900
C 	C 	0.66700 0.54750 0.94560 0.06100
C 	C 	0.46880 0.65180 0.91920 -0.05500
H 	H 	0.44760 0.66600 0.97840 0.00600
C 	C 	0.39350 0.69020 0.86220 -0.01800
H 	H 	0.32130 0.73180 0.88140 0.03600
C 	C 	0.07940 0.30820 0.37030 -0.01300
C 	C 	0.82300 0.45830 0.98820 0.08900
C 	C 	0.64280 0.91760 0.86990 0.04600
H 	H 	0.72700 0.90310 0.85900 -0.00500
C 	C 	0.39960 0.96330 0.90510 -0.10600
H 	H 	0.31580 0.98170 0.91600 0.07100
C 	C 	0.46990 0.00280 0.82500 0.04700
H 	H 	0.43120 0.04650 0.78290 -0.02000
C 	C 	0.00590 0.34630 0.91650 -0.08300
H 	H 	0.98300 0.36210 0.86080 0.02200
C 	C 	0.93450 0.38880 0.99100 0.00400
C 	C 	0.57860 0.87270 0.95120 -0.09300
H 	H 	0.61910 0.82810 0.99180 0.02000
C 	C 	0.91410 0.85720 0.29720 -0.03300
H 	H 	0.85130 0.91040 0.30920 0.03000
C 	C 	0.20280 0.28540 0.35780 -0.11700
H 	H 	0.24900 0.33680 0.35460 0.04500
C 	C 	0.90090 0.76000 0.34130 -0.07700
H 	H 	0.83010 0.74570 0.38260 0.05600
C 	C 	0.02300 0.87790 0.23340 -0.03100
C 	C 	0.02100 0.22940 0.36950 -0.11100
H 	H 	0.93730 0.24050 0.37440 0.02600
N 	N 	0.59210 0.98160 0.80430 -0.23900
C 	C 	0.97840 0.36090 0.07260 -0.09700
H 	H 	0.93440 0.38640 0.12490 0.05700
N 	N 	0.15310 0.25530 0.00110 -0.14100
C 	C 	0.11000 0.28100 0.92570 0.03800
H 	H 	0.15410 0.25220 0.87510 0.01200
C 	C 	0.08530 0.29650 0.07460 0.04800
H 	H 	0.11260 0.28040 0.12870 0.00300
C 	C 	0.08410 0.13170 0.36120 0.05300
H 	H 	0.03950 0.07900 0.36510 -0.01900
C 	C 	0.25940 0.18770 0.34970 0.05700
H 	H 	0.34310 0.17520 0.34490 -0.01800
N 	N 	0.20320 0.10940 0.34840 -0.24000
N 	N 	0.76860 0.23160 0.57820 -0.24000
C 	C 	0.74330 0.15260 0.61810 -0.23800
