data_crystal

_cell_length_a 11.39450
_cell_length_b 14.88430
_cell_length_c 15.86900
_cell_angle_alpha 64.69000
_cell_angle_beta  89.74700
_cell_angle_gamma 89.66100

_symmetry_space_group_name_	'P 1'
_symmetry_space_group_name_H-M	'P 1'

loop_
_symmetry_equiv_pos_as_xyz
  x,y,z

loop_
_atom_site_label
_atom_site_type_symbol
_atom_site_fract_x
_atom_site_fract_y
_atom_site_fract_z
_atom_site_charge
Cu	Cu	0.89375 0.63759 0.35754 0.86400
C 	C 	0.33940 0.63940 0.85830 0.08000
H 	H 	0.36520 0.69210 0.87000 -0.00900
C 	C 	0.31030 0.49810 0.86330 0.10400
H 	H 	0.31300 0.42980 0.88200 -0.01200
C 	C 	0.22910 0.74040 0.71200 -0.14800
H 	H 	0.15790 0.72820 0.68530 0.08500
H 	H 	0.21160 0.78970 0.73500 0.07700
C 	C 	0.32120 0.77820 0.63960 0.08700
C 	C 	0.32220 0.75820 0.56410 -0.09000
H 	H 	0.25970 0.72310 0.55570 0.06600
C 	C 	0.40910 0.78650 0.50060 -0.05800
H 	H 	0.40650 0.76890 0.45100 0.05000
C 	C 	0.50140 0.84110 0.50830 0.06200
C 	C 	0.50140 0.86310 0.57980 -0.06500
H 	H 	0.56310 0.90040 0.58610 0.05400
C 	C 	0.41210 0.83280 0.64730 -0.08700
H 	H 	0.41520 0.85000 0.69710 0.05800
C 	C 	0.70140 0.75200 0.39810 0.09600
H 	H 	0.66100 0.76640 0.34300 -0.02800
C 	C 	0.81370 0.69460 0.50680 0.10400
H 	H 	0.87180 0.65530 0.54680 0.00600
C 	C 	0.69120 0.62770 0.88680 0.10300
H 	H 	0.71290 0.64550 0.93410 -0.00700
C 	C 	0.61030 0.56070 0.81160 0.10700
H 	H 	0.55940 0.52190 0.79550 -0.01000
C 	C 	0.83230 0.73740 0.76560 -0.13200
H 	H 	0.79950 0.80400 0.74010 0.07200
H 	H 	0.87210 0.72810 0.71570 0.08300
C 	C 	0.92290 0.78500 0.88620 -0.09000
H 	H 	0.87060 0.83820 0.86780 0.05600
C 	C 	0.91900 0.72460 0.84210 0.06800
C 	C 	0.99600 0.64150 0.87480 -0.08100
H 	H 	0.99520 0.59730 0.84750 0.07600
C 	C 	0.07100 0.62650 0.94630 -0.06200
H 	H 	0.12050 0.57140 0.96740 0.07600
C 	C 	0.07590 0.69090 0.98840 0.10500
C 	C 	0.00040 0.77160 0.95690 -0.06700
H 	H 	0.00200 0.81660 0.98340 0.06300
C 	C 	0.16030 0.67300 0.06530 -0.16800
H 	H 	0.22300 0.62970 0.06290 0.06900
H 	H 	0.19490 0.73560 0.05710 0.06300
C 	C 	0.05050 0.67320 0.20110 0.09500
H 	H 	0.05320 0.74100 0.18480 -0.01600
C 	C 	0.01600 0.52480 0.26560 0.14900
H 	H 	0.98690 0.46420 0.30850 -0.02700
C 	C 	0.97430 0.84540 0.31300 0.08800
H 	H 	0.90680 0.87570 0.28020 -0.02100
C 	C 	0.14220 0.82760 0.38120 0.07700
H 	H 	0.21210 0.84060 0.40380 0.00600
C 	C 	0.06080 0.99390 0.32520 -0.13500
H 	H 	0.00630 0.03470 0.27710 0.06900
H 	H 	0.13910 0.02030 0.30630 0.06400
C 	C 	0.02960 0.99790 0.41530 0.10900
C 	C 	0.91610 0.01410 0.43460 -0.12800
H 	H 	0.85840 0.02660 0.38970 0.06900
C 	C 	0.11340 0.98800 0.48130 -0.11800
H 	H 	0.19200 0.98250 0.46800 0.07100
C 	C 	0.59970 0.87360 0.43990 -0.11400
H 	H 	0.56750 0.90020 0.37740 0.05700
H 	H 	0.64200 0.92650 0.44650 0.06800
N 	N 	0.36820 0.54300 0.90830 -0.23200
N 	N 	0.25010 0.55800 0.79150 -0.10300
N 	N 	0.26900 0.64680 0.79020 -0.07600
N 	N 	0.68020 0.79480 0.45120 -0.08900
N 	N 	0.75590 0.76090 0.52430 -0.09400
N 	N 	0.78590 0.68580 0.42910 -0.24700
N 	N 	0.61020 0.56350 0.89440 -0.24300
N 	N 	0.73740 0.66350 0.80430 -0.08200
N 	N 	0.68960 0.61830 0.75580 -0.09000
N 	N 	0.10300 0.62790 0.15470 -0.08000
N 	N 	0.07930 0.53180 0.19600 -0.10700
N 	N 	0.99440 0.60800 0.27310 -0.26600
N 	N 	0.99900 0.75070 0.34320 -0.19800
N 	N 	0.10260 0.74070 0.38680 -0.08500
N 	N 	0.05670 0.89090 0.33520 -0.11500
Cu	Cu	0.10625 0.36241 0.64246 0.86800
C 	C 	0.66060 0.36060 0.14170 0.07700
H 	H 	0.63480 0.30790 0.13000 -0.02300
C 	C 	0.68970 0.50190 0.13670 0.09700
H 	H 	0.68700 0.57020 0.11800 -0.03200
C 	C 	0.77090 0.25960 0.28800 -0.13800
H 	H 	0.84210 0.27180 0.31470 0.07700
H 	H 	0.78840 0.21030 0.26500 0.06800
C 	C 	0.67880 0.22180 0.36040 0.07400
C 	C 	0.67780 0.24180 0.43590 -0.07700
H 	H 	0.74030 0.27690 0.44430 0.06000
C 	C 	0.59090 0.21350 0.49940 -0.07000
H 	H 	0.59350 0.23110 0.54900 0.05600
C 	C 	0.49860 0.15890 0.49170 0.07300
C 	C 	0.49860 0.13690 0.42020 -0.07600
H 	H 	0.43690 0.09960 0.41390 0.05600
C 	C 	0.58790 0.16720 0.35270 -0.07500
H 	H 	0.58480 0.15000 0.30290 0.04900
C 	C 	0.29860 0.24800 0.60190 0.09500
H 	H 	0.33900 0.23360 0.65700 -0.02200
C 	C 	0.18630 0.30540 0.49320 0.10400
H 	H 	0.12820 0.34470 0.45320 0.01100
C 	C 	0.30880 0.37230 0.11320 0.09700
H 	H 	0.28710 0.35450 0.06590 -0.02600
C 	C 	0.38970 0.43930 0.18840 0.10500
H 	H 	0.44060 0.47810 0.20450 -0.01500
C 	C 	0.16770 0.26260 0.23440 -0.13200
H 	H 	0.20050 0.19600 0.25990 0.07000
H 	H 	0.12790 0.27190 0.28430 0.08600
C 	C 	0.07710 0.21500 0.11380 -0.08000
H 	H 	0.12940 0.16180 0.13220 0.04700
C 	C 	0.08100 0.27540 0.15790 0.06300
C 	C 	0.00400 0.35850 0.12520 -0.07100
H 	H 	0.00480 0.40270 0.15250 0.07200
C 	C 	0.92900 0.37350 0.05370 -0.05800
H 	H 	0.87950 0.42860 0.03260 0.04400
C 	C 	0.92410 0.30910 0.01160 0.00400
C 	C 	0.99960 0.22840 0.04310 -0.06300
H 	H 	0.99800 0.18340 0.01660 0.02800
C 	C 	0.83970 0.32700 0.93470 -0.05900
H 	H 	0.77700 0.37030 0.93710 0.06100
H 	H 	0.80510 0.26440 0.94290 0.05500
C 	C 	0.94950 0.32680 0.79890 0.08500
H 	H 	0.94680 0.25900 0.81520 -0.00700
C 	C 	0.98400 0.47520 0.73440 0.08600
H 	H 	0.01310 0.53580 0.69150 0.01300
C 	C 	0.02570 0.15460 0.68700 0.12000
H 	H 	0.09320 0.12430 0.71980 -0.02200
C 	C 	0.85780 0.17240 0.61880 0.08100
H 	H 	0.78790 0.15940 0.59620 0.00600
C 	C 	0.93920 0.00610 0.67480 -0.08400
H 	H 	0.99370 0.96530 0.72290 0.05100
H 	H 	0.86090 0.97970 0.69370 0.05200
C 	C 	0.97040 0.00210 0.58470 0.00500
C 	C 	0.08390 0.98590 0.56540 -0.00400
H 	H 	0.14160 0.97340 0.61030 0.03300
C 	C 	0.88660 0.01200 0.51870 -0.01700
H 	H 	0.80800 0.01750 0.53200 0.03600
C 	C 	0.40030 0.12640 0.56010 -0.12200
H 	H 	0.43250 0.09980 0.62260 0.06400
H 	H 	0.35800 0.07350 0.55350 0.07200
N 	N 	0.63180 0.45700 0.09170 -0.25100
N 	N 	0.74990 0.44200 0.20850 -0.10900
N 	N 	0.73100 0.35320 0.20980 -0.07900
N 	N 	0.31980 0.20520 0.54880 -0.08700
N 	N 	0.24410 0.23910 0.47570 -0.09300
N 	N 	0.21410 0.31420 0.57090 -0.24500
N 	N 	0.38980 0.43650 0.10560 -0.25900
N 	N 	0.26260 0.33650 0.19570 -0.08300
N 	N 	0.31040 0.38170 0.24420 -0.09100
N 	N 	0.89700 0.37210 0.84530 -0.08400
N 	N 	0.92070 0.46820 0.80400 -0.09000
N 	N 	0.00560 0.39200 0.72690 -0.23300
N 	N 	0.00100 0.24930 0.65680 -0.19100
N 	N 	0.89740 0.25930 0.61320 -0.09500
N 	N 	0.94330 0.10910 0.66480 -0.13600
Cu	Cu	0.50000 0.50000 -0.00000 0.83700
Cl	Cl	0.00000 0.50000 0.50000 -0.51500
