data_crystal

_cell_length_a 10.42150
_cell_length_b 10.53230
_cell_length_c 22.24770
_cell_angle_alpha 90.00000
_cell_angle_beta  90.00000
_cell_angle_gamma 90.00000

_symmetry_space_group_name_	'P 1'
_symmetry_space_group_name_H-M	'P 1'

loop_
_symmetry_equiv_pos_as_xyz
  x,y,z

loop_
_atom_site_label
_atom_site_type_symbol
_atom_site_fract_x
_atom_site_fract_y
_atom_site_fract_z
_atom_site_charge
Cd	Cd	0.02059 0.58051 0.90326 1.16900
Cd	Cd	0.97941 0.08051 0.59674 1.16800
H 	H 	0.71890 0.91450 0.60720 -0.03500
H 	H 	0.77190 0.45510 0.68040 0.23800
H 	H 	0.22810 0.95510 0.81960 0.23800
H 	H 	0.62550 0.41210 0.53670 -0.03200
H 	H 	0.65650 0.44720 0.63530 0.21800
H 	H 	0.28110 0.41450 0.89280 -0.03500
H 	H 	0.78200 0.51970 0.61710 0.21900
H 	H 	0.72750 0.67400 0.74490 0.01600
H 	H 	0.00500 0.93080 0.71910 -0.01000
H 	H 	0.63380 0.14090 0.41810 0.01400
H 	H 	0.62690 0.75240 0.65950 0.05500
H 	H 	0.99500 0.43080 0.78090 -0.00700
H 	H 	0.21800 0.01970 0.88290 0.22100
H 	H 	0.37450 0.91210 0.96330 -0.03100
H 	H 	0.22200 0.53290 0.02410 -0.01300
H 	H 	0.77800 0.03290 0.47590 -0.01400
H 	H 	0.34350 0.94720 0.86470 0.21900
H 	H 	0.27250 0.17400 0.75510 0.01800
H 	H 	0.37310 0.25240 0.84050 0.05500
H 	H 	0.36620 0.64090 0.08190 0.01400
C 	C 	0.29580 0.28690 0.82753 -0.13800
C 	C 	0.74890 0.11180 0.48876 -0.00700
C 	C 	0.74830 0.44830 0.63881 -0.69100
C 	C 	0.74920 0.27230 0.55776 -0.06400
C 	C 	0.65790 0.33500 0.52302 0.02600
C 	C 	0.25080 0.77230 0.94224 -0.06400
C 	C 	0.25170 0.94830 0.86119 -0.69300
C 	C 	0.07180 0.39340 0.79278 0.04100
C 	C 	0.66140 0.17650 0.45411 -0.00200
C 	C 	0.12160 0.29560 0.75812 -0.09200
C 	C 	0.05620 0.24950 0.70251 0.20900
C 	C 	0.33860 0.67650 0.04589 -0.00200
C 	C 	0.23650 0.24070 0.77669 0.02400
C 	C 	0.94380 0.74950 0.79749 0.21100
C 	C 	0.70420 0.78690 0.67247 -0.14000
C 	C 	0.34210 0.83500 0.97698 0.02700
C 	C 	0.80220 0.32810 0.61325 0.20900
C 	C 	0.92820 0.89340 0.70722 0.04700
C 	C 	0.87840 0.79560 0.74188 -0.09400
C 	C 	0.23990 0.38370 0.85869 0.05900
C 	C 	0.19780 0.82810 0.88675 0.20900
C 	C 	0.76350 0.74070 0.72331 0.02600
C 	C 	0.76010 0.88370 0.64131 0.06000
C 	C 	0.25110 0.61180 0.01124 -0.00700
N 	N 	0.38490 0.78890 0.02908 -0.21700
N 	N 	0.61510 0.28890 0.47092 -0.21600
N 	N 	0.95500 0.31830 0.68649 -0.13400
N 	N 	0.10100 0.76930 0.86398 -0.22800
N 	N 	0.79310 0.15950 0.54029 -0.20000
N 	N 	0.20690 0.65950 0.95971 -0.20000
N 	N 	0.12900 0.43620 0.84246 -0.25400
N 	N 	0.04500 0.81830 0.81351 -0.13500
N 	N 	0.87100 0.93620 0.65754 -0.25500
N 	N 	0.89900 0.26930 0.63602 -0.22800
O 	O 	0.10245 0.15310 0.67648 -0.38900
O 	O 	0.89755 0.65310 0.82352 -0.39000
Cd	Cd	0.52059 0.91949 0.09674 1.17000
Cd	Cd	0.47941 0.41949 0.40326 1.17000
H 	H 	0.15650 0.05280 0.36470 0.21700
H 	H 	0.49500 0.06920 0.21910 -0.00600
H 	H 	0.84350 0.55280 0.13530 0.21900
H 	H 	0.12690 0.74760 0.34050 0.05500
H 	H 	0.27800 0.46710 0.52410 -0.01300
H 	H 	0.22750 0.82600 0.25510 0.01800
H 	H 	0.72810 0.54490 0.18040 0.23900
H 	H 	0.12550 0.08790 0.46330 -0.03000
H 	H 	0.87450 0.58790 0.03670 -0.03100
H 	H 	0.78110 0.08550 0.10720 -0.03400
H 	H 	0.27190 0.04490 0.31960 0.23700
H 	H 	0.28200 0.98030 0.38290 0.21600
H 	H 	0.71800 0.48030 0.11710 0.22000
H 	H 	0.21890 0.58550 0.39280 -0.03400
H 	H 	0.72200 0.96710 0.97590 -0.01300
H 	H 	0.86620 0.85910 0.91810 0.01400
H 	H 	0.77250 0.32600 0.24490 0.01800
H 	H 	0.50500 0.56920 0.28090 -0.00700
H 	H 	0.13380 0.35910 0.58190 0.01400
H 	H 	0.87310 0.24760 0.15950 0.05500
C 	C 	0.75110 0.88820 0.98876 -0.00400
C 	C 	0.73990 0.11630 0.14131 0.05900
C 	C 	0.42820 0.60660 0.29278 0.04100
C 	C 	0.79580 0.21310 0.17247 -0.13800
C 	C 	0.24890 0.38820 0.51124 -0.00600
C 	C 	0.83860 0.82350 0.95411 -0.00300
C 	C 	0.20420 0.71310 0.32753 -0.13800
C 	C 	0.37840 0.70440 0.25812 -0.09200
C 	C 	0.15790 0.16500 0.47698 0.02600
C 	C 	0.26350 0.75930 0.27669 0.02400
C 	C 	0.24920 0.22770 0.44224 -0.06300
C 	C 	0.26010 0.61630 0.35869 0.05900
C 	C 	0.75170 0.55170 0.13881 -0.69200
C 	C 	0.30220 0.17190 0.38675 0.20700
C 	C 	0.73650 0.25930 0.22331 0.02400
C 	C 	0.69780 0.67190 0.11325 0.20900
C 	C 	0.75080 0.72770 0.05776 -0.06300
C 	C 	0.44380 0.75050 0.20251 0.20800
C 	C 	0.62160 0.20440 0.24188 -0.09200
C 	C 	0.57180 0.10660 0.20722 0.04100
C 	C 	0.16140 0.32350 0.54589 -0.00200
C 	C 	0.24830 0.05170 0.36119 -0.68300
C 	C 	0.55620 0.25050 0.29749 0.20800
C 	C 	0.84210 0.66500 0.02302 0.02500
N 	N 	0.70690 0.84050 0.04029 -0.20100
N 	N 	0.29310 0.34050 0.45971 -0.20000
N 	N 	0.11510 0.21110 0.52908 -0.21500
N 	N 	0.88490 0.71110 0.97092 -0.21500
N 	N 	0.37100 0.56380 0.34246 -0.25400
N 	N 	0.39900 0.23070 0.36398 -0.22700
N 	N 	0.62900 0.06380 0.15754 -0.25400
N 	N 	0.54500 0.68170 0.18649 -0.13400
N 	N 	0.60100 0.73070 0.13602 -0.22800
N 	N 	0.45500 0.18170 0.31351 -0.13300
O 	O 	0.39755 0.84690 0.17648 -0.39100
O 	O 	0.60245 0.34690 0.32352 -0.39000
