data_crystal

_cell_length_a 6.68200
_cell_length_b 11.04830
_cell_length_c 17.63800
_cell_angle_alpha 107.83300
_cell_angle_beta  90.00000
_cell_angle_gamma 90.00000

_symmetry_space_group_name_	'P 1'
_symmetry_space_group_name_H-M	'P 1'

loop_
_symmetry_equiv_pos_as_xyz
  x,y,z

loop_
_atom_site_label
_atom_site_type_symbol
_atom_site_fract_x
_atom_site_fract_y
_atom_site_fract_z
_atom_site_charge
Cd	Cd	0.99647 0.53468 0.40973 1.20300
Cd	Cd	0.50353 0.53468 0.90973 1.20200
Cd	Cd	0.49647 0.46532 0.09027 1.19000
Cd	Cd	0.50000 0.50000 0.50000 1.23600
Cd	Cd	-0.00000 0.50000 -0.00000 1.21100
Cd	Cd	0.00353 0.46532 0.59027 1.18900
H 	H 	0.69300 0.35800 0.95200 0.32900
H 	H 	0.65510 0.16980 0.29480 0.00800
H 	H 	0.61610 0.14980 0.44330 0.04500
H 	H 	0.80700 0.35800 0.45200 0.32800
H 	H 	0.26620 0.99730 0.81660 0.04000
H 	H 	0.00980 0.06160 0.42220 -0.00100
H 	H 	0.49020 0.06160 0.92220 0.08900
H 	H 	0.99020 0.93840 0.57780 0.11100
H 	H 	0.88390 0.14980 0.94330 -0.01600
H 	H 	0.38390 0.85020 0.55670 0.02700
H 	H 	0.23380 0.99730 0.31660 0.08700
H 	H 	0.50980 0.93840 0.07780 0.01900
H 	H 	0.87190 0.78930 0.80320 0.05500
H 	H 	0.34490 0.83020 0.70520 0.02800
H 	H 	0.62810 0.78930 0.30320 0.02300
H 	H 	0.11610 0.85020 0.05670 0.09100
H 	H 	0.12810 0.21070 0.19680 0.01200
H 	H 	0.73380 0.00270 0.18340 0.07800
H 	H 	0.76620 0.00270 0.68340 0.03200
H 	H 	0.84490 0.16980 0.79480 0.03100
H 	H 	0.30700 0.64200 0.04800 0.32100
H 	H 	0.19300 0.64200 0.54800 0.32200
H 	H 	0.37190 0.21070 0.69680 0.04300
H 	H 	0.15510 0.83020 0.20520 0.00500
C 	C 	0.38230 0.20750 0.25730 -0.16900
C 	C 	0.47810 0.00620 0.12240 0.01100
C 	C 	0.66760 0.74480 0.45580 0.36800
C 	C 	0.43510 0.85550 0.74720 -0.02300
C 	C 	0.29700 0.07000 0.12610 -0.08300
C 	C 	0.41890 0.12250 0.52370 -0.08100
C 	C 	0.67450 0.68470 0.66990 0.40100
C 	C 	0.97810 0.99380 0.37760 0.07100
C 	C 	0.11210 0.95540 0.31400 -0.15700
C 	C 	0.11770 0.20750 0.75730 -0.13400
C 	C 	0.08110 0.12250 0.02370 -0.27000
C 	C 	0.17450 0.31530 0.83010 0.40800
C 	C 	0.70300 0.93000 0.87390 0.06500
C 	C 	0.33240 0.25520 0.54420 0.35800
C 	C 	0.20300 0.07000 0.62610 0.04000
C 	C 	0.24970 0.16920 0.69390 -0.04100
C 	C 	0.88790 0.04460 0.68600 0.01200
C 	C 	0.06910 0.91090 0.03430 -0.25200
C 	C 	0.93510 0.14450 0.75280 0.00100
C 	C 	0.61210 0.04460 0.18600 -0.11800
C 	C 	0.32550 0.31530 0.33010 0.42700
C 	C 	0.52190 0.99380 0.87760 -0.10300
C 	C 	0.82550 0.68470 0.16990 0.41700
C 	C 	0.02190 0.00620 0.62240 -0.16100
C 	C 	0.83240 0.74480 0.95580 0.31100
C 	C 	0.93090 0.08910 0.96570 0.16900
C 	C 	0.16760 0.25520 0.04420 0.41300
C 	C 	0.75030 0.83080 0.30610 0.01600
C 	C 	0.56490 0.14450 0.25280 0.05300
C 	C 	0.58110 0.87750 0.47630 -0.11200
C 	C 	0.43090 0.91090 0.53430 -0.02000
C 	C 	0.25030 0.16920 0.19390 0.03700
C 	C 	0.56910 0.08910 0.46570 -0.05600
C 	C 	0.91890 0.87750 0.97630 0.08100
C 	C 	0.88230 0.79250 0.24270 -0.13700
C 	C 	0.79700 0.93000 0.37390 -0.05700
C 	C 	0.64960 0.96690 0.44070 0.06100
C 	C 	0.35040 0.03310 0.55930 0.00600
C 	C 	0.85040 0.96690 0.94070 -0.08500
C 	C 	0.38790 0.95540 0.81400 -0.02400
C 	C 	0.74970 0.83080 0.80610 -0.06200
C 	C 	0.61770 0.79250 0.74270 -0.10300
C 	C 	0.06490 0.85550 0.24720 0.03000
C 	C 	0.14960 0.03310 0.05930 0.15500
O 	O 	0.81410 0.43160 0.47823 -0.84900
O 	O 	0.44480 0.34150 0.38720 -0.48300
O 	O 	0.14870 0.26730 0.53856 -0.45500
O 	O 	0.55520 0.65850 0.61280 -0.47500
O 	O 	0.05520 0.34150 0.88720 -0.47200
O 	O 	0.45630 0.34510 0.56530 -0.46300
O 	O 	0.35130 0.26730 0.03856 -0.48500
O 	O 	0.16370 0.36730 0.32970 -0.51700
O 	O 	0.18590 0.56840 0.52177 -0.86300
O 	O 	0.95630 0.65490 0.93470 -0.42200
O 	O 	0.04370 0.34510 0.06530 -0.50200
O 	O 	0.33630 0.36730 0.82970 -0.49900
O 	O 	0.94480 0.65850 0.11280 -0.47700
O 	O 	0.66370 0.63270 0.17030 -0.51000
O 	O 	0.68590 0.43160 0.97823 -0.81800
O 	O 	0.85130 0.73270 0.46144 -0.44700
O 	O 	0.54370 0.65490 0.43470 -0.46800
O 	O 	0.31410 0.56840 0.02177 -0.88600
O 	O 	0.83630 0.63270 0.67030 -0.49300
O 	O 	0.64870 0.73270 0.96144 -0.41700
