data_crystal

_cell_length_a 14.41600
_cell_length_b 14.72490
_cell_length_c 14.72490
_cell_angle_alpha 76.13580
_cell_angle_beta  60.69150
_cell_angle_gamma 60.69160

_symmetry_space_group_name_	'P 1'
_symmetry_space_group_name_H-M	'P 1'

loop_
_symmetry_equiv_pos_as_xyz
  x,y,z

loop_
_atom_site_label
_atom_site_type_symbol
_atom_site_fract_x
_atom_site_fract_y
_atom_site_fract_z
_atom_site_charge
Cd	Cd	0.96748 0.78029 0.18939 1.21200
Cd	Cd	0.56284 0.28029 0.68939 1.21400
Cd	Cd	0.74777 0.68939 0.21971 1.21300
Cd	Cd	0.84313 0.18939 0.71971 1.21400
Cd	Cd	0.15687 0.81061 0.28029 1.21400
Cd	Cd	0.03252 0.21971 0.81061 1.21200
Cd	Cd	0.25223 0.31061 0.78029 1.21400
Cd	Cd	0.43716 0.71971 0.31061 1.21500
H 	H 	0.34540 0.92090 0.41230 0.04100
H 	H 	0.72990 0.19330 0.15150 0.04200
H 	H 	0.50000 0.36790 0.22730 0.05100
H 	H 	0.88140 0.84850 0.69330 0.04300
H 	H 	0.46190 0.85850 0.07510 0.04000
H 	H 	0.10450 0.35850 0.57510 0.04000
H 	H 	0.29690 0.43890 0.28150 0.05700
H 	H 	0.50000 0.63210 0.77270 0.05100
H 	H 	0.32040 0.57510 0.14150 0.04000
H 	H 	0.42530 0.69330 0.65150 0.04500
H 	H 	0.27010 0.80670 0.84850 0.04200
H 	H 	0.11860 0.15150 0.30670 0.04300
H 	H 	0.48270 0.93890 0.78150 0.05500
H 	H 	0.65460 0.07910 0.58770 0.04100
H 	H 	0.70310 0.56110 0.71850 0.05700
H 	H 	0.59520 0.13210 0.27270 0.05300
H 	H 	0.27270 0.22730 0.13210 0.05000
H 	H 	0.73580 0.78150 0.56110 0.05600
H 	H 	0.72730 0.77270 0.86790 0.05000
H 	H 	0.26420 0.21850 0.43890 0.05600
H 	H 	0.67960 0.42490 0.85850 0.04000
H 	H 	0.57840 0.71850 0.93890 0.05800
H 	H 	0.89550 0.64150 0.42490 0.04000
H 	H 	0.26630 0.91230 0.07910 0.04000
H 	H 	0.40480 0.86790 0.72730 0.05300
H 	H 	0.42160 0.28150 0.06110 0.05800
H 	H 	0.53700 0.92490 0.35850 0.04000
H 	H 	0.57470 0.30670 0.34850 0.04500
H 	H 	0.53810 0.14150 0.92490 0.04000
H 	H 	0.24230 0.41230 0.57910 0.04300
H 	H 	0.17860 0.57910 0.08770 0.04500
H 	H 	0.13210 0.27270 0.36790 0.05300
H 	H 	0.51730 0.06110 0.21850 0.05500
H 	H 	0.82140 0.42090 0.91230 0.04500
H 	H 	0.86790 0.72730 0.63210 0.05300
H 	H 	0.92320 0.65150 0.80670 0.04700
H 	H 	0.46300 0.07510 0.64150 0.04000
H 	H 	0.07680 0.34850 0.19330 0.04700
H 	H 	0.75770 0.58770 0.42090 0.04300
H 	H 	0.73370 0.08770 0.92090 0.04000
C 	C 	0.39320 0.54430 0.08450 -0.03400
C 	C 	0.68290 0.93440 0.56820 0.01000
C 	C 	0.82270 0.79810 0.62590 -0.05100
C 	C 	0.86360 0.62960 0.83940 -0.02100
C 	C 	0.53580 0.67960 0.44500 0.31700
C 	C 	0.62080 0.12590 0.20190 -0.05300
C 	C 	0.10750 0.47620 0.14680 -0.07300
C 	C 	0.40510 0.13830 0.85770 0.36900
C 	C 	0.59490 0.86170 0.14230 0.36900
C 	C 	0.16740 0.12960 0.33940 -0.01300
C 	C 	0.83260 0.87040 0.66060 -0.01300
C 	C 	0.50680 0.66060 0.62960 -0.01900
C 	C 	0.98080 0.55500 0.17960 0.31300
C 	C 	0.65710 0.66960 0.91840 -0.06100
C 	C 	0.61730 0.06820 0.06560 0.00900
C 	C 	0.93750 0.58450 0.45570 -0.03600
C 	C 	0.09890 0.63830 0.35770 0.36800
C 	C 	0.40710 0.02960 0.47300 0.03600
C 	C 	0.70400 0.09890 0.99130 -0.02900
C 	C 	0.41630 0.35320 0.47620 -0.07800
C 	C 	0.74570 0.14680 0.02380 -0.08700
C 	C 	0.25110 0.43180 0.43440 0.01500
C 	C 	0.05510 0.56010 0.42590 -0.09600
C 	C 	0.54340 0.35770 0.86170 0.36900
C 	C 	0.48100 0.57410 0.06010 -0.09800
C 	C 	0.46420 0.32040 0.55500 0.31700
C 	C 	0.11990 0.47300 0.47040 0.03400
C 	C 	0.74890 0.56820 0.56560 0.01500
C 	C 	0.21540 0.94500 0.32040 0.32000
C 	C 	0.26280 0.14230 0.63830 0.36900
C 	C 	0.89250 0.52380 0.85320 -0.07300
C 	C 	0.56330 0.02700 0.02960 0.03700
C 	C 	0.90110 0.36170 0.64230 0.36800
C 	C 	0.61520 0.92590 0.43990 -0.09800
C 	C 	0.60680 0.45570 0.91550 -0.03400
C 	C 	0.74510 0.83040 0.58160 -0.05400
C 	C 	0.57550 0.08160 0.16960 -0.05300
C 	C 	0.76950 0.97620 0.64680 -0.08500
C 	C 	0.38480 0.07410 0.56010 -0.09800
C 	C 	0.38270 0.93180 0.93440 0.00900
C 	C 	0.55140 0.62590 0.70190 -0.04600
C 	C 	0.13640 0.37040 0.16060 -0.02100
C 	C 	0.25490 0.16960 0.41840 -0.05400
C 	C 	0.52200 0.95570 0.41550 -0.03500
C 	C 	0.49320 0.33940 0.37040 -0.01900
C 	C 	0.70580 0.59890 0.49130 -0.03900
C 	C 	0.78460 0.05500 0.67960 0.32000
C 	C 	0.34290 0.33040 0.08160 -0.06100
C 	C 	0.06250 0.41550 0.54430 -0.03600
C 	C 	0.52230 0.08450 0.95570 -0.03500
C 	C 	0.29700 0.83940 0.87040 -0.01200
C 	C 	0.37920 0.87410 0.79810 -0.05300
C 	C 	0.40970 0.47040 0.02700 0.03400
C 	C 	0.69530 0.00870 0.59890 -0.03100
C 	C 	0.58370 0.64680 0.52380 -0.07800
C 	C 	0.19710 0.50870 0.09890 -0.04100
C 	C 	0.31450 0.43440 0.06820 0.01700
C 	C 	0.42450 0.91840 0.83040 -0.05300
C 	C 	0.45890 0.06010 0.92590 -0.09900
C 	C 	0.23050 0.02380 0.35320 -0.08500
C 	C 	0.59030 0.52960 0.97300 0.03400
C 	C 	0.67330 0.58160 0.66960 -0.05900
C 	C 	0.01920 0.44500 0.82040 0.31300
C 	C 	0.25430 0.85320 0.97620 -0.08700
C 	C 	0.88010 0.52700 0.52960 0.03400
C 	C 	0.44860 0.37410 0.29810 -0.04600
C 	C 	0.45660 0.64230 0.13830 0.36900
C 	C 	0.70300 0.16060 0.12960 -0.01200
C 	C 	0.17730 0.20190 0.37410 -0.05100
C 	C 	0.31710 0.06560 0.43180 0.01000
C 	C 	0.83960 0.17960 0.94500 0.32100
C 	C 	0.80290 0.49130 0.90110 -0.04100
C 	C 	0.94490 0.43990 0.57410 -0.09600
C 	C 	0.16040 0.82040 0.05500 0.32100
C 	C 	0.47800 0.04430 0.58450 -0.03500
C 	C 	0.43670 0.97300 0.97040 0.03700
C 	C 	0.32670 0.41840 0.33040 -0.05900
C 	C 	0.54110 0.93990 0.07410 -0.09900
C 	C 	0.29600 0.90110 0.00870 -0.02900
C 	C 	0.29420 0.40110 0.50870 -0.03900
C 	C 	0.74670 0.70190 0.87410 -0.04400
C 	C 	0.25330 0.29810 0.12590 -0.04400
C 	C 	0.59290 0.97040 0.52700 0.03600
C 	C 	0.51900 0.42590 0.93990 -0.09800
C 	C 	0.68550 0.56560 0.93180 0.01700
C 	C 	0.47770 0.91550 0.04430 -0.03500
C 	C 	0.30470 0.99130 0.40110 -0.03100
C 	C 	0.73720 0.85770 0.36170 0.36900
O 	O 	0.84280 0.33602 0.62158 -0.43300
O 	O 	0.35512 0.71558 0.17918 -0.48500
O 	O 	0.83329 0.02987 0.73815 -0.39000
O 	O 	0.30040 0.16398 0.87842 -0.43500
O 	O 	0.10119 0.85658 0.14784 -0.50300
O 	O 	0.39439 0.35658 0.64784 -0.50400
O 	O 	0.04223 0.35216 0.85658 -0.50500
O 	O 	0.92930 0.32082 0.71558 -0.48300
O 	O 	0.15720 0.66398 0.37842 -0.43300
O 	O 	0.10131 0.47013 0.76185 -0.39000
O 	O 	0.64488 0.28442 0.82082 -0.48500
O 	O 	0.25012 0.21558 0.67918 -0.48500
O 	O 	0.75097 0.14784 0.64342 -0.50500
O 	O 	0.13684 0.76185 0.02987 -0.38900
O 	O 	0.07070 0.67918 0.28442 -0.48300
O 	O 	0.89881 0.14342 0.85216 -0.50300
O 	O 	0.46570 0.17918 0.78442 -0.48500
O 	O 	0.17882 0.12158 0.66398 -0.43500
O 	O 	0.95777 0.64784 0.14342 -0.50500
O 	O 	0.53562 0.62158 0.16398 -0.43400
O 	O 	0.16671 0.97013 0.26185 -0.39000
O 	O 	0.86316 0.23815 0.97013 -0.38900
O 	O 	0.46438 0.37842 0.83602 -0.43400
O 	O 	0.74988 0.78442 0.32082 -0.48500
O 	O 	0.53430 0.82082 0.21558 -0.48500
O 	O 	0.82118 0.87842 0.33602 -0.43500
O 	O 	0.24903 0.85216 0.35658 -0.50500
O 	O 	0.60561 0.64342 0.35216 -0.50400
O 	O 	0.42856 0.73815 0.47013 -0.39000
O 	O 	0.57144 0.26185 0.52987 -0.39000
O 	O 	0.89869 0.52987 0.23815 -0.39000
O 	O 	0.69960 0.83602 0.12158 -0.43500
