data_crystal

_cell_length_a 4.97550
_cell_length_b 11.98970
_cell_length_c 8.18050
_cell_angle_alpha 90.00000
_cell_angle_beta  92.41600
_cell_angle_gamma 90.00000

_symmetry_space_group_name_	'P 1'
_symmetry_space_group_name_H-M	'P 1'

loop_
_symmetry_equiv_pos_as_xyz
  x,y,z

loop_
_atom_site_label
_atom_site_type_symbol
_atom_site_fract_x
_atom_site_fract_y
_atom_site_fract_z
_atom_site_charge
P 	P 	0.00880 0.48500 0.23300 0.56500
O 	O 	0.72060 0.52060 0.19130 -0.74600
O 	O 	0.04100 0.35660 0.23370 -0.73100
O 	O 	0.20650 0.54510 0.12220 -0.81100
C 	C 	0.08900 0.53320 0.44280 -0.01400
F 	F 	0.54600 0.85160 0.95130 -0.81300
P 	P 	0.99120 0.98500 0.76700 0.79900
O 	O 	0.27940 0.02060 0.80870 -0.53800
O 	O 	0.95900 0.85660 0.76630 -0.68300
O 	O 	0.79350 0.04510 0.87780 -0.49300
C 	C 	0.91100 0.03320 0.55720 -0.32200
F 	F 	0.45400 0.35160 0.04870 -1.22800
P 	P 	0.99120 0.51500 0.76700 0.49800
O 	O 	0.27940 0.47940 0.80870 -0.37900
O 	O 	0.95900 0.64340 0.76630 -0.66100
O 	O 	0.79350 0.45490 0.87780 -0.36000
C 	C 	0.91100 0.46680 0.55720 -0.06700
F 	F 	0.45400 0.14840 0.04870 -1.25600
P 	P 	0.00880 0.01500 0.23300 0.22300
O 	O 	0.72060 0.97940 0.19130 -0.56200
O 	O 	0.04100 0.14340 0.23370 -0.70800
O 	O 	0.20650 0.95490 0.12220 -0.65000
C 	C 	0.08900 0.96680 0.44280 0.25200
F 	F 	0.54600 0.64840 0.95130 -0.83400
Al	Al	0.75320 0.75000 0.85620 2.40000
Al	Al	0.24680 0.25000 0.14380 2.38900
Al	Al	0.50000 0.50000 -0.00000 2.37100
Al	Al	0.50000 0.00000 -0.00000 2.35900
