data_crystal

_cell_length_a 5.20160
_cell_length_b 13.60240
_cell_length_c 17.23940
_cell_angle_alpha 97.86900
_cell_angle_beta  93.30200
_cell_angle_gamma 91.82800

_symmetry_space_group_name_	'P 1'
_symmetry_space_group_name_H-M	'P 1'

loop_
_symmetry_equiv_pos_as_xyz
  x,y,z

loop_
_atom_site_label
_atom_site_type_symbol
_atom_site_fract_x
_atom_site_fract_y
_atom_site_fract_z
_atom_site_charge
Zn	Zn	0.16360 0.78326 0.65329 1.22500
Zn	Zn	0.79540 0.94654 0.57309 1.22500
Zn	Zn	0.27590 0.62561 0.49954 1.22600
Zn	Zn	0.78000 0.99650 0.90352 1.23200
P 	P 	0.69090 0.87007 0.73309 0.53500
P 	P 	0.24900 0.85279 0.48966 0.54100
P 	P 	0.81280 0.58769 0.59311 0.52700
P 	P 	0.72330 0.88430 0.05105 0.52200
O 	O 	0.50400 0.78040 0.70120 -0.45700
O 	O 	0.96190 0.82690 0.73930 -0.47500
O 	O 	0.07770 0.64740 0.59720 -0.59300
O 	O 	0.11890 0.86740 0.56980 -0.64500
O 	O 	0.53510 0.87580 0.50080 -0.51500
O 	O 	0.11080 0.91860 0.43770 -0.49500
O 	O 	0.67970 0.94850 0.67850 -0.49500
O 	O 	0.63350 0.62380 0.53180 -0.52300
O 	O 	0.20490 0.74380 0.45160 -0.46700
O 	O 	0.86260 0.47940 0.57840 -0.48200
O 	O 	0.82990 0.89170 0.97150 -0.47700
O 	O 	0.61200 0.91410 0.81400 -0.44700
O 	O 	0.43770 0.90160 0.05090 -0.45800
O 	O 	0.88190 0.95070 0.11570 -0.45900
O 	O 	0.70520 0.60850 0.67640 -0.26100
O 	O 	0.74480 0.77230 0.06660 -0.22400
Zn	Zn	0.83640 0.21674 0.34671 1.22400
Zn	Zn	0.20460 0.05346 0.42691 1.22400
Zn	Zn	0.72410 0.37439 0.50046 1.22500
Zn	Zn	0.22000 0.00350 0.09648 1.23100
P 	P 	0.30910 0.12993 0.26691 0.53500
P 	P 	0.75100 0.14721 0.51034 0.54100
P 	P 	0.18720 0.41231 0.40689 0.52700
P 	P 	0.27670 0.11570 0.94895 0.52200
O 	O 	0.49600 0.21960 0.29880 -0.45700
O 	O 	0.03810 0.17310 0.26070 -0.47500
O 	O 	0.92230 0.35260 0.40280 -0.59300
O 	O 	0.88110 0.13260 0.43020 -0.64500
O 	O 	0.46490 0.12420 0.49920 -0.51500
O 	O 	0.88920 0.08140 0.56230 -0.49500
O 	O 	0.32030 0.05150 0.32150 -0.49500
O 	O 	0.36650 0.37620 0.46820 -0.52300
O 	O 	0.79510 0.25620 0.54840 -0.46700
O 	O 	0.13740 0.52060 0.42160 -0.48200
O 	O 	0.17010 0.10830 0.02850 -0.47700
O 	O 	0.38800 0.08590 0.18600 -0.44700
O 	O 	0.56230 0.09840 0.94910 -0.45800
O 	O 	0.11810 0.04930 0.88430 -0.45900
O 	O 	0.29480 0.39150 0.32360 -0.26100
O 	O 	0.25520 0.22770 0.93340 -0.22400
N 	N 	0.76770 0.19680 0.11870 -0.25000
N 	N 	0.73100 0.74600 0.36230 -0.25000
C 	C 	0.69400 0.30180 0.11950 -0.00600
C 	C 	0.92800 0.36870 0.12300 -0.13800
C 	C 	0.86100 0.48000 0.13700 -0.06600
C 	C 	0.74600 0.50980 0.21700 -0.09400
C 	C 	0.78400 0.61700 0.24840 -0.10600
C 	C 	0.65000 0.64290 0.32370 -0.02400
H 	H 	0.60950 0.15240 0.11550 0.10300
H 	H 	0.87410 0.19090 0.16800 0.12200
H 	H 	0.87050 0.17690 0.07230 0.11300
H 	H 	0.64100 0.76240 0.41190 0.10800
H 	H 	0.92200 0.74980 0.37460 0.12700
H 	H 	0.68500 0.79450 0.32560 0.10400
H 	H 	0.59200 0.32190 0.16590 0.04500
H 	H 	0.58800 0.30790 0.07030 0.04800
H 	H 	0.04400 0.35550 0.16830 0.08300
H 	H 	0.01800 0.35400 0.07330 0.08000
H 	H 	0.02000 0.52300 0.13500 0.05100
H 	H 	0.73100 0.49200 0.09500 0.05200
H 	H 	0.83100 0.47070 0.25500 0.07200
H 	H 	0.55700 0.49260 0.21100 0.06400
H 	H 	0.97300 0.63350 0.25890 0.06600
H 	H 	0.71300 0.65690 0.20810 0.07000
H 	H 	0.69600 0.59440 0.36040 0.03200
H 	H 	0.45900 0.63910 0.31150 0.03600
N 	N 	0.23230 0.80320 0.88130 -0.25000
N 	N 	0.26900 0.25400 0.63770 -0.25000
C 	C 	0.30600 0.69820 0.88050 -0.00600
C 	C 	0.07200 0.63130 0.87700 -0.13800
C 	C 	0.13900 0.52000 0.86300 -0.06600
C 	C 	0.25400 0.49020 0.78300 -0.09400
C 	C 	0.21600 0.38300 0.75160 -0.10600
C 	C 	0.35000 0.35710 0.67630 -0.02400
H 	H 	0.39050 0.84760 0.88450 0.10300
H 	H 	0.12590 0.80910 0.83200 0.12200
H 	H 	0.12950 0.82310 0.92770 0.11300
H 	H 	0.35900 0.23760 0.58810 0.10800
H 	H 	0.07800 0.25020 0.62540 0.12700
H 	H 	0.31500 0.20550 0.67440 0.10400
H 	H 	0.40800 0.67810 0.83410 0.04500
H 	H 	0.41200 0.69210 0.92970 0.04800
H 	H 	0.95600 0.64450 0.83170 0.08300
H 	H 	0.98200 0.64600 0.92670 0.08000
H 	H 	0.98000 0.47700 0.86500 0.05100
H 	H 	0.26900 0.50800 0.90500 0.05200
H 	H 	0.16900 0.52930 0.74500 0.07200
H 	H 	0.44300 0.50740 0.78900 0.06400
H 	H 	0.02700 0.36650 0.74110 0.06600
H 	H 	0.28700 0.34310 0.79190 0.07000
H 	H 	0.30400 0.40560 0.63960 0.03200
H 	H 	0.54100 0.36090 0.68850 0.03600
