data_crystal

_cell_length_a 12.46160
_cell_length_b 13.97030
_cell_length_c 13.97030
_cell_angle_alpha 78.52620
_cell_angle_beta  63.51240
_cell_angle_gamma 63.51240

_symmetry_space_group_name_	'P 1'
_symmetry_space_group_name_H-M	'P 1'

loop_
_symmetry_equiv_pos_as_xyz
  x,y,z

loop_
_atom_site_label
_atom_site_type_symbol
_atom_site_fract_x
_atom_site_fract_y
_atom_site_fract_z
_atom_site_charge
V 	V 	0.24776 0.50231 0.79179 1.84200
V 	V 	0.02643 0.79652 0.49886 1.80200
V 	V 	0.37859 0.37645 0.56625 1.73400
V 	V 	0.54186 0.49769 0.20821 1.84200
V 	V 	0.32181 0.20348 0.50114 1.83300
V 	V 	0.32129 0.62355 0.43375 1.73300
V 	V 	0.03955 0.20821 0.50231 1.82400
V 	V 	0.52529 0.50114 0.79652 1.83400
V 	V 	0.94484 0.43375 0.37645 1.75800
V 	V 	0.75007 0.79179 0.49769 1.84300
V 	V 	0.82295 0.49886 0.20348 1.83500
V 	V 	0.75504 0.56625 0.62355 1.73900
Co	Co	0.02140 0.77018 0.76730 1.15300
Co	Co	0.46033 0.99876 0.66740 1.19400
Co	Co	0.55888 0.22982 0.23270 1.18500
Co	Co	0.12649 0.00124 0.33260 1.17800
Co	Co	0.78870 0.23270 0.77018 1.18900
Co	Co	0.12773 0.33260 0.99876 1.18100
Co	Co	0.79158 0.76730 0.22982 1.18900
Co	Co	0.45909 0.66740 0.00124 1.18700
H 	H 	0.34090 0.69330 0.67650 -0.03400
H 	H 	0.48140 0.78440 0.64560 -0.01700
H 	H 	0.17720 0.06510 0.71310 -0.01600
H 	H 	0.73280 0.55690 0.01230 -0.02400
H 	H 	0.93110 0.59980 0.91640 0.05600
H 	H 	0.74670 0.83480 0.77400 0.02300
H 	H 	0.71070 0.30670 0.32350 -0.03500
H 	H 	0.91140 0.21560 0.35440 0.00800
H 	H 	0.95540 0.93490 0.28690 0.03700
H 	H 	0.30200 0.44310 0.98770 -0.00600
H 	H 	0.44730 0.40020 0.08360 0.02000
H 	H 	0.35550 0.16520 0.22600 0.01700
H 	H 	0.01740 0.32350 0.69330 -0.19200
H 	H 	0.12700 0.35440 0.78440 0.04500
H 	H 	0.89030 0.28690 0.06510 -0.00200
H 	H 	0.74510 0.98770 0.55690 -0.00700
H 	H 	0.84750 0.08360 0.59980 0.04100
H 	H 	0.52070 0.22600 0.83480 0.02000
H 	H 	0.03420 0.67650 0.30670 -0.03100
H 	H 	0.26580 0.64560 0.21560 -0.03100
H 	H 	0.24230 0.71310 0.93490 0.00100
H 	H 	0.28970 0.01230 0.44310 -0.01700
H 	H 	0.53090 0.91640 0.40020 0.02600
H 	H 	0.58150 0.77400 0.16520 0.01700
C 	C 	0.30570 0.76770 0.68510 -0.01600
C 	C 	0.38640 0.81700 0.67020 0.01600
C 	C 	0.20950 0.97990 0.70650 0.08400
C 	C 	0.12930 0.92980 0.72280 -0.16200
C 	C 	0.98280 0.99030 0.75670 0.44400
C 	C 	0.75320 0.61290 0.94470 0.03400
C 	C 	0.86150 0.63900 0.89940 -0.02900
C 	C 	0.75460 0.78050 0.81370 0.04100
C 	C 	0.64810 0.75470 0.85890 -0.08600
C 	C 	0.52420 0.81760 0.83780 0.36100
C 	C 	0.75850 0.23230 0.31490 -0.00500
C 	C 	0.87360 0.18300 0.32980 0.01500
C 	C 	0.89590 0.02010 0.29350 0.05700
C 	C 	0.78190 0.07020 0.27720 -0.07400
C 	C 	0.72980 0.00970 0.24330 0.35300
C 	C 	0.31080 0.38710 0.05530 -0.01200
C 	C 	0.39990 0.36100 0.10060 -0.01900
C 	C 	0.34880 0.21950 0.18630 0.04100
C 	C 	0.26170 0.24530 0.14110 -0.10000
C 	C 	0.17960 0.18240 0.16220 0.36100
C 	C 	0.99080 0.31490 0.76770 0.29300
C 	C 	0.05660 0.32980 0.81700 -0.20100
C 	C 	0.91600 0.29350 0.97990 0.13700
C 	C 	0.85210 0.27720 0.92980 -0.08700
C 	C 	0.73950 0.24330 0.99030 0.38000
C 	C 	0.69790 0.05530 0.61290 0.00900
C 	C 	0.76090 0.10060 0.63900 -0.02800
C 	C 	0.56830 0.18630 0.78050 0.04000
C 	C 	0.50700 0.14110 0.75470 -0.09100
C 	C 	0.36200 0.16220 0.81760 0.36100
C 	C 	0.07340 0.68510 0.23230 -0.11200
C 	C 	0.20340 0.67020 0.18300 0.04900
C 	C 	0.18940 0.70650 0.02010 0.09900
C 	C 	0.05910 0.72280 0.07020 -0.24000
C 	C 	0.97310 0.75670 0.00970 0.52700
C 	C 	0.36610 0.94470 0.38710 0.01000
C 	C 	0.50050 0.89940 0.36100 -0.02500
C 	C 	0.53510 0.81370 0.21950 0.04200
C 	C 	0.40280 0.85890 0.24530 -0.09400
C 	C 	0.34180 0.83780 0.18240 0.36600
N 	N 	0.17700 0.82230 0.71190 -0.19300
N 	N 	0.33910 0.92360 0.68100 -0.21400
N 	N 	0.64680 0.67090 0.92510 -0.20000
N 	N 	0.86170 0.72450 0.83370 -0.18400
N 	N 	0.71120 0.17770 0.28810 -0.19900
N 	N 	0.94370 0.07640 0.31900 -0.18400
N 	N 	0.24280 0.32910 0.07490 -0.20400
N 	N 	0.41990 0.27550 0.16630 -0.20800
N 	N 	0.88890 0.28810 0.82230 -0.23800
N 	N 	0.02010 0.31900 0.92360 -0.22700
N 	N 	0.57190 0.07490 0.67090 -0.20100
N 	N 	0.69540 0.16630 0.72450 -0.20300
N 	N 	0.99930 0.71190 0.17770 -0.10400
N 	N 	0.26270 0.68100 0.07640 -0.22800
N 	N 	0.31770 0.92510 0.32910 -0.19900
N 	N 	0.58620 0.83370 0.27550 -0.20400
O 	O 	0.91600 0.93630 0.78190 -0.38600
O 	O 	0.94450 0.08950 0.75530 -0.42400
O 	O 	0.43150 0.78970 0.88830 -0.41200
O 	O 	0.53140 0.89000 0.77000 -0.42300
O 	O 	0.15900 0.60910 0.74270 -0.76100
O 	O 	0.61640 0.90240 0.53600 -0.67900
O 	O 	0.34020 0.39260 0.70000 -0.87500
O 	O 	0.36390 0.52670 0.81350 -0.81300
O 	O 	0.40740 0.10210 0.55450 -0.72800
O 	O 	0.99840 0.78720 0.62620 -0.68400
O 	O 	0.16500 0.67400 0.43420 -0.89200
O 	O 	0.63420 0.06370 0.21810 -0.39400
O 	O 	0.78930 0.91050 0.24470 -0.41500
O 	O 	0.10950 0.21030 0.11170 -0.44700
O 	O 	0.19140 0.11000 0.23000 -0.43700
O 	O 	0.51080 0.39090 0.25730 -0.74300
O 	O 	0.05480 0.09760 0.46400 -0.71300
O 	O 	0.43280 0.60740 0.30000 -0.87200
O 	O 	0.70410 0.47330 0.18650 -0.81200
O 	O 	0.06400 0.89790 0.44550 -0.75900
O 	O 	0.41180 0.21280 0.37380 -0.74600
O 	O 	0.27320 0.32600 0.56580 -0.88100
O 	O 	0.69790 0.21810 0.93630 -0.39500
O 	O 	0.69980 0.24470 0.08950 -0.43800
O 	O 	0.31980 0.11170 0.78970 -0.42000
O 	O 	0.30140 0.23000 0.89000 -0.42300
O 	O 	0.90170 0.25730 0.60910 -0.70000
O 	O 	0.15240 0.46400 0.90240 -0.70000
O 	O 	0.04020 0.30000 0.39260 -0.91500
O 	O 	0.17740 0.18650 0.52670 -0.82400
O 	O 	0.96190 0.44550 0.10210 -0.69000
O 	O 	0.62460 0.37380 0.78720 -0.74200
O 	O 	0.59920 0.56580 0.67400 -0.87200
O 	O 	0.85230 0.78190 0.06370 -0.43300
O 	O 	0.03400 0.75530 0.91050 -0.51900
O 	O 	0.22120 0.88830 0.21030 -0.43000
O 	O 	0.42140 0.77000 0.11000 -0.43000
O 	O 	0.76810 0.74270 0.39090 -0.73300
O 	O 	0.51880 0.53600 0.09760 -0.68200
O 	O 	0.73280 0.70000 0.60740 -0.86500
O 	O 	0.89060 0.81350 0.47330 -0.77900
O 	O 	0.50950 0.55450 0.89790 -0.72100
O 	O 	0.78560 0.62620 0.21280 -0.73800
O 	O 	0.83900 0.43420 0.32600 -0.85900
O 	O 	0.36170 0.50000 0.50000 -0.97300
O 	O 	0.86170 0.50000 0.50000 -0.94600
