data_crystal

_cell_length_a 12.26790
_cell_length_b 13.91990
_cell_length_c 13.91990
_cell_angle_alpha 78.80320
_cell_angle_beta  63.85410
_cell_angle_gamma 63.85410

_symmetry_space_group_name_	'P 1'
_symmetry_space_group_name_H-M	'P 1'

loop_
_symmetry_equiv_pos_as_xyz
  x,y,z

loop_
_atom_site_label
_atom_site_type_symbol
_atom_site_fract_x
_atom_site_fract_y
_atom_site_fract_z
_atom_site_charge
V 	V 	0.66259 0.50353 0.20691 1.84500
V 	V 	0.08728 0.49904 0.79766 1.80300
V 	V 	0.65354 0.37736 0.43356 1.73800
V 	V 	0.37303 0.49647 0.79309 1.84500
V 	V 	0.38398 0.50096 0.20234 1.83200
V 	V 	0.46446 0.62264 0.56644 1.73900
V 	V 	0.86950 0.79309 0.50353 1.84800
V 	V 	0.88494 0.20234 0.49904 1.84800
V 	V 	0.08710 0.56644 0.37736 1.72400
V 	V 	0.16612 0.20691 0.49647 1.84500
V 	V 	0.58632 0.79766 0.50096 1.83400
V 	V 	0.03090 0.43356 0.62264 1.72700
Ni	Ni	0.95433 0.33243 0.00227 1.14200
Ni	Ni	0.62662 0.22877 0.76867 1.12500
Ni	Ni	0.28903 0.66757 0.99773 1.12800
Ni	Ni	0.62406 0.77123 0.23133 1.12500
Ni	Ni	0.95660 0.99773 0.33243 1.14100
Ni	Ni	0.39529 0.23133 0.22877 1.12500
Ni	Ni	0.28676 0.00227 0.66757 1.12500
Ni	Ni	0.85539 0.76867 0.77123 1.12700
H 	H 	0.66710 0.44480 0.99060 0.00600
H 	H 	0.56520 0.39950 0.91410 0.01900
H 	H 	0.89740 0.16010 0.76830 0.04900
H 	H 	0.07570 0.32000 0.30720 -0.06900
H 	H 	0.93890 0.34800 0.22340 0.07700
H 	H 	0.23990 0.28660 0.94580 0.01000
H 	H 	0.10250 0.55520 0.00940 0.03500
H 	H 	0.87880 0.60050 0.08590 -0.01600
H 	H 	0.82580 0.83990 0.23170 -0.01100
H 	H 	0.70290 0.68000 0.69280 -0.02800
H 	H 	0.51030 0.65200 0.77660 -0.00700
H 	H 	0.47230 0.71340 0.05420 0.00800
H 	H 	0.65770 0.00940 0.44480 0.00300
H 	H 	0.47930 0.08590 0.39950 0.01700
H 	H 	0.66570 0.23170 0.16010 0.01600
H 	H 	0.38290 0.69280 0.32000 -0.03300
H 	H 	0.16230 0.77660 0.34800 -0.02600
H 	H 	0.18570 0.05420 0.28660 -0.00300
H 	H 	0.11190 0.99060 0.55520 -0.04300
H 	H 	0.96470 0.91410 0.60050 0.14200
H 	H 	0.05750 0.76830 0.83990 0.02900
H 	H 	0.39570 0.30720 0.68000 -0.03400
H 	H 	0.28690 0.22340 0.65200 -0.00900
H 	H 	0.52650 0.94580 0.71340 0.02400
C 	C 	0.71520 0.38500 0.94640 -0.00700
C 	C 	0.65430 0.35800 0.89980 -0.00700
C 	C 	0.84750 0.21810 0.81490 0.01500
C 	C 	0.90690 0.24530 0.86190 -0.00000
C 	C 	0.05410 0.18280 0.84060 0.26900
C 	C 	0.11120 0.31270 0.23330 0.04900
C 	C 	0.02910 0.32930 0.18230 -0.13300
C 	C 	0.20480 0.29300 0.01980 0.04700
C 	C 	0.28970 0.27490 0.07010 -0.07200
C 	C 	0.43420 0.24120 0.01140 0.33600
C 	C 	0.04660 0.61500 0.05360 -0.13500
C 	C 	0.91210 0.64200 0.10020 0.11400
C 	C 	0.88050 0.78190 0.18510 0.14400
C 	C 	0.01410 0.75470 0.13810 -0.16200
C 	C 	0.07750 0.81720 0.15940 0.29100
C 	C 	0.65720 0.68730 0.76670 -0.01000
C 	C 	0.54070 0.67070 0.81770 0.01200
C 	C 	0.51760 0.70700 0.98020 0.06500
C 	C 	0.63470 0.72510 0.92990 -0.08000
C 	C 	0.68680 0.75880 0.98860 0.35100
C 	C 	0.66160 0.05360 0.38500 -0.01300
C 	C 	0.55410 0.10020 0.35800 -0.00700
C 	C 	0.66240 0.18510 0.21810 0.04400
C 	C 	0.76880 0.13810 0.24530 -0.07900
C 	C 	0.89470 0.15940 0.18280 0.34000
C 	C 	0.34450 0.76670 0.31270 -0.01600
C 	C 	0.21140 0.81770 0.32930 0.01100
C 	C 	0.22460 0.98020 0.29300 0.06700
C 	C 	0.35980 0.92990 0.27490 -0.08400
C 	C 	0.44560 0.98860 0.24120 0.35000
C 	C 	0.10020 0.94640 0.61500 0.09300
C 	C 	0.01230 0.89980 0.64200 -0.24900
C 	C 	0.06560 0.81490 0.78190 -0.05600
C 	C 	0.15220 0.86190 0.75470 -0.04800
C 	C 	0.23690 0.84060 0.81720 0.32700
C 	C 	0.42390 0.23330 0.68730 -0.01100
C 	C 	0.35840 0.18230 0.67070 0.00900
C 	C 	0.49780 0.01980 0.70700 0.04000
C 	C 	0.56460 0.07010 0.72510 -0.07100
C 	C 	0.67540 0.01140 0.75880 0.33100
N 	N 	0.84400 0.32590 0.92870 -0.19700
N 	N 	0.71980 0.27300 0.83420 -0.19700
N 	N 	0.23980 0.28660 0.17680 -0.20400
N 	N 	0.07490 0.31920 0.07600 -0.20000
N 	N 	0.09860 0.67410 0.07130 -0.16500
N 	N 	0.82700 0.72700 0.16580 -0.23700
N 	N 	0.70320 0.71340 0.82320 -0.18900
N 	N 	0.47010 0.68080 0.92400 -0.20700
N 	N 	0.77270 0.07130 0.32590 -0.19500
N 	N 	0.55400 0.16580 0.27300 -0.20600
N 	N 	0.41660 0.82320 0.28660 -0.19000
N 	N 	0.15090 0.92400 0.31920 -0.22700
N 	N 	0.16990 0.92870 0.67410 -0.22100
N 	N 	0.99280 0.83420 0.72700 -0.09800
N 	N 	0.52640 0.17680 0.71340 -0.19300
N 	N 	0.39410 0.07600 0.68080 -0.20300
O 	O 	0.09780 0.21150 0.89170 -0.40400
O 	O 	0.11640 0.10950 0.77290 -0.40500
O 	O 	0.50450 0.21570 0.06470 -0.37600
O 	O 	0.47220 0.24230 0.91130 -0.40500
O 	O 	0.79800 0.46130 0.09850 -0.67200
O 	O 	0.51150 0.38800 0.74560 -0.72400
O 	O 	0.67540 0.39660 0.30040 -0.88200
O 	O 	0.52170 0.52890 0.18330 -0.81400
O 	O 	0.99920 0.44810 0.89970 -0.66500
O 	O 	0.78310 0.21480 0.62660 -0.72700
O 	O 	0.13630 0.43240 0.67660 -0.89100
O 	O 	0.20100 0.78850 0.10830 -0.38700
O 	O 	0.99880 0.89050 0.22710 -0.34700
O 	O 	0.78490 0.78430 0.93530 -0.36500
O 	O 	0.62580 0.75770 0.08870 -0.41300
O 	O 	0.35780 0.53870 0.90150 -0.67700
O 	O 	0.64510 0.61200 0.25440 -0.72300
O 	O 	0.37240 0.60340 0.69960 -0.88500
O 	O 	0.23390 0.47110 0.81670 -0.82700
O 	O 	0.34700 0.55190 0.10030 -0.71900
O 	O 	0.62450 0.78520 0.37340 -0.73500
O 	O 	0.24530 0.56760 0.32340 -0.88100
O 	O 	0.98950 0.10830 0.21150 -0.36500
O 	O 	0.88930 0.22710 0.10950 -0.39100
O 	O 	0.56920 0.93530 0.21570 -0.37600
O 	O 	0.38350 0.08870 0.24230 -0.41300
O 	O 	0.89650 0.90150 0.46130 -0.66500
O 	O 	0.25710 0.25440 0.38800 -0.72700
O 	O 	0.97580 0.69960 0.39660 -0.84200
O 	O 	0.70500 0.81670 0.52890 -0.81000
O 	O 	0.89890 0.10030 0.44810 -0.70100
O 	O 	0.40970 0.37340 0.21480 -0.74000
O 	O 	0.81290 0.32340 0.43240 -0.85700
O 	O 	0.30930 0.89170 0.78850 -0.38900
O 	O 	0.22590 0.77290 0.89050 -0.40500
O 	O 	0.72020 0.06470 0.78430 -0.36500
O 	O 	0.71450 0.91130 0.75770 -0.39800
O 	O 	0.25930 0.09850 0.53870 -0.68000
O 	O 	0.89950 0.74560 0.61200 -0.70800
O 	O 	0.07200 0.30040 0.60340 -0.90100
O 	O 	0.05060 0.18330 0.47110 -0.84400
O 	O 	0.44730 0.89970 0.55190 -0.71400
O 	O 	0.99790 0.62660 0.78520 -0.69300
O 	O 	0.56870 0.67660 0.56760 -0.86900
O 	O 	0.54960 0.50000 0.50000 -0.97800
O 	O 	0.04960 0.50000 0.50000 -1.00300
