data_crystal

_cell_length_a 11.04600
_cell_length_b 11.10460
_cell_length_c 11.10460
_cell_angle_alpha 106.76600
_cell_angle_beta  117.98100
_cell_angle_gamma 62.01890

_symmetry_space_group_name_	'P 1'
_symmetry_space_group_name_H-M	'P 1'

loop_
_symmetry_equiv_pos_as_xyz
  x,y,z

loop_
_atom_site_label
_atom_site_type_symbol
_atom_site_fract_x
_atom_site_fract_y
_atom_site_fract_z
_atom_site_charge
Ni	Ni	0.55148 0.79697 0.65551 1.10600
Ni	Ni	0.94852 0.65551 0.79697 1.10600
Ni	Ni	0.05148 0.34449 0.20303 1.10600
Ni	Ni	0.44852 0.20303 0.34449 1.10600
H 	H 	0.59880 0.40080 0.49260 0.01800
H 	H 	0.28090 0.96700 0.42640 0.02300
H 	H 	0.09880 0.50740 0.59920 0.02000
H 	H 	0.08770 0.94530 0.22630 0.05300
H 	H 	0.23100 0.19000 0.10460 0.42600
H 	H 	0.76900 0.81000 0.89540 0.42600
H 	H 	0.26900 0.10460 0.19000 0.42700
H 	H 	0.78090 0.57360 0.03300 0.02600
H 	H 	0.41230 0.22630 0.94530 0.05300
H 	H 	0.71910 0.03300 0.57360 0.02400
H 	H 	0.21910 0.42640 0.96700 0.02600
H 	H 	0.73100 0.89540 0.81000 0.42700
H 	H 	0.91230 0.05470 0.77370 0.05300
H 	H 	0.58770 0.77370 0.05470 0.05300
H 	H 	0.40120 0.59920 0.50740 0.01900
H 	H 	0.90120 0.49260 0.40080 0.02000
C 	C 	0.23269 0.64257 0.32369 -0.09600
C 	C 	0.84751 0.12789 0.71971 -0.07300
C 	C 	0.34751 0.28029 0.87211 -0.07100
C 	C 	0.01581 0.73601 0.09843 0.32000
C 	C 	0.16043 0.44802 0.66818 0.06400
C 	C 	0.73269 0.67631 0.35743 -0.09500
C 	C 	0.73350 0.71247 0.49969 0.37800
C 	C 	0.26709 0.88563 0.40237 0.05800
C 	C 	0.63442 0.76156 0.25134 -0.00300
C 	C 	0.23350 0.50031 0.28753 0.37800
C 	C 	0.26650 0.28753 0.50031 0.37800
C 	C 	0.13442 0.74866 0.23844 -0.00100
C 	C 	0.76650 0.49969 0.71247 0.37800
C 	C 	0.76709 0.59763 0.11437 0.05700
C 	C 	0.73291 0.11437 0.59763 0.05800
C 	C 	0.51581 0.90157 0.26399 0.32600
C 	C 	0.86558 0.25134 0.76156 -0.00100
C 	C 	0.26731 0.32369 0.64257 -0.09500
C 	C 	0.15249 0.87211 0.28029 -0.07300
C 	C 	0.83957 0.55198 0.33182 0.06400
C 	C 	0.65249 0.71971 0.12789 -0.07100
C 	C 	0.36558 0.23844 0.74866 -0.00300
C 	C 	0.23291 0.40237 0.88563 0.05700
C 	C 	0.48419 0.09843 0.73601 0.32600
C 	C 	0.66043 0.33182 0.55198 0.06500
C 	C 	0.33957 0.66818 0.44802 0.06500
C 	C 	0.98419 0.26399 0.90157 0.32000
C 	C 	0.76731 0.35743 0.67631 -0.09600
N 	N 	0.35903 0.78583 0.48741 -0.21400
N 	N 	0.64097 0.21417 0.51259 -0.21400
N 	N 	0.85903 0.51259 0.21417 -0.21300
N 	N 	0.14097 0.48741 0.78583 -0.21300
O 	O 	0.06370 0.67353 0.00513 -0.39900
O 	O 	0.11759 0.20418 0.91646 -0.30300
O 	O 	0.35404 0.40921 0.35309 -0.43600
O 	O 	0.38260 0.19768 0.48598 -0.40000
O 	O 	0.61759 0.08354 0.79582 -0.31000
O 	O 	0.14596 0.35309 0.40921 -0.43600
O 	O 	0.93630 0.32647 0.99487 -0.39900
O 	O 	0.43630 0.00513 0.67353 -0.39800
O 	O 	0.38241 0.91646 0.20418 -0.31000
O 	O 	0.25000 0.18498 0.18498 -1.05600
O 	O 	0.61740 0.80232 0.51402 -0.40000
O 	O 	0.85404 0.64691 0.59079 -0.43600
O 	O 	0.64596 0.59079 0.64691 -0.43600
O 	O 	0.88260 0.51402 0.80232 -0.40100
O 	O 	0.88241 0.79582 0.08354 -0.30300
O 	O 	0.75000 0.81502 0.81502 -1.05600
O 	O 	0.11740 0.48598 0.19768 -0.40100
O 	O 	0.56370 0.99487 0.32647 -0.39800
