data_crystal

_cell_length_a 10.81400
_cell_length_b 11.52300
_cell_length_c 12.61590
_cell_angle_alpha 110.51700
_cell_angle_beta  115.37800
_cell_angle_gamma 90.00000

_symmetry_space_group_name_	'P 1'
_symmetry_space_group_name_H-M	'P 1'

loop_
_symmetry_equiv_pos_as_xyz
  x,y,z

loop_
_atom_site_label
_atom_site_type_symbol
_atom_site_fract_x
_atom_site_fract_y
_atom_site_fract_z
_atom_site_charge
Ni	Ni	0.90294 0.06273 0.64344 1.08900
Ni	Ni	0.74050 0.56273 0.64344 1.09300
Ni	Ni	0.25950 0.43727 0.35656 1.09200
Ni	Ni	0.09706 0.93727 0.35656 1.08800
H 	H 	0.59680 0.78570 0.21020 0.11300
H 	H 	0.96070 0.67460 0.13520 -0.00700
H 	H 	0.26890 0.18830 0.43140 0.01400
H 	H 	0.21330 0.43250 0.57560 0.02100
H 	H 	0.36230 0.93250 0.57560 0.01800
H 	H 	0.38150 0.91260 0.93300 0.07600
H 	H 	0.73180 0.96760 0.97300 0.11900
H 	H 	0.82550 0.82540 0.86480 -0.00700
H 	H 	0.61850 0.08740 0.06700 0.07600
H 	H 	0.83750 0.31170 0.56860 0.01300
H 	H 	0.80440 0.91750 0.31800 -0.00800
H 	H 	0.63770 0.06750 0.42440 0.01800
H 	H 	0.16250 0.68830 0.43140 0.01300
H 	H 	0.41400 0.95950 0.28860 0.05600
H 	H 	0.40320 0.21430 0.78980 0.11300
H 	H 	0.12540 0.54050 0.71140 0.05600
H 	H 	0.38660 0.71430 0.78980 0.11300
H 	H 	0.55150 0.41260 0.93300 0.07700
H 	H 	0.78670 0.56750 0.42440 0.02100
H 	H 	0.51360 0.41750 0.31800 -0.01000
H 	H 	0.87460 0.45950 0.28860 0.05600
H 	H 	0.17450 0.17460 0.13520 -0.00700
H 	H 	0.26820 0.03240 0.02700 0.11900
H 	H 	0.75880 0.53240 0.02700 0.11700
H 	H 	0.58600 0.04050 0.71140 0.05600
H 	H 	0.61340 0.28570 0.21020 0.11300
H 	H 	0.44850 0.58740 0.06700 0.07700
H 	H 	0.73110 0.81170 0.56860 0.01400
H 	H 	0.24120 0.46760 0.97300 0.11700
H 	H 	0.19560 0.08250 0.68200 -0.00800
H 	H 	0.03930 0.32540 0.86480 -0.00700
H 	H 	0.48640 0.58250 0.68200 -0.01000
C 	C 	0.84686 0.34221 0.51272 0.06400
C 	C 	0.32102 0.11120 0.08564 -0.20800
C 	C 	0.02067 0.75066 0.73642 0.32100
C 	C 	0.47304 0.94300 0.95672 -0.09800
C 	C 	0.23538 0.38880 0.91436 -0.20700
C 	C 	0.18312 0.50734 0.57218 0.05300
C 	C 	0.34891 0.35840 0.89358 0.15600
C 	C 	0.50038 0.64869 0.44294 0.40900
C 	C 	0.97933 0.24934 0.26358 0.32100
C 	C 	0.52341 0.25900 0.19348 -0.20800
C 	C 	0.66586 0.84221 0.51272 0.06500
C 	C 	0.65109 0.64160 0.10642 0.15600
C 	C 	0.32993 0.24100 0.80652 -0.20700
C 	C 	0.26538 0.19751 0.15182 0.11600
C 	C 	0.46794 0.22859 0.56590 -0.11300
C 	C 	0.53206 0.77141 0.43410 -0.11300
C 	C 	0.54467 0.85840 0.89358 0.15700
C 	C 	0.38906 0.00734 0.57218 0.05800
C 	C 	0.90204 0.27141 0.43410 -0.11100
C 	C 	0.71575 0.25066 0.73642 0.32500
C 	C 	0.15314 0.65779 0.48728 0.06400
C 	C 	0.47659 0.74100 0.80652 -0.20800
C 	C 	0.09796 0.72859 0.56590 -0.11100
C 	C 	0.49962 0.35131 0.55706 0.40900
C 	C 	0.28425 0.74934 0.26358 0.32500
C 	C 	0.94256 0.14869 0.44294 0.40000
C 	C 	0.12992 0.57165 0.65412 -0.08300
C 	C 	0.52696 0.05700 0.04328 -0.09800
C 	C 	0.87008 0.42835 0.34588 -0.08300
C 	C 	0.79556 0.83900 0.25732 0.12400
C 	C 	0.67898 0.88880 0.91436 -0.20800
C 	C 	0.43343 0.81645 0.35008 -0.01500
C 	C 	0.11356 0.30249 0.84818 0.11600
C 	C 	0.91665 0.31645 0.35008 -0.01600
C 	C 	0.56657 0.18355 0.64992 -0.01500
C 	C 	0.76462 0.61120 0.08564 -0.20700
C 	C 	0.33414 0.15779 0.48728 0.06500
C 	C 	0.46176 0.33900 0.25732 0.12500
C 	C 	0.20444 0.16100 0.74268 0.12400
C 	C 	0.52420 0.07165 0.65412 -0.08600
C 	C 	0.47580 0.92835 0.34588 -0.08600
C 	C 	0.81688 0.49266 0.42782 0.05300
C 	C 	0.48368 0.44300 0.95672 -0.09800
C 	C 	0.45533 0.14160 0.10642 0.15700
C 	C 	0.73462 0.80249 0.84818 0.11600
C 	C 	0.51632 0.55700 0.04328 -0.09800
C 	C 	0.05744 0.85131 0.55706 0.40000
C 	C 	0.88644 0.69751 0.15182 0.11600
C 	C 	0.08335 0.68355 0.64992 -0.01600
C 	C 	0.53824 0.66100 0.74268 0.12500
C 	C 	0.61094 0.99266 0.42782 0.05800
C 	C 	0.67007 0.75900 0.19348 -0.20700
N 	N 	0.70500 0.95185 0.51182 -0.21600
N 	N 	0.09571 0.18837 0.76188 -0.24300
N 	N 	0.33383 0.31163 0.23812 -0.24600
N 	N 	0.90429 0.81163 0.23812 -0.24300
N 	N 	0.19318 0.54815 0.48818 -0.21600
N 	N 	0.80682 0.45185 0.51182 -0.21600
N 	N 	0.66617 0.68837 0.76188 -0.24600
N 	N 	0.29500 0.04815 0.48818 -0.21600
O 	O 	0.37473 0.59928 0.38998 -0.42900
O 	O 	0.89523 0.71291 0.69994 -0.39600
O 	O 	0.39772 0.39579 0.50244 -0.43700
O 	O 	0.98475 0.90072 0.61002 -0.42100
O 	O 	0.01525 0.09928 0.38998 -0.42100
O 	O 	0.60228 0.60421 0.49756 -0.43700
O 	O 	0.74047 0.33683 0.84020 -0.26900
O 	O 	0.62527 0.40072 0.61002 -0.42900
O 	O 	0.09973 0.83683 0.84020 -0.26900
O 	O 	0.19529 0.78709 0.30006 -0.40100
O 	O 	0.25953 0.66317 0.15980 -0.26900
O 	O 	0.10472 0.89579 0.50244 -0.43800
O 	O 	0.89528 0.10421 0.49756 -0.43800
O 	O 	0.10477 0.28709 0.30006 -0.39600
O 	O 	0.80471 0.21291 0.69994 -0.40100
O 	O 	0.90027 0.16317 0.15980 -0.26900
