data_crystal

_cell_length_a 7.75650
_cell_length_b 9.56430
_cell_length_c 15.18950
_cell_angle_alpha 96.78100
_cell_angle_beta  94.86800
_cell_angle_gamma 110.50900

_symmetry_space_group_name_	'P 1'
_symmetry_space_group_name_H-M	'P 1'

loop_
_symmetry_equiv_pos_as_xyz
  x,y,z

loop_
_atom_site_label
_atom_site_type_symbol
_atom_site_fract_x
_atom_site_fract_y
_atom_site_fract_z
_atom_site_charge
Mn	Mn	0.29379 0.87735 0.58373 1.25000
Mn	Mn	0.70621 0.12265 0.41627 1.25000
H 	H 	0.89460 0.65090 0.92670 0.03600
H 	H 	0.70020 0.87250 0.79210 0.05400
H 	H 	0.60570 0.46890 0.57830 0.01700
H 	H 	0.64840 0.23770 0.97570 0.05300
H 	H 	0.32330 0.93670 0.10970 0.05500
H 	H 	0.67670 0.06330 0.89030 0.05500
H 	H 	0.62710 0.42980 0.07420 0.04800
H 	H 	0.81980 0.22100 0.22090 0.02700
H 	H 	0.83770 0.84130 0.01150 0.08000
H 	H 	0.98930 0.28280 0.76490 0.07200
H 	H 	0.44950 0.77110 0.21980 0.00900
H 	H 	0.55050 0.22890 0.78020 0.00900
H 	H 	0.89210 0.07370 0.09650 0.03200
H 	H 	0.10540 0.34910 0.07330 0.03700
H 	H 	0.39430 0.53110 0.42170 0.01700
H 	H 	0.05460 0.51970 0.14940 0.04000
H 	H 	0.85830 0.86210 0.30640 -0.02900
H 	H 	0.46980 0.57080 0.12690 0.08300
H 	H 	0.10790 0.92630 0.90350 0.03200
H 	H 	0.35160 0.76230 0.02430 0.05300
H 	H 	0.14170 0.13790 0.69360 -0.02900
H 	H 	0.16230 0.15870 0.98850 0.08000
H 	H 	0.37290 0.57020 0.92580 0.04800
H 	H 	0.29980 0.12750 0.20790 0.05500
H 	H 	0.53020 0.42920 0.87310 0.08300
H 	H 	0.01070 0.71720 0.23510 0.07200
H 	H 	0.94540 0.48030 0.85060 0.04000
H 	H 	0.18020 0.77900 0.77910 0.02700
C 	C 	0.48990 0.06200 0.03140 0.01600
C 	C 	0.98350 0.56250 0.02790 -0.00800
C 	C 	0.41310 0.54070 0.36270 0.07600
C 	C 	0.88430 0.77800 0.03950 -0.12200
C 	C 	0.39440 0.79870 0.39300 0.39700
C 	C 	0.01650 0.43750 0.97210 -0.00800
C 	C 	0.58690 0.45930 0.63730 0.07600
C 	C 	0.98580 0.70340 0.17300 -0.11300
C 	C 	0.16410 0.87060 0.77740 -0.00000
C 	C 	0.42090 0.78570 0.97740 -0.06300
C 	C 	0.85670 0.93300 0.26970 0.10500
C 	C 	0.98610 0.41430 0.87910 -0.02500
C 	C 	0.12370 0.95150 0.84670 0.00100
C 	C 	0.01390 0.58570 0.12090 -0.02500
C 	C 	0.37190 0.15110 0.16200 -0.04000
C 	C 	0.92030 0.79960 0.13150 0.11300
C 	C 	0.41740 0.67300 0.33110 -0.16700
C 	C 	0.57910 0.21430 0.02260 -0.06300
C 	C 	0.14330 0.06700 0.73030 0.10500
C 	C 	0.62810 0.84890 0.83800 -0.04000
C 	C 	0.07970 0.20040 0.86850 0.11300
C 	C 	0.87630 0.04850 0.15330 0.00100
C 	C 	0.11570 0.22200 0.96050 -0.12200
C 	C 	0.51010 0.93800 0.96860 0.01600
C 	C 	0.56400 0.57650 0.69140 -0.14200
C 	C 	0.54240 0.43680 0.81330 -0.15000
C 	C 	0.91720 0.66250 0.98870 -0.02000
C 	C 	0.56630 0.33050 0.08230 -0.04200
C 	C 	0.54480 0.70310 0.64370 0.36200
C 	C 	0.08280 0.33750 0.01130 -0.02000
C 	C 	0.44260 0.68320 0.24220 0.07300
C 	C 	0.60560 0.20130 0.60700 0.39700
C 	C 	0.45520 0.29690 0.35630 0.36200
C 	C 	0.53460 0.69660 0.84600 -0.01000
C 	C 	0.58260 0.32700 0.66890 -0.16700
C 	C 	0.01420 0.29660 0.82700 -0.11300
C 	C 	0.54500 0.56850 0.78170 0.08800
C 	C 	0.55740 0.31680 0.75780 0.07300
C 	C 	0.45500 0.43150 0.21830 0.08800
C 	C 	0.61390 0.96390 0.89780 -0.06200
C 	C 	0.43370 0.66950 0.91770 -0.04200
C 	C 	0.38610 0.03610 0.10220 -0.06200
C 	C 	0.46540 0.30340 0.15400 -0.01000
C 	C 	0.83590 0.12940 0.22260 -0.00000
C 	C 	0.43600 0.42350 0.30860 -0.14200
C 	C 	0.45760 0.56320 0.18670 -0.15000
N 	N 	0.11070 0.07890 0.81630 -0.14100
N 	N 	0.82230 0.05620 0.29610 -0.25000
N 	N 	0.17770 0.94380 0.70390 -0.25000
N 	N 	0.88930 0.92110 0.18370 -0.14100
O 	O 	0.39440 0.72750 0.64896 -0.42800
O 	O 	0.67250 0.76750 0.60200 -0.31700
O 	O 	0.32750 0.23250 0.39800 -0.31700
O 	O 	0.31900 0.76070 0.46082 -0.48100
O 	O 	0.68100 0.23930 0.53918 -0.48100
O 	O 	0.45140 0.93020 0.37469 -0.47800
O 	O 	0.54860 0.06980 0.62531 -0.47800
O 	O 	0.60560 0.27250 0.35104 -0.42800
