data_crystal

_cell_length_a 28.13000
_cell_length_b 14.76700
_cell_length_c 20.83800
_cell_angle_alpha 90.00000
_cell_angle_beta  99.78000
_cell_angle_gamma 90.00000

_symmetry_space_group_name_	'P 1'
_symmetry_space_group_name_H-M	'P 1'

loop_
_symmetry_equiv_pos_as_xyz
  x,y,z

loop_
_atom_site_label
_atom_site_type_symbol
_atom_site_fract_x
_atom_site_fract_y
_atom_site_fract_z
_atom_site_charge
C 	C 	0.53660 0.58900 0.67290 0.29800
O 	O 	0.49530 0.54200 0.68610 -0.21700
O 	O 	0.56540 0.55100 0.65060 -0.20800
C 	C 	0.53530 0.68490 0.68750 -0.04600
O 	O 	0.49280 0.71350 0.71640 -0.15300
C 	C 	0.53200 0.74310 0.62730 -0.01700
O 	O 	0.49580 0.71260 0.57700 -0.15600
C 	C 	0.52880 0.84290 0.64140 0.32900
O 	O 	0.49070 0.87910 0.60940 -0.28100
O 	O 	0.55750 0.87870 0.68110 -0.30600
C 	C 	0.47320 0.34530 0.85870 0.34600
O 	O 	0.51000 0.38170 0.89000 -0.30800
O 	O 	0.44320 0.37890 0.81800 -0.32600
C 	C 	0.46760 0.24710 0.87470 -0.04400
O 	O 	0.50630 0.21560 0.92330 -0.15000
C 	C 	0.46560 0.18560 0.81430 -0.01100
O 	O 	0.50710 0.21100 0.78430 -0.16800
C 	C 	0.46830 0.08730 0.83100 0.27900
O 	O 	0.50620 0.04390 0.81580 -0.23900
O 	O 	0.43770 0.05060 0.85860 -0.19500
Ag	Ag	0.55150 0.03600 0.67040 0.49900
Ag	Ag	0.45110 0.53540 0.83010 0.52200
C 	C 	0.37080 0.72760 0.70070 0.30100
O 	O 	0.40810 0.71950 0.74410 -0.25100
O 	O 	0.33680 0.77870 0.70370 -0.19800
C 	C 	0.37230 0.66930 0.64200 -0.01600
O 	O 	0.41170 0.61420 0.64910 -0.16300
C 	C 	0.37140 0.72830 0.58450 -0.00800
O 	O 	0.40810 0.79400 0.59530 -0.16600
C 	C 	0.37670 0.67390 0.52140 0.31300
O 	O 	0.34620 0.61650 0.50010 -0.20400
O 	O 	0.41330 0.69140 0.49850 -0.24100
C 	C 	0.62470 0.18000 0.97550 0.29500
O 	O 	0.58650 0.19750 0.00060 -0.23100
O 	O 	0.65460 0.12290 0.99690 -0.21400
C 	C 	0.63030 0.23650 0.91730 -0.01600
O 	O 	0.59350 0.29930 0.90240 -0.16600
C 	C 	0.62860 0.17320 0.85730 -0.01800
O 	O 	0.58910 0.11580 0.85150 -0.16700
C 	C 	0.63160 0.22580 0.79820 0.28400
O 	O 	0.59290 0.22410 0.75520 -0.24500
O 	O 	0.66680 0.27310 0.79210 -0.20500
As	As	0.45170 0.79740 0.54150 0.37100
As	As	0.45140 0.62140 0.72680 0.29100
As	As	0.55000 0.30190 0.95810 0.36300
As	As	0.54860 0.12140 0.77450 0.28400
H 	H 	0.56470 0.70100 0.71770 0.07900
H 	H 	0.56260 0.73470 0.61140 0.07400
H 	H 	0.43730 0.23990 0.89160 0.07900
H 	H 	0.43580 0.19770 0.78370 0.06300
H 	H 	0.34330 0.63120 0.63490 0.06500
H 	H 	0.34020 0.75970 0.57650 0.07100
H 	H 	0.66140 0.26800 0.92570 0.06700
H 	H 	0.65750 0.13500 0.86580 0.06100
C 	C 	0.46340 0.58900 0.32710 0.29900
O 	O 	0.50470 0.54200 0.31390 -0.21600
O 	O 	0.43460 0.55100 0.34940 -0.20800
C 	C 	0.46470 0.68490 0.31250 -0.04600
O 	O 	0.50720 0.71350 0.28360 -0.15300
C 	C 	0.46800 0.74310 0.37270 -0.01700
O 	O 	0.50420 0.71260 0.42300 -0.15600
C 	C 	0.47120 0.84290 0.35860 0.32900
O 	O 	0.50930 0.87910 0.39060 -0.28100
O 	O 	0.44250 0.87870 0.31890 -0.30600
C 	C 	0.52680 0.34530 0.14130 0.34600
O 	O 	0.49000 0.38170 0.11000 -0.30800
O 	O 	0.55680 0.37890 0.18200 -0.32600
C 	C 	0.53240 0.24710 0.12530 -0.04400
O 	O 	0.49370 0.21560 0.07670 -0.15000
C 	C 	0.53440 0.18560 0.18570 -0.01100
O 	O 	0.49290 0.21100 0.21570 -0.16800
C 	C 	0.53170 0.08730 0.16900 0.27900
O 	O 	0.49380 0.04390 0.18420 -0.23900
O 	O 	0.56230 0.05060 0.14140 -0.19500
Ag	Ag	0.44850 0.03600 0.32960 0.49900
Ag	Ag	0.54890 0.53540 0.16990 0.52200
C 	C 	0.62920 0.72760 0.29930 0.30100
O 	O 	0.59190 0.71950 0.25590 -0.25100
O 	O 	0.66320 0.77870 0.29630 -0.19800
C 	C 	0.62770 0.66930 0.35800 -0.01600
O 	O 	0.58830 0.61420 0.35090 -0.16300
C 	C 	0.62860 0.72830 0.41550 -0.00800
O 	O 	0.59190 0.79400 0.40470 -0.16600
C 	C 	0.62330 0.67390 0.47860 0.31300
O 	O 	0.65380 0.61650 0.49990 -0.20400
O 	O 	0.58670 0.69140 0.50150 -0.24100
C 	C 	0.37530 0.18000 0.02450 0.29500
O 	O 	0.41350 0.19750 0.99940 -0.23100
O 	O 	0.34540 0.12290 0.00310 -0.21400
C 	C 	0.36970 0.23650 0.08270 -0.01600
O 	O 	0.40650 0.29930 0.09760 -0.16600
C 	C 	0.37140 0.17320 0.14270 -0.01800
O 	O 	0.41090 0.11580 0.14850 -0.16700
C 	C 	0.36840 0.22580 0.20180 0.28400
O 	O 	0.40710 0.22410 0.24480 -0.24500
O 	O 	0.33320 0.27310 0.20790 -0.20500
As	As	0.54830 0.79740 0.45850 0.37100
As	As	0.54860 0.62140 0.27320 0.29100
As	As	0.45000 0.30190 0.04190 0.36300
As	As	0.45140 0.12140 0.22550 0.28400
H 	H 	0.43530 0.70100 0.28230 0.07900
H 	H 	0.43740 0.73470 0.38860 0.07400
H 	H 	0.56270 0.23990 0.10840 0.07900
H 	H 	0.56420 0.19770 0.21630 0.06300
H 	H 	0.65670 0.63120 0.36510 0.06500
H 	H 	0.65980 0.75970 0.42350 0.07100
H 	H 	0.33860 0.26800 0.07430 0.06700
H 	H 	0.34250 0.13500 0.13420 0.06100
C 	C 	0.03660 0.08900 0.67290 0.29800
O 	O 	0.99530 0.04200 0.68610 -0.22600
O 	O 	0.06540 0.05100 0.65060 -0.22000
C 	C 	0.03530 0.18490 0.68750 -0.04500
O 	O 	0.99280 0.21350 0.71640 -0.15800
C 	C 	0.03200 0.24310 0.62730 -0.02000
O 	O 	0.99580 0.21260 0.57700 -0.15600
C 	C 	0.02880 0.34290 0.64140 0.33300
O 	O 	0.99070 0.37910 0.60940 -0.29400
O 	O 	0.05750 0.37870 0.68110 -0.32700
C 	C 	0.97320 0.84530 0.85870 0.34300
O 	O 	0.01000 0.88170 0.89000 -0.29500
O 	O 	0.94320 0.87890 0.81800 -0.30500
C 	C 	0.96760 0.74710 0.87470 -0.04100
O 	O 	0.00630 0.71560 0.92330 -0.15000
C 	C 	0.96560 0.68560 0.81430 -0.01300
O 	O 	0.00710 0.71100 0.78430 -0.16300
C 	C 	0.96830 0.58730 0.83100 0.28000
O 	O 	0.00620 0.54390 0.81580 -0.22900
O 	O 	0.93770 0.55060 0.85860 -0.18400
Ag	Ag	0.05150 0.53600 0.67040 0.52100
Ag	Ag	0.95110 0.03540 0.83010 0.50000
C 	C 	0.87080 0.22760 0.70070 0.30000
O 	O 	0.90810 0.21950 0.74410 -0.26000
O 	O 	0.83680 0.27870 0.70370 -0.21200
C 	C 	0.87230 0.16930 0.64200 -0.01600
O 	O 	0.91170 0.11420 0.64910 -0.16700
C 	C 	0.87140 0.22830 0.58450 -0.00800
O 	O 	0.90810 0.29400 0.59530 -0.17100
C 	C 	0.87670 0.17390 0.52140 0.31200
O 	O 	0.84620 0.11650 0.50010 -0.21600
O 	O 	0.91330 0.19140 0.49850 -0.24400
C 	C 	0.12470 0.68000 0.97550 0.29700
O 	O 	0.08650 0.69750 0.00060 -0.22800
O 	O 	0.15460 0.62290 0.99690 -0.20300
C 	C 	0.13030 0.73650 0.91730 -0.01700
O 	O 	0.09350 0.79930 0.90240 -0.16100
C 	C 	0.12860 0.67320 0.85730 -0.01800
O 	O 	0.08910 0.61580 0.85150 -0.16300
C 	C 	0.13160 0.72580 0.79820 0.28400
O 	O 	0.09290 0.72410 0.75520 -0.23600
O 	O 	0.16680 0.77310 0.79210 -0.19200
As	As	0.95170 0.29740 0.54150 0.36500
As	As	0.95140 0.12140 0.72680 0.28200
As	As	0.05000 0.80190 0.95810 0.36900
As	As	0.04860 0.62140 0.77450 0.29300
H 	H 	0.06470 0.20100 0.71770 0.07200
H 	H 	0.06260 0.23470 0.61140 0.07200
H 	H 	0.93730 0.73990 0.89160 0.08100
H 	H 	0.93580 0.69770 0.78370 0.07000
H 	H 	0.84330 0.13120 0.63490 0.05900
H 	H 	0.84020 0.25970 0.57650 0.06500
H 	H 	0.16140 0.76800 0.92570 0.07400
H 	H 	0.15750 0.63500 0.86580 0.06700
C 	C 	0.96340 0.08900 0.32710 0.29800
O 	O 	0.00470 0.04200 0.31390 -0.22600
O 	O 	0.93460 0.05100 0.34940 -0.22000
C 	C 	0.96470 0.18490 0.31250 -0.04500
O 	O 	0.00720 0.21350 0.28360 -0.15800
C 	C 	0.96800 0.24310 0.37270 -0.02000
O 	O 	0.00420 0.21260 0.42300 -0.15600
C 	C 	0.97120 0.34290 0.35860 0.33300
O 	O 	0.00930 0.37910 0.39060 -0.29400
O 	O 	0.94250 0.37870 0.31890 -0.32700
C 	C 	0.02680 0.84530 0.14130 0.34300
O 	O 	0.99000 0.88170 0.11000 -0.29500
O 	O 	0.05680 0.87890 0.18200 -0.30500
C 	C 	0.03240 0.74710 0.12530 -0.04100
O 	O 	0.99370 0.71560 0.07670 -0.15000
C 	C 	0.03440 0.68560 0.18570 -0.01300
O 	O 	0.99290 0.71100 0.21570 -0.16300
C 	C 	0.03170 0.58730 0.16900 0.28000
O 	O 	0.99380 0.54390 0.18420 -0.22900
O 	O 	0.06230 0.55060 0.14140 -0.18400
Ag	Ag	0.94850 0.53600 0.32960 0.52100
Ag	Ag	0.04890 0.03540 0.16990 0.50000
C 	C 	0.12920 0.22760 0.29930 0.30000
O 	O 	0.09190 0.21950 0.25590 -0.26000
O 	O 	0.16320 0.27870 0.29630 -0.21200
C 	C 	0.12770 0.16930 0.35800 -0.01600
O 	O 	0.08830 0.11420 0.35090 -0.16700
C 	C 	0.12860 0.22830 0.41550 -0.00800
O 	O 	0.09190 0.29400 0.40470 -0.17100
C 	C 	0.12330 0.17390 0.47860 0.31200
O 	O 	0.15380 0.11650 0.49990 -0.21600
O 	O 	0.08670 0.19140 0.50150 -0.24400
C 	C 	0.87530 0.68000 0.02450 0.29700
O 	O 	0.91350 0.69750 0.99940 -0.22800
O 	O 	0.84540 0.62290 0.00310 -0.20300
C 	C 	0.86970 0.73650 0.08270 -0.01700
O 	O 	0.90650 0.79930 0.09760 -0.16100
C 	C 	0.87140 0.67320 0.14270 -0.01800
O 	O 	0.91090 0.61580 0.14850 -0.16300
C 	C 	0.86840 0.72580 0.20180 0.28400
O 	O 	0.90710 0.72410 0.24480 -0.23600
O 	O 	0.83320 0.77310 0.20790 -0.19200
As	As	0.04830 0.29740 0.45850 0.36500
As	As	0.04860 0.12140 0.27320 0.28200
As	As	0.95000 0.80190 0.04190 0.36900
As	As	0.95140 0.62140 0.22550 0.29300
H 	H 	0.93530 0.20100 0.28230 0.07200
H 	H 	0.93740 0.23470 0.38860 0.07200
H 	H 	0.06270 0.73990 0.10840 0.08100
H 	H 	0.06420 0.69770 0.21630 0.07000
H 	H 	0.15670 0.13120 0.36510 0.05900
H 	H 	0.15980 0.25970 0.42350 0.06500
H 	H 	0.83860 0.76800 0.07430 0.07400
H 	H 	0.84250 0.63500 0.13420 0.06700
