data_crystal

_cell_length_a 16.63240
_cell_length_b 6.32190
_cell_length_c 11.07250
_cell_angle_alpha 90.00000
_cell_angle_beta  94.36200
_cell_angle_gamma 90.00000

_symmetry_space_group_name_	'P 1'
_symmetry_space_group_name_H-M	'P 1'

loop_
_symmetry_equiv_pos_as_xyz
  x,y,z

loop_
_atom_site_label
_atom_site_type_symbol
_atom_site_fract_x
_atom_site_fract_y
_atom_site_fract_z
_atom_site_charge
P 	P 	0.55710 0.57110 0.66910 0.40500
O 	O 	0.63980 0.80640 0.40760 -0.61200
O 	O 	0.78590 0.30530 0.15020 -0.68400
O 	O 	0.55670 0.81910 0.67530 -0.07700
P 	P 	0.05710 0.07110 0.66910 -0.15000
O 	O 	0.13980 0.30640 0.40760 -0.67400
O 	O 	0.28590 0.80530 0.15020 -0.61200
O 	O 	0.05670 0.31910 0.67530 -0.00500
P 	P 	0.44290 0.57110 0.33090 0.40400
O 	O 	0.36020 0.80640 0.59240 -0.61300
O 	O 	0.21410 0.30530 0.84980 -0.68500
O 	O 	0.44330 0.81910 0.32470 -0.07800
P 	P 	0.94290 0.07110 0.33090 -0.15100
O 	O 	0.86020 0.30640 0.59240 -0.67500
O 	O 	0.71410 0.80530 0.84980 -0.61200
O 	O 	0.94330 0.31910 0.32470 -0.00500
P 	P 	0.44290 0.42890 0.33090 0.41500
O 	O 	0.36020 0.19360 0.59240 -0.69300
O 	O 	0.21410 0.69470 0.84980 -0.64500
O 	O 	0.44330 0.18090 0.32470 -0.16600
P 	P 	0.94290 0.92890 0.33090 1.08500
O 	O 	0.86020 0.69360 0.59240 -0.64300
O 	O 	0.71410 0.19470 0.84980 -0.69300
O 	O 	0.94330 0.68090 0.32470 -0.22100
P 	P 	0.55710 0.42890 0.66910 0.41500
O 	O 	0.63980 0.19360 0.40760 -0.69300
O 	O 	0.78590 0.69470 0.15020 -0.64500
O 	O 	0.55670 0.18090 0.67530 -0.16600
P 	P 	0.05710 0.92890 0.66910 1.08500
O 	O 	0.13980 0.69360 0.40760 -0.64300
O 	O 	0.28590 0.19470 0.15020 -0.69300
O 	O 	0.05670 0.68090 0.67530 -0.22100
Ti	Ti	0.64110 0.50000 0.39960 3.11900
Ti	Ti	0.71670 0.50000 0.85040 3.12500
P 	P 	0.73180 0.50000 0.13880 0.81400
F 	F 	0.82340 0.50000 0.91040 -0.73800
O 	O 	0.59380 0.50000 0.55640 -0.72400
O 	O 	0.47050 0.50000 0.67300 -0.65100
O 	O 	0.67190 0.50000 0.23760 -0.71600
O 	O 	0.68250 0.50000 0.01580 -0.64300
O 	O 	0.60400 0.50000 0.78560 -0.65000
Ti	Ti	0.14110 0.00000 0.39960 3.11500
Ti	Ti	0.21670 0.00000 0.85040 3.12100
P 	P 	0.23180 0.00000 0.13880 0.74200
F 	F 	0.32340 0.00000 0.91040 -0.79300
O 	O 	0.09380 0.00000 0.55640 -0.78900
O 	O 	0.97050 -0.00000 0.67300 -0.71300
O 	O 	0.17190 0.00000 0.23760 -0.74500
O 	O 	0.18250 0.00000 0.01580 -0.66900
O 	O 	0.10400 0.00000 0.78560 -0.71500
Ti	Ti	0.35890 0.50000 0.60040 3.11900
Ti	Ti	0.28330 0.50000 0.14960 3.12500
P 	P 	0.26820 0.50000 0.86120 0.81400
F 	F 	0.17660 0.50000 0.08960 -0.73800
O 	O 	0.40620 0.50000 0.44360 -0.72400
O 	O 	0.52950 0.50000 0.32700 -0.65100
O 	O 	0.32810 0.50000 0.76240 -0.71600
O 	O 	0.31750 0.50000 0.98420 -0.64300
O 	O 	0.39600 0.50000 0.21440 -0.65000
Ti	Ti	0.85890 -0.00000 0.60040 3.11500
Ti	Ti	0.78330 0.00000 0.14960 3.12100
P 	P 	0.76820 -0.00000 0.86120 0.74200
F 	F 	0.67660 0.00000 0.08960 -0.79300
O 	O 	0.90620 0.00000 0.44360 -0.78900
O 	O 	0.02950 0.00000 0.32700 -0.71300
O 	O 	0.82810 -0.00000 0.76240 -0.74500
O 	O 	0.81750 0.00000 0.98420 -0.66900
O 	O 	0.89600 0.00000 0.21440 -0.71500
P 	P 	0.69570 0.00000 0.41360 0.76200
O 	O 	0.74920 0.00000 0.53230 -0.78500
O 	O 	0.74940 0.00000 0.30930 -0.80700
P 	P 	0.19570 0.50000 0.41360 0.83400
O 	O 	0.24920 0.50000 0.53230 -0.74600
O 	O 	0.24940 0.50000 0.30930 -0.77500
P 	P 	0.30430 -0.00000 0.58640 0.76200
O 	O 	0.25080 -0.00000 0.46770 -0.78500
O 	O 	0.25060 0.00000 0.69070 -0.80700
P 	P 	0.80430 0.50000 0.58640 0.83400
O 	O 	0.75080 0.50000 0.46770 -0.74600
O 	O 	0.75060 0.50000 0.69070 -0.77500
