data_crystal

_cell_length_a 16.65490
_cell_length_b 6.33780
_cell_length_c 22.20800
_cell_angle_alpha 90.00000
_cell_angle_beta  94.86200
_cell_angle_gamma 90.00000

_symmetry_space_group_name_	'P 1'
_symmetry_space_group_name_H-M	'P 1'

loop_
_symmetry_equiv_pos_as_xyz
  x,y,z

loop_
_atom_site_label
_atom_site_type_symbol
_atom_site_fract_x
_atom_site_fract_y
_atom_site_fract_z
_atom_site_charge
Ti	Ti	0.28270 0.00700 0.57530 3.12500
Ti	Ti	0.35950 0.99780 0.80110 3.11400
P 	P 	0.23060 0.50160 0.56910 0.80400
P 	P 	0.44240 0.92760 0.66690 0.70000
P 	P 	0.19560 0.00070 0.70640 0.85400
F 	F 	0.17590 0.01580 0.54460 -0.75200
O 	O 	0.28760 0.31210 0.57720 -0.68100
O 	O 	0.24850 0.99830 0.65380 -0.80700
O 	O 	0.28260 0.70020 0.57250 -0.68200
O 	O 	0.18210 0.48980 0.50720 -0.64400
O 	O 	0.39480 0.99540 0.60800 -0.64100
O 	O 	0.40500 0.00600 0.72270 -0.68000
O 	O 	0.44070 0.68180 0.66380 -0.20600
O 	O 	0.52880 0.00620 0.66500 -0.62900
O 	O 	0.13960 0.80780 0.70350 -0.67500
O 	O 	0.14040 0.19550 0.70300 -0.71100
O 	O 	0.17160 0.50330 0.61860 -0.73200
O 	O 	0.25010 0.00190 0.76560 -0.74900
Ti	Ti	0.78270 0.50700 0.57530 3.12500
Ti	Ti	0.85950 0.49780 0.80110 3.11900
P 	P 	0.73060 0.00160 0.56910 0.81500
P 	P 	0.94240 0.42760 0.66690 0.72800
P 	P 	0.69560 0.50070 0.70640 0.83100
F 	F 	0.67590 0.51580 0.54460 -0.75500
O 	O 	0.78760 0.81210 0.57720 -0.69200
O 	O 	0.74850 0.49830 0.65380 -0.79200
O 	O 	0.78260 0.20020 0.57250 -0.68200
O 	O 	0.68210 0.98980 0.50720 -0.64800
O 	O 	0.89480 0.49540 0.60800 -0.64100
O 	O 	0.90500 0.50600 0.72270 -0.70100
O 	O 	0.94070 0.18180 0.66380 -0.20300
O 	O 	0.02880 0.50620 0.66500 -0.64800
O 	O 	0.63960 0.30780 0.70350 -0.66100
O 	O 	0.64040 0.69550 0.70300 -0.71900
O 	O 	0.67160 0.00330 0.61860 -0.72600
O 	O 	0.75010 0.50190 0.76560 -0.75700
Ti	Ti	0.71730 0.00700 0.92470 3.12600
Ti	Ti	0.64050 0.99780 0.69890 3.11500
P 	P 	0.76940 0.50160 0.93090 0.80400
P 	P 	0.55760 0.92760 0.83310 0.69900
P 	P 	0.80440 0.00070 0.79360 0.85400
F 	F 	0.82410 0.01580 0.95540 -0.75200
O 	O 	0.71240 0.31210 0.92280 -0.68100
O 	O 	0.75150 0.99830 0.84620 -0.80700
O 	O 	0.71740 0.70020 0.92750 -0.68200
O 	O 	0.81790 0.48980 0.99280 -0.64400
O 	O 	0.60520 0.99540 0.89200 -0.64100
O 	O 	0.59500 0.00600 0.77730 -0.68000
O 	O 	0.55930 0.68180 0.83620 -0.20600
O 	O 	0.47120 0.00620 0.83500 -0.62900
O 	O 	0.86040 0.80780 0.79650 -0.67500
O 	O 	0.85960 0.19550 0.79700 -0.71100
O 	O 	0.82840 0.50330 0.88140 -0.73200
O 	O 	0.74990 0.00190 0.73440 -0.74900
Ti	Ti	0.21730 0.50700 0.92470 3.12500
Ti	Ti	0.14050 0.49780 0.69890 3.11900
P 	P 	0.26940 0.00160 0.93090 0.81500
P 	P 	0.05760 0.42760 0.83310 0.72600
P 	P 	0.30440 0.50070 0.79360 0.83100
F 	F 	0.32410 0.51580 0.95540 -0.75500
O 	O 	0.21240 0.81210 0.92280 -0.69200
O 	O 	0.25150 0.49830 0.84620 -0.79200
O 	O 	0.21740 0.20020 0.92750 -0.68300
O 	O 	0.31790 0.98980 0.99280 -0.64900
O 	O 	0.10520 0.49540 0.89200 -0.64100
O 	O 	0.09500 0.50600 0.77730 -0.70100
O 	O 	0.05930 0.18180 0.83620 -0.20400
O 	O 	0.97120 0.50620 0.83500 -0.64700
O 	O 	0.36040 0.30780 0.79650 -0.66100
O 	O 	0.35960 0.69550 0.79700 -0.71900
O 	O 	0.32840 0.00330 0.88140 -0.72600
O 	O 	0.24990 0.50190 0.73440 -0.75700
Ti	Ti	0.71730 0.99300 0.42470 3.12600
Ti	Ti	0.64050 0.00220 0.19890 3.11500
P 	P 	0.76940 0.49840 0.43090 0.80400
P 	P 	0.55760 0.07240 0.33310 0.70000
P 	P 	0.80440 0.99930 0.29360 0.85400
F 	F 	0.82410 0.98420 0.45540 -0.75200
O 	O 	0.71240 0.68790 0.42280 -0.68100
O 	O 	0.75150 0.00170 0.34620 -0.80700
O 	O 	0.71740 0.29980 0.42750 -0.68200
O 	O 	0.81790 0.51020 0.49280 -0.64400
O 	O 	0.60520 0.00460 0.39200 -0.64100
O 	O 	0.59500 0.99400 0.27730 -0.68000
O 	O 	0.55930 0.31820 0.33620 -0.20600
O 	O 	0.47120 0.99380 0.33500 -0.62900
O 	O 	0.86040 0.19220 0.29650 -0.67500
O 	O 	0.85960 0.80450 0.29700 -0.71100
O 	O 	0.82840 0.49670 0.38140 -0.73200
O 	O 	0.74990 0.99810 0.23440 -0.74900
Ti	Ti	0.21730 0.49300 0.42470 3.12500
Ti	Ti	0.14050 0.50220 0.19890 3.11900
P 	P 	0.26940 0.99840 0.43090 0.81500
P 	P 	0.05760 0.57240 0.33310 0.72800
P 	P 	0.30440 0.49930 0.29360 0.83100
F 	F 	0.32410 0.48420 0.45540 -0.75500
O 	O 	0.21240 0.18790 0.42280 -0.69200
O 	O 	0.25150 0.50170 0.34620 -0.79200
O 	O 	0.21740 0.79980 0.42750 -0.68200
O 	O 	0.31790 0.01020 0.49280 -0.64800
O 	O 	0.10520 0.50460 0.39200 -0.64100
O 	O 	0.09500 0.49400 0.27730 -0.70100
O 	O 	0.05930 0.81820 0.33620 -0.20300
O 	O 	0.97120 0.49380 0.33500 -0.64800
O 	O 	0.36040 0.69220 0.29650 -0.66100
O 	O 	0.35960 0.30450 0.29700 -0.71900
O 	O 	0.32840 0.99670 0.38140 -0.72600
O 	O 	0.24990 0.49810 0.23440 -0.75700
Ti	Ti	0.28270 0.99300 0.07530 3.12600
Ti	Ti	0.35950 0.00220 0.30110 3.11500
P 	P 	0.23060 0.49840 0.06910 0.80400
P 	P 	0.44240 0.07240 0.16690 0.69900
P 	P 	0.19560 0.99930 0.20640 0.85400
F 	F 	0.17590 0.98420 0.04460 -0.75200
O 	O 	0.28760 0.68790 0.07720 -0.68100
O 	O 	0.24850 0.00170 0.15380 -0.80700
O 	O 	0.28260 0.29980 0.07250 -0.68200
O 	O 	0.18210 0.51020 0.00720 -0.64400
O 	O 	0.39480 0.00460 0.10800 -0.64100
O 	O 	0.40500 0.99400 0.22270 -0.68000
O 	O 	0.44070 0.31820 0.16380 -0.20600
O 	O 	0.52880 0.99380 0.16500 -0.62900
O 	O 	0.13960 0.19220 0.20350 -0.67500
O 	O 	0.14040 0.80450 0.20300 -0.71100
O 	O 	0.17160 0.49670 0.11860 -0.73200
O 	O 	0.25010 0.99810 0.26560 -0.74900
Ti	Ti	0.78270 0.49300 0.07530 3.12500
Ti	Ti	0.85950 0.50220 0.30110 3.11900
P 	P 	0.73060 0.99840 0.06910 0.81500
P 	P 	0.94240 0.57240 0.16690 0.72600
P 	P 	0.69560 0.49930 0.20640 0.83100
F 	F 	0.67590 0.48420 0.04460 -0.75500
O 	O 	0.78760 0.18790 0.07720 -0.69200
O 	O 	0.74850 0.50170 0.15380 -0.79200
O 	O 	0.78260 0.79980 0.07250 -0.68300
O 	O 	0.68210 0.01020 0.00720 -0.64900
O 	O 	0.89480 0.50460 0.10800 -0.64100
O 	O 	0.90500 0.49400 0.22270 -0.70100
O 	O 	0.94070 0.81820 0.16380 -0.20400
O 	O 	0.02880 0.49380 0.16500 -0.64700
O 	O 	0.63960 0.69220 0.20350 -0.66100
O 	O 	0.64040 0.30450 0.20300 -0.71900
O 	O 	0.67160 0.99670 0.11860 -0.72600
O 	O 	0.75010 0.49810 0.26560 -0.75700
