data_crystal

_cell_length_a 17.73490
_cell_length_b 17.73490
_cell_length_c 28.17320
_cell_angle_alpha 90.00000
_cell_angle_beta  90.00000
_cell_angle_gamma 90.00000

_symmetry_space_group_name_	'P 1'
_symmetry_space_group_name_H-M	'P 1'

loop_
_symmetry_equiv_pos_as_xyz
  x,y,z

loop_
_atom_site_label
_atom_site_type_symbol
_atom_site_fract_x
_atom_site_fract_y
_atom_site_fract_z
_atom_site_charge
C 	C 	0.46360 0.18510 0.07981 -0.09600
C 	C 	0.41480 0.18620 0.11809 0.03900
H 	H 	0.38760 0.14180 0.12600 0.04000
C 	C 	0.44450 0.31600 0.13324 -0.04500
H 	H 	0.43830 0.36090 0.15120 0.06000
C 	C 	0.49180 0.31380 0.09561 0.07000
C 	C 	0.50230 0.25000 0.06850 -0.04000
H 	H 	0.53600 0.25080 0.04230 0.05800
C 	C 	0.53550 0.41240 0.03920 0.00200
H 	H 	0.50390 0.39930 0.01330 0.02900
C 	C 	0.35030 0.25080 0.18547 0.39500
C 	C 	0.47470 0.11560 0.05055 0.40500
C 	C 	0.40480 0.25030 0.14510 -0.09500
N 	N 	0.53480 0.38060 0.08287 -0.14600
O 	O 	0.51200 0.12238 0.01354 -0.49000
O 	O 	0.44496 0.05594 0.06626 -0.48000
O 	O 	0.31736 0.18975 0.19427 -0.48300
O 	O 	0.33925 0.31238 0.20667 -0.47500
C 	C 	0.03640 0.31490 0.07981 -0.10200
C 	C 	0.08520 0.31380 0.11809 0.04200
H 	H 	0.11240 0.35820 0.12600 0.03800
C 	C 	0.05550 0.18400 0.13324 -0.04200
H 	H 	0.06170 0.13910 0.15120 0.05800
C 	C 	0.00820 0.18620 0.09561 0.06300
C 	C 	0.99770 0.25000 0.06850 -0.03300
H 	H 	0.96400 0.24920 0.04230 0.05500
C 	C 	0.96450 0.08760 0.03920 0.00200
H 	H 	0.99610 0.10070 0.01330 0.03000
C 	C 	0.14970 0.24920 0.18547 0.39600
C 	C 	0.02530 0.38440 0.05055 0.40400
C 	C 	0.09520 0.24970 0.14510 -0.09800
N 	N 	0.96520 0.11940 0.08287 -0.14400
O 	O 	0.98800 0.37762 0.01354 -0.48800
O 	O 	0.05504 0.44406 0.06626 -0.48100
O 	O 	0.18264 0.31025 0.19427 -0.48300
O 	O 	0.16075 0.18762 0.20667 -0.47500
C 	C 	0.31490 0.46360 0.57981 -0.09800
C 	C 	0.31380 0.41480 0.61809 0.03900
H 	H 	0.35820 0.38760 0.62600 0.03900
C 	C 	0.18400 0.44450 0.63324 -0.04600
H 	H 	0.13910 0.43830 0.65120 0.05900
C 	C 	0.18620 0.49180 0.59561 0.06900
C 	C 	0.25000 0.50230 0.56850 -0.04100
H 	H 	0.24920 0.53600 0.54230 0.05700
C 	C 	0.08760 0.53550 0.53920 0.00200
H 	H 	0.10070 0.50390 0.51330 0.02900
C 	C 	0.24920 0.35030 0.68547 0.39500
C 	C 	0.38440 0.47470 0.55055 0.40600
C 	C 	0.24970 0.40480 0.64510 -0.09500
N 	N 	0.11940 0.53480 0.58287 -0.14600
O 	O 	0.37762 0.51200 0.51354 -0.49100
O 	O 	0.44406 0.44496 0.56626 -0.48000
O 	O 	0.31025 0.31736 0.69427 -0.48300
O 	O 	0.18762 0.33925 0.70667 -0.47500
C 	C 	0.18510 0.03640 0.57981 -0.09800
C 	C 	0.18620 0.08520 0.61809 0.03900
H 	H 	0.14180 0.11240 0.62600 0.03900
C 	C 	0.31600 0.05550 0.63324 -0.04600
H 	H 	0.36090 0.06170 0.65120 0.05900
C 	C 	0.31380 0.00820 0.59561 0.06900
C 	C 	0.25000 0.99770 0.56850 -0.04000
H 	H 	0.25080 0.96400 0.54230 0.05700
C 	C 	0.41240 0.96450 0.53920 0.00200
H 	H 	0.39930 0.99610 0.51330 0.02900
C 	C 	0.25080 0.14970 0.68547 0.39500
C 	C 	0.11560 0.02530 0.55055 0.40600
C 	C 	0.25030 0.09520 0.64510 -0.09500
N 	N 	0.38060 0.96520 0.58287 -0.14600
O 	O 	0.12238 0.98800 0.51354 -0.49100
O 	O 	0.05594 0.05504 0.56626 -0.48000
O 	O 	0.18975 0.18264 0.69427 -0.48300
O 	O 	0.31238 0.16075 0.70667 -0.47500
C 	C 	0.03640 0.18510 0.42019 -0.09800
C 	C 	0.08520 0.18620 0.38191 0.03900
H 	H 	0.11240 0.14180 0.37400 0.03900
C 	C 	0.05550 0.31600 0.36676 -0.04600
H 	H 	0.06170 0.36090 0.34880 0.05900
C 	C 	0.00820 0.31380 0.40439 0.06900
C 	C 	0.99770 0.25000 0.43150 -0.04000
H 	H 	0.96400 0.25080 0.45770 0.05700
C 	C 	0.96450 0.41240 0.46080 0.00200
H 	H 	0.99610 0.39930 0.48670 0.02900
C 	C 	0.14970 0.25080 0.31453 0.39500
C 	C 	0.02530 0.11560 0.44945 0.40600
C 	C 	0.09520 0.25030 0.35490 -0.09500
N 	N 	0.96520 0.38060 0.41713 -0.14600
O 	O 	0.98800 0.12238 0.48646 -0.49100
O 	O 	0.05504 0.05594 0.43374 -0.48000
O 	O 	0.18264 0.18975 0.30573 -0.48300
O 	O 	0.16075 0.31238 0.29333 -0.47500
C 	C 	0.46360 0.31490 0.42019 -0.09800
C 	C 	0.41480 0.31380 0.38191 0.03900
H 	H 	0.38760 0.35820 0.37400 0.03900
C 	C 	0.44450 0.18400 0.36676 -0.04600
H 	H 	0.43830 0.13910 0.34880 0.05900
C 	C 	0.49180 0.18620 0.40439 0.06900
C 	C 	0.50230 0.25000 0.43150 -0.04100
H 	H 	0.53600 0.24920 0.45770 0.05700
C 	C 	0.53550 0.08760 0.46080 0.00200
H 	H 	0.50390 0.10070 0.48670 0.02900
C 	C 	0.35030 0.24920 0.31453 0.39500
C 	C 	0.47470 0.38440 0.44945 0.40600
C 	C 	0.40480 0.24970 0.35490 -0.09500
N 	N 	0.53480 0.11940 0.41713 -0.14600
O 	O 	0.51200 0.37762 0.48646 -0.49100
O 	O 	0.44496 0.44406 0.43374 -0.48000
O 	O 	0.31736 0.31025 0.30573 -0.48300
O 	O 	0.33925 0.18762 0.29333 -0.47500
C 	C 	0.18510 0.46360 0.92019 -0.09700
C 	C 	0.18620 0.41480 0.88191 0.03800
H 	H 	0.14180 0.38760 0.87400 0.03900
C 	C 	0.31600 0.44450 0.86676 -0.04600
H 	H 	0.36090 0.43830 0.84880 0.05900
C 	C 	0.31380 0.49180 0.90439 0.06900
C 	C 	0.25000 0.50230 0.93150 -0.04100
H 	H 	0.25080 0.53600 0.95770 0.05700
C 	C 	0.41240 0.53550 0.96080 0.00200
H 	H 	0.39930 0.50390 0.98670 0.02900
C 	C 	0.25080 0.35030 0.81453 0.39500
C 	C 	0.11560 0.47470 0.94945 0.40500
C 	C 	0.25030 0.40480 0.85490 -0.09500
N 	N 	0.38060 0.53480 0.91713 -0.14600
O 	O 	0.12238 0.51200 0.98646 -0.49000
O 	O 	0.05594 0.44496 0.93374 -0.48000
O 	O 	0.18975 0.31736 0.80573 -0.48300
O 	O 	0.31238 0.33925 0.79333 -0.47500
C 	C 	0.31490 0.03640 0.92019 -0.10200
C 	C 	0.31380 0.08520 0.88191 0.04200
H 	H 	0.35820 0.11240 0.87400 0.03800
C 	C 	0.18400 0.05550 0.86676 -0.04200
H 	H 	0.13910 0.06170 0.84880 0.05800
C 	C 	0.18620 0.00820 0.90439 0.06300
C 	C 	0.25000 0.99770 0.93150 -0.03300
H 	H 	0.24920 0.96400 0.95770 0.05500
C 	C 	0.08760 0.96450 0.96080 0.00200
H 	H 	0.10070 0.99610 0.98670 0.03000
C 	C 	0.24920 0.14970 0.81453 0.39600
C 	C 	0.38440 0.02530 0.94945 0.40400
C 	C 	0.24970 0.09520 0.85490 -0.09800
N 	N 	0.11940 0.96520 0.91713 -0.14400
O 	O 	0.37762 0.98800 0.98646 -0.48800
O 	O 	0.44406 0.05504 0.93374 -0.48100
O 	O 	0.31025 0.18264 0.80573 -0.48300
O 	O 	0.18762 0.16075 0.79333 -0.47500
C 	C 	0.53640 0.81490 0.92019 -0.09700
C 	C 	0.58520 0.81380 0.88191 0.03800
H 	H 	0.61240 0.85820 0.87400 0.03900
C 	C 	0.55550 0.68400 0.86676 -0.04600
H 	H 	0.56170 0.63910 0.84880 0.05900
C 	C 	0.50820 0.68620 0.90439 0.06900
C 	C 	0.49770 0.75000 0.93150 -0.04100
H 	H 	0.46400 0.74920 0.95770 0.05700
C 	C 	0.46450 0.58760 0.96080 0.00200
H 	H 	0.49610 0.60070 0.98670 0.02900
C 	C 	0.64970 0.74920 0.81453 0.39500
C 	C 	0.52530 0.88440 0.94945 0.40500
C 	C 	0.59520 0.74970 0.85490 -0.09500
N 	N 	0.46520 0.61940 0.91713 -0.14600
O 	O 	0.48800 0.87762 0.98646 -0.49000
O 	O 	0.55504 0.94406 0.93374 -0.48000
O 	O 	0.68264 0.81025 0.80573 -0.48300
O 	O 	0.66075 0.68762 0.79333 -0.47500
C 	C 	0.96360 0.68510 0.92019 -0.10200
C 	C 	0.91480 0.68620 0.88191 0.04200
H 	H 	0.88760 0.64180 0.87400 0.03800
C 	C 	0.94450 0.81600 0.86676 -0.04200
H 	H 	0.93830 0.86090 0.84880 0.05800
C 	C 	0.99180 0.81380 0.90439 0.06300
C 	C 	0.00230 0.75000 0.93150 -0.03300
H 	H 	0.03600 0.75080 0.95770 0.05500
C 	C 	0.03550 0.91240 0.96080 0.00200
H 	H 	0.00390 0.89930 0.98670 0.03000
C 	C 	0.85030 0.75080 0.81453 0.39600
C 	C 	0.97470 0.61560 0.94945 0.40400
C 	C 	0.90480 0.75030 0.85490 -0.09800
N 	N 	0.03480 0.88060 0.91713 -0.14400
O 	O 	0.01200 0.62238 0.98646 -0.48800
O 	O 	0.94496 0.55594 0.93374 -0.48100
O 	O 	0.81736 0.68975 0.80573 -0.48300
O 	O 	0.83925 0.81238 0.79333 -0.47500
C 	C 	0.68510 0.53640 0.42019 -0.09800
C 	C 	0.68620 0.58520 0.38191 0.03900
H 	H 	0.64180 0.61240 0.37400 0.03900
C 	C 	0.81600 0.55550 0.36676 -0.04600
H 	H 	0.86090 0.56170 0.34880 0.05900
C 	C 	0.81380 0.50820 0.40439 0.06900
C 	C 	0.75000 0.49770 0.43150 -0.04100
H 	H 	0.75080 0.46400 0.45770 0.05700
C 	C 	0.91240 0.46450 0.46080 0.00200
H 	H 	0.89930 0.49610 0.48670 0.02900
C 	C 	0.75080 0.64970 0.31453 0.39500
C 	C 	0.61560 0.52530 0.44945 0.40600
C 	C 	0.75030 0.59520 0.35490 -0.09500
N 	N 	0.88060 0.46520 0.41713 -0.14600
O 	O 	0.62238 0.48800 0.48646 -0.49100
O 	O 	0.55594 0.55504 0.43374 -0.48000
O 	O 	0.68975 0.68264 0.30573 -0.48300
O 	O 	0.81238 0.66075 0.29333 -0.47500
C 	C 	0.81490 0.96360 0.42019 -0.09800
C 	C 	0.81380 0.91480 0.38191 0.03900
H 	H 	0.85820 0.88760 0.37400 0.03900
C 	C 	0.68400 0.94450 0.36676 -0.04600
H 	H 	0.63910 0.93830 0.34880 0.05900
C 	C 	0.68620 0.99180 0.40439 0.06900
C 	C 	0.75000 0.00230 0.43150 -0.04000
H 	H 	0.74920 0.03600 0.45770 0.05700
C 	C 	0.58760 0.03550 0.46080 0.00200
H 	H 	0.60070 0.00390 0.48670 0.02900
C 	C 	0.74920 0.85030 0.31453 0.39500
C 	C 	0.88440 0.97470 0.44945 0.40600
C 	C 	0.74970 0.90480 0.35490 -0.09500
N 	N 	0.61940 0.03480 0.41713 -0.14600
O 	O 	0.87762 0.01200 0.48646 -0.49100
O 	O 	0.94406 0.94496 0.43374 -0.48000
O 	O 	0.81025 0.81736 0.30573 -0.48300
O 	O 	0.68762 0.83925 0.29333 -0.47500
C 	C 	0.96360 0.81490 0.57981 -0.09800
C 	C 	0.91480 0.81380 0.61809 0.03900
H 	H 	0.88760 0.85820 0.62600 0.03900
C 	C 	0.94450 0.68400 0.63324 -0.04600
H 	H 	0.93830 0.63910 0.65120 0.05900
C 	C 	0.99180 0.68620 0.59561 0.06900
C 	C 	0.00230 0.75000 0.56850 -0.04000
H 	H 	0.03600 0.74920 0.54230 0.05700
C 	C 	0.03550 0.58760 0.53920 0.00200
H 	H 	0.00390 0.60070 0.51330 0.02900
C 	C 	0.85030 0.74920 0.68547 0.39500
C 	C 	0.97470 0.88440 0.55055 0.40600
C 	C 	0.90480 0.74970 0.64510 -0.09500
N 	N 	0.03480 0.61940 0.58287 -0.14600
O 	O 	0.01200 0.87762 0.51354 -0.49100
O 	O 	0.94496 0.94406 0.56626 -0.48000
O 	O 	0.81736 0.81025 0.69427 -0.48300
O 	O 	0.83925 0.68762 0.70667 -0.47500
C 	C 	0.53640 0.68510 0.57981 -0.09800
C 	C 	0.58520 0.68620 0.61809 0.03900
H 	H 	0.61240 0.64180 0.62600 0.03900
C 	C 	0.55550 0.81600 0.63324 -0.04600
H 	H 	0.56170 0.86090 0.65120 0.05900
C 	C 	0.50820 0.81380 0.59561 0.06900
C 	C 	0.49770 0.75000 0.56850 -0.04100
H 	H 	0.46400 0.75080 0.54230 0.05700
C 	C 	0.46450 0.91240 0.53920 0.00200
H 	H 	0.49610 0.89930 0.51330 0.02900
C 	C 	0.64970 0.75080 0.68547 0.39500
C 	C 	0.52530 0.61560 0.55055 0.40600
C 	C 	0.59520 0.75030 0.64510 -0.09500
N 	N 	0.46520 0.88060 0.58287 -0.14600
O 	O 	0.48800 0.62238 0.51354 -0.49100
O 	O 	0.55504 0.55594 0.56626 -0.48000
O 	O 	0.68264 0.68975 0.69427 -0.48300
O 	O 	0.66075 0.81238 0.70667 -0.47500
C 	C 	0.81490 0.53640 0.07981 -0.09700
C 	C 	0.81380 0.58520 0.11809 0.03800
H 	H 	0.85820 0.61240 0.12600 0.03900
C 	C 	0.68400 0.55550 0.13324 -0.04600
H 	H 	0.63910 0.56170 0.15120 0.05900
C 	C 	0.68620 0.50820 0.09561 0.06900
C 	C 	0.75000 0.49770 0.06850 -0.04100
H 	H 	0.74920 0.46400 0.04230 0.05700
C 	C 	0.58760 0.46450 0.03920 0.00200
H 	H 	0.60070 0.49610 0.01330 0.02900
C 	C 	0.74920 0.64970 0.18547 0.39500
C 	C 	0.88440 0.52530 0.05055 0.40500
C 	C 	0.74970 0.59520 0.14510 -0.09500
N 	N 	0.61940 0.46520 0.08287 -0.14600
O 	O 	0.87762 0.48800 0.01354 -0.49000
O 	O 	0.94406 0.55504 0.06626 -0.48000
O 	O 	0.81025 0.68264 0.19427 -0.48300
O 	O 	0.68762 0.66075 0.20667 -0.47500
C 	C 	0.68510 0.96360 0.07981 -0.10200
C 	C 	0.68620 0.91480 0.11809 0.04200
H 	H 	0.64180 0.88760 0.12600 0.03800
C 	C 	0.81600 0.94450 0.13324 -0.04200
H 	H 	0.86090 0.93830 0.15120 0.05800
C 	C 	0.81380 0.99180 0.09561 0.06300
C 	C 	0.75000 0.00230 0.06850 -0.03300
H 	H 	0.75080 0.03600 0.04230 0.05500
C 	C 	0.91240 0.03550 0.03920 0.00200
H 	H 	0.89930 0.00390 0.01330 0.03000
C 	C 	0.75080 0.85030 0.18547 0.39600
C 	C 	0.61560 0.97470 0.05055 0.40400
C 	C 	0.75030 0.90480 0.14510 -0.09800
N 	N 	0.88060 0.03480 0.08287 -0.14400
O 	O 	0.62238 0.01200 0.01354 -0.48800
O 	O 	0.55594 0.94496 0.06626 -0.48100
O 	O 	0.68975 0.81736 0.19427 -0.48300
O 	O 	0.81238 0.83925 0.20667 -0.47500
C 	C 	0.59180 0.40820 0.10350 0.12300
H 	H 	0.61200 0.38800 0.13200 -0.00300
C 	C 	0.90820 0.09180 0.10350 0.12200
H 	H 	0.88800 0.11200 0.13200 -0.00200
C 	C 	0.09180 0.59180 0.60350 0.12300
H 	H 	0.11200 0.61200 0.63200 -0.00300
C 	C 	0.40820 0.90820 0.60350 0.12300
H 	H 	0.38800 0.88800 0.63200 -0.00300
C 	C 	0.90820 0.40820 0.39650 0.12300
H 	H 	0.88800 0.38800 0.36800 -0.00300
C 	C 	0.59180 0.09180 0.39650 0.12300
H 	H 	0.61200 0.11200 0.36800 -0.00300
C 	C 	0.40820 0.59180 0.89650 0.12300
H 	H 	0.38800 0.61200 0.86800 -0.00300
C 	C 	0.09180 0.90820 0.89650 0.12200
H 	H 	0.11200 0.88800 0.86800 -0.00200
Zn	Zn	0.54554 0.04554 0.96497 1.20000
Zn	Zn	0.95446 0.45446 0.96497 1.20000
Zn	Zn	0.45446 0.54554 0.46497 1.20100
Zn	Zn	0.04554 0.95446 0.46497 1.20100
Zn	Zn	0.95446 0.04554 0.53503 1.20100
Zn	Zn	0.54554 0.45446 0.53503 1.20100
Zn	Zn	0.04554 0.54554 0.03503 1.20000
Zn	Zn	0.45446 0.95446 0.03503 1.20000
Zn	Zn	0.25000 0.16545 0.25000 1.19700
Zn	Zn	0.25000 0.33455 0.25000 1.19700
Zn	Zn	0.33455 0.25000 0.75000 1.19700
Zn	Zn	0.16545 0.25000 0.75000 1.19700
Zn	Zn	0.75000 0.83455 0.75000 1.19700
Zn	Zn	0.75000 0.66545 0.75000 1.19700
Zn	Zn	0.66545 0.75000 0.25000 1.19700
Zn	Zn	0.83455 0.75000 0.25000 1.19700
