data_crystal

_cell_length_a 17.71790
_cell_length_b 17.71790
_cell_length_c 27.55660
_cell_angle_alpha 90.00000
_cell_angle_beta  90.00000
_cell_angle_gamma 90.00000

_symmetry_space_group_name_	'P 1'
_symmetry_space_group_name_H-M	'P 1'

loop_
_symmetry_equiv_pos_as_xyz
  x,y,z

loop_
_atom_site_label
_atom_site_type_symbol
_atom_site_fract_x
_atom_site_fract_y
_atom_site_fract_z
_atom_site_charge
C 	C 	0.15420 0.24760 0.68498 0.35700
C 	C 	0.03680 0.31390 0.57730 -0.04600
C 	C 	0.08530 0.31280 0.61668 -0.00300
H 	H 	0.11040 0.35810 0.62570 0.06500
C 	C 	0.09860 0.24730 0.64360 -0.04600
C 	C 	0.01090 0.18210 0.59260 0.11400
C 	C 	0.00040 0.24410 0.56610 -0.08700
H 	H 	0.96760 0.24180 0.53890 0.08000
C 	C 	0.05800 0.18110 0.63070 -0.08600
H 	H 	0.06430 0.13610 0.64900 0.08100
O 	O 	0.18220 0.31060 0.69464 -0.40900
O 	O 	0.16480 0.18620 0.70539 -0.40900
N 	N 	0.96980 0.11650 0.58070 -0.15600
C 	C 	0.02450 0.38400 0.54760 0.35700
O 	O 	0.05390 0.44193 0.56428 -0.41000
O 	O 	0.98510 0.37560 0.51046 -0.41000
C 	C 	0.96710 0.09420 0.53120 -0.00000
H 	H 	0.99600 0.11260 0.50470 0.03700
C 	C 	0.34580 0.25240 0.68498 0.35600
C 	C 	0.46320 0.18610 0.57730 -0.04600
C 	C 	0.41470 0.18720 0.61668 -0.00400
H 	H 	0.38960 0.14190 0.62570 0.06400
C 	C 	0.40140 0.25270 0.64360 -0.04600
C 	C 	0.48910 0.31790 0.59260 0.11400
C 	C 	0.49960 0.25590 0.56610 -0.08700
H 	H 	0.53240 0.25820 0.53890 0.08000
C 	C 	0.44200 0.31890 0.63070 -0.08600
H 	H 	0.43570 0.36390 0.64900 0.08100
O 	O 	0.31780 0.18940 0.69464 -0.40900
O 	O 	0.33520 0.31380 0.70539 -0.40900
N 	N 	0.53020 0.38350 0.58070 -0.15600
C 	C 	0.47550 0.11600 0.54760 0.35700
O 	O 	0.44610 0.05807 0.56428 -0.41000
O 	O 	0.51490 0.12440 0.51046 -0.41000
C 	C 	0.53290 0.40580 0.53120 -0.00000
H 	H 	0.50400 0.38740 0.50470 0.03700
C 	C 	0.25240 0.15420 0.18498 0.35600
C 	C 	0.18610 0.03680 0.07730 -0.04500
C 	C 	0.18720 0.08530 0.11668 -0.00500
H 	H 	0.14190 0.11040 0.12570 0.06400
C 	C 	0.25270 0.09860 0.14360 -0.04500
C 	C 	0.31790 0.01090 0.09260 0.11400
C 	C 	0.25590 0.00040 0.06610 -0.09100
H 	H 	0.25820 0.96760 0.03890 0.08200
C 	C 	0.31890 0.05800 0.13070 -0.08700
H 	H 	0.36390 0.06430 0.14900 0.08100
O 	O 	0.18940 0.18220 0.19464 -0.40900
O 	O 	0.31380 0.16480 0.20539 -0.40900
N 	N 	0.38350 0.96980 0.08070 -0.15600
C 	C 	0.11600 0.02450 0.04760 0.35400
O 	O 	0.05807 0.05390 0.06428 -0.40900
O 	O 	0.12440 0.98510 0.01046 -0.40700
C 	C 	0.40580 0.96710 0.03120 -0.00000
H 	H 	0.38740 0.99600 0.00470 0.03800
C 	C 	0.24760 0.34580 0.18498 0.35600
C 	C 	0.31390 0.46320 0.07730 -0.04600
C 	C 	0.31280 0.41470 0.11668 -0.00400
H 	H 	0.35810 0.38960 0.12570 0.06400
C 	C 	0.24730 0.40140 0.14360 -0.04600
C 	C 	0.18210 0.48910 0.09260 0.11400
C 	C 	0.24410 0.49960 0.06610 -0.08700
H 	H 	0.24180 0.53240 0.03890 0.08000
C 	C 	0.18110 0.44200 0.13070 -0.08600
H 	H 	0.13610 0.43570 0.14900 0.08100
O 	O 	0.31060 0.31780 0.19464 -0.40900
O 	O 	0.18620 0.33520 0.20539 -0.40900
N 	N 	0.11650 0.53020 0.08070 -0.15600
C 	C 	0.38400 0.47550 0.04760 0.35600
O 	O 	0.44193 0.44610 0.06428 -0.41000
O 	O 	0.37560 0.51490 0.01046 -0.41000
C 	C 	0.09420 0.53290 0.03120 -0.00000
H 	H 	0.11260 0.50400 0.00470 0.03700
C 	C 	0.34580 0.24760 0.81502 0.35600
C 	C 	0.46320 0.31390 0.92270 -0.04600
C 	C 	0.41470 0.31280 0.88332 -0.00400
H 	H 	0.38960 0.35810 0.87430 0.06400
C 	C 	0.40140 0.24730 0.85640 -0.04600
C 	C 	0.48910 0.18210 0.90740 0.11400
C 	C 	0.49960 0.24410 0.93390 -0.08700
H 	H 	0.53240 0.24180 0.96110 0.08000
C 	C 	0.44200 0.18110 0.86930 -0.08600
H 	H 	0.43570 0.13610 0.85100 0.08100
O 	O 	0.31780 0.31060 0.80536 -0.40900
O 	O 	0.33520 0.18620 0.79461 -0.40900
N 	N 	0.53020 0.11650 0.91930 -0.15600
C 	C 	0.47550 0.38400 0.95240 0.35600
O 	O 	0.44610 0.44193 0.93572 -0.41000
O 	O 	0.51490 0.37560 0.98954 -0.41000
C 	C 	0.53290 0.09420 0.96880 -0.00000
H 	H 	0.50400 0.11260 0.99530 0.03700
C 	C 	0.15420 0.25240 0.81502 0.35600
C 	C 	0.03680 0.18610 0.92270 -0.04500
C 	C 	0.08530 0.18720 0.88332 -0.00500
H 	H 	0.11040 0.14190 0.87430 0.06400
C 	C 	0.09860 0.25270 0.85640 -0.04500
C 	C 	0.01090 0.31790 0.90740 0.11400
C 	C 	0.00040 0.25590 0.93390 -0.09100
H 	H 	0.96760 0.25820 0.96110 0.08200
C 	C 	0.05800 0.31890 0.86930 -0.08700
H 	H 	0.06430 0.36390 0.85100 0.08100
O 	O 	0.18220 0.18940 0.80536 -0.40900
O 	O 	0.16480 0.31380 0.79461 -0.40900
N 	N 	0.96980 0.38350 0.91930 -0.15600
C 	C 	0.02450 0.11600 0.95240 0.35400
O 	O 	0.05390 0.05807 0.93572 -0.40900
O 	O 	0.98510 0.12440 0.98954 -0.40700
C 	C 	0.96710 0.40580 0.96880 -0.00000
H 	H 	0.99600 0.38740 0.99530 0.03800
C 	C 	0.24760 0.15420 0.31502 0.35600
C 	C 	0.31390 0.03680 0.42270 -0.04700
C 	C 	0.31280 0.08530 0.38332 -0.00400
H 	H 	0.35810 0.11040 0.37430 0.06400
C 	C 	0.24730 0.09860 0.35640 -0.04600
C 	C 	0.18210 0.01090 0.40740 0.11400
C 	C 	0.24410 0.00040 0.43390 -0.08700
H 	H 	0.24180 0.96760 0.46110 0.08000
C 	C 	0.18110 0.05800 0.36930 -0.08600
H 	H 	0.13610 0.06430 0.35100 0.08100
O 	O 	0.31060 0.18220 0.30536 -0.40900
O 	O 	0.18620 0.16480 0.29461 -0.40900
N 	N 	0.11650 0.96980 0.41930 -0.15600
C 	C 	0.38400 0.02450 0.45240 0.35700
O 	O 	0.44193 0.05390 0.43572 -0.41000
O 	O 	0.37560 0.98510 0.48954 -0.41000
C 	C 	0.09420 0.96710 0.46880 -0.00000
H 	H 	0.11260 0.99600 0.49530 0.03700
C 	C 	0.25240 0.34580 0.31502 0.35600
C 	C 	0.18610 0.46320 0.42270 -0.04600
C 	C 	0.18720 0.41470 0.38332 -0.00400
H 	H 	0.14190 0.38960 0.37430 0.06400
C 	C 	0.25270 0.40140 0.35640 -0.04600
C 	C 	0.31790 0.48910 0.40740 0.11400
C 	C 	0.25590 0.49960 0.43390 -0.08700
H 	H 	0.25820 0.53240 0.46110 0.08000
C 	C 	0.31890 0.44200 0.36930 -0.08600
H 	H 	0.36390 0.43570 0.35100 0.08100
O 	O 	0.18940 0.31780 0.30536 -0.40900
O 	O 	0.31380 0.33520 0.29461 -0.40900
N 	N 	0.38350 0.53020 0.41930 -0.15600
C 	C 	0.11600 0.47550 0.45240 0.35700
O 	O 	0.05807 0.44610 0.43572 -0.41000
O 	O 	0.12440 0.51490 0.48954 -0.41000
C 	C 	0.40580 0.53290 0.46880 -0.00000
H 	H 	0.38740 0.50400 0.49530 0.03700
C 	C 	0.84580 0.75240 0.31502 0.35600
C 	C 	0.96320 0.68610 0.42270 -0.04700
C 	C 	0.91470 0.68720 0.38332 -0.00400
H 	H 	0.88960 0.64190 0.37430 0.06400
C 	C 	0.90140 0.75270 0.35640 -0.04600
C 	C 	0.98910 0.81790 0.40740 0.11400
C 	C 	0.99960 0.75590 0.43390 -0.08700
H 	H 	0.03240 0.75820 0.46110 0.08000
C 	C 	0.94200 0.81890 0.36930 -0.08600
H 	H 	0.93570 0.86390 0.35100 0.08100
O 	O 	0.81780 0.68940 0.30536 -0.40900
O 	O 	0.83520 0.81380 0.29461 -0.40900
N 	N 	0.03020 0.88350 0.41930 -0.15600
C 	C 	0.97550 0.61600 0.45240 0.35700
O 	O 	0.94610 0.55807 0.43572 -0.41000
O 	O 	0.01490 0.62440 0.48954 -0.41000
C 	C 	0.03290 0.90580 0.46880 -0.00000
H 	H 	0.00400 0.88740 0.49530 0.03700
C 	C 	0.65420 0.74760 0.31502 0.35600
C 	C 	0.53680 0.81390 0.42270 -0.04600
C 	C 	0.58530 0.81280 0.38332 -0.00400
H 	H 	0.61040 0.85810 0.37430 0.06400
C 	C 	0.59860 0.74730 0.35640 -0.04600
C 	C 	0.51090 0.68210 0.40740 0.11400
C 	C 	0.50040 0.74410 0.43390 -0.08700
H 	H 	0.46760 0.74180 0.46110 0.08000
C 	C 	0.55800 0.68110 0.36930 -0.08600
H 	H 	0.56430 0.63610 0.35100 0.08100
O 	O 	0.68220 0.81060 0.30536 -0.40900
O 	O 	0.66480 0.68620 0.29461 -0.40900
N 	N 	0.46980 0.61650 0.41930 -0.15600
C 	C 	0.52450 0.88400 0.45240 0.35700
O 	O 	0.55390 0.94193 0.43572 -0.41000
O 	O 	0.48510 0.87560 0.48954 -0.41000
C 	C 	0.46710 0.59420 0.46880 -0.00000
H 	H 	0.49600 0.61260 0.49530 0.03700
C 	C 	0.74760 0.84580 0.81502 0.35600
C 	C 	0.81390 0.96320 0.92270 -0.04500
C 	C 	0.81280 0.91470 0.88332 -0.00500
H 	H 	0.85810 0.88960 0.87430 0.06400
C 	C 	0.74730 0.90140 0.85640 -0.04500
C 	C 	0.68210 0.98910 0.90740 0.11400
C 	C 	0.74410 0.99960 0.93390 -0.09100
H 	H 	0.74180 0.03240 0.96110 0.08200
C 	C 	0.68110 0.94200 0.86930 -0.08700
H 	H 	0.63610 0.93570 0.85100 0.08100
O 	O 	0.81060 0.81780 0.80536 -0.40900
O 	O 	0.68620 0.83520 0.79461 -0.40900
N 	N 	0.61650 0.03020 0.91930 -0.15600
C 	C 	0.88400 0.97550 0.95240 0.35400
O 	O 	0.94193 0.94610 0.93572 -0.40900
O 	O 	0.87560 0.01490 0.98954 -0.40700
C 	C 	0.59420 0.03290 0.96880 -0.00000
H 	H 	0.61260 0.00400 0.99530 0.03800
C 	C 	0.75240 0.65420 0.81502 0.35600
C 	C 	0.68610 0.53680 0.92270 -0.04600
C 	C 	0.68720 0.58530 0.88332 -0.00400
H 	H 	0.64190 0.61040 0.87430 0.06400
C 	C 	0.75270 0.59860 0.85640 -0.04600
C 	C 	0.81790 0.51090 0.90740 0.11400
C 	C 	0.75590 0.50040 0.93390 -0.08700
H 	H 	0.75820 0.46760 0.96110 0.08000
C 	C 	0.81890 0.55800 0.86930 -0.08600
H 	H 	0.86390 0.56430 0.85100 0.08100
O 	O 	0.68940 0.68220 0.80536 -0.40900
O 	O 	0.81380 0.66480 0.79461 -0.40900
N 	N 	0.88350 0.46980 0.91930 -0.15600
C 	C 	0.61600 0.52450 0.95240 0.35600
O 	O 	0.55807 0.55390 0.93572 -0.41000
O 	O 	0.62440 0.48510 0.98954 -0.41000
C 	C 	0.90580 0.46710 0.96880 -0.00000
H 	H 	0.88740 0.49600 0.99530 0.03700
C 	C 	0.65420 0.75240 0.18498 0.35600
C 	C 	0.53680 0.68610 0.07730 -0.04600
C 	C 	0.58530 0.68720 0.11668 -0.00400
H 	H 	0.61040 0.64190 0.12570 0.06400
C 	C 	0.59860 0.75270 0.14360 -0.04600
C 	C 	0.51090 0.81790 0.09260 0.11400
C 	C 	0.50040 0.75590 0.06610 -0.08700
H 	H 	0.46760 0.75820 0.03890 0.08000
C 	C 	0.55800 0.81890 0.13070 -0.08600
H 	H 	0.56430 0.86390 0.14900 0.08100
O 	O 	0.68220 0.68940 0.19464 -0.40900
O 	O 	0.66480 0.81380 0.20539 -0.40900
N 	N 	0.46980 0.88350 0.08070 -0.15600
C 	C 	0.52450 0.61600 0.04760 0.35600
O 	O 	0.55390 0.55807 0.06428 -0.41000
O 	O 	0.48510 0.62440 0.01046 -0.41000
C 	C 	0.46710 0.90580 0.03120 -0.00000
H 	H 	0.49600 0.88740 0.00470 0.03700
C 	C 	0.84580 0.74760 0.18498 0.35600
C 	C 	0.96320 0.81390 0.07730 -0.04500
C 	C 	0.91470 0.81280 0.11668 -0.00500
H 	H 	0.88960 0.85810 0.12570 0.06400
C 	C 	0.90140 0.74730 0.14360 -0.04500
C 	C 	0.98910 0.68210 0.09260 0.11400
C 	C 	0.99960 0.74410 0.06610 -0.09100
H 	H 	0.03240 0.74180 0.03890 0.08200
C 	C 	0.94200 0.68110 0.13070 -0.08700
H 	H 	0.93570 0.63610 0.14900 0.08100
O 	O 	0.81780 0.81060 0.19464 -0.40900
O 	O 	0.83520 0.68620 0.20539 -0.40900
N 	N 	0.03020 0.61650 0.08070 -0.15600
C 	C 	0.97550 0.88400 0.04760 0.35400
O 	O 	0.94610 0.94193 0.06428 -0.40900
O 	O 	0.01490 0.87560 0.01046 -0.40700
C 	C 	0.03290 0.59420 0.03120 -0.00000
H 	H 	0.00400 0.61260 0.00470 0.03800
C 	C 	0.75240 0.84580 0.68498 0.35600
C 	C 	0.68610 0.96320 0.57730 -0.04700
C 	C 	0.68720 0.91470 0.61668 -0.00400
H 	H 	0.64190 0.88960 0.62570 0.06400
C 	C 	0.75270 0.90140 0.64360 -0.04600
C 	C 	0.81790 0.98910 0.59260 0.11400
C 	C 	0.75590 0.99960 0.56610 -0.08700
H 	H 	0.75820 0.03240 0.53890 0.08000
C 	C 	0.81890 0.94200 0.63070 -0.08600
H 	H 	0.86390 0.93570 0.64900 0.08100
O 	O 	0.68940 0.81780 0.69464 -0.40900
O 	O 	0.81380 0.83520 0.70539 -0.40900
N 	N 	0.88350 0.03020 0.58070 -0.15600
C 	C 	0.61600 0.97550 0.54760 0.35700
O 	O 	0.55807 0.94610 0.56428 -0.41000
O 	O 	0.62440 0.01490 0.51046 -0.41000
C 	C 	0.90580 0.03290 0.53120 -0.00000
H 	H 	0.88740 0.00400 0.50470 0.03700
C 	C 	0.74760 0.65420 0.68498 0.35600
C 	C 	0.81390 0.53680 0.57730 -0.04600
C 	C 	0.81280 0.58530 0.61668 -0.00400
H 	H 	0.85810 0.61040 0.62570 0.06400
C 	C 	0.74730 0.59860 0.64360 -0.04600
C 	C 	0.68210 0.51090 0.59260 0.11400
C 	C 	0.74410 0.50040 0.56610 -0.08700
H 	H 	0.74180 0.46760 0.53890 0.08000
C 	C 	0.68110 0.55800 0.63070 -0.08600
H 	H 	0.63610 0.56430 0.64900 0.08100
O 	O 	0.81060 0.68220 0.69464 -0.40900
O 	O 	0.68620 0.66480 0.70539 -0.40900
N 	N 	0.61650 0.46980 0.58070 -0.15600
C 	C 	0.88400 0.52450 0.54760 0.35700
O 	O 	0.94193 0.55390 0.56428 -0.41000
O 	O 	0.87560 0.48510 0.51046 -0.41000
C 	C 	0.59420 0.46710 0.53120 -0.00000
H 	H 	0.61260 0.49600 0.50470 0.03700
Cu	Cu	0.03972 0.53972 0.53215 0.90400
Cu	Cu	0.46028 0.96028 0.53215 0.90400
Cu	Cu	0.96028 0.03972 0.03215 0.90200
Cu	Cu	0.53972 0.46028 0.03215 0.90400
Cu	Cu	0.46028 0.53972 0.96785 0.90400
Cu	Cu	0.03972 0.96028 0.96785 0.90200
Cu	Cu	0.53972 0.03972 0.46785 0.90400
Cu	Cu	0.96028 0.46028 0.46785 0.90400
Cu	Cu	0.25000 0.32483 0.75000 0.90500
Cu	Cu	0.25000 0.17517 0.75000 0.90500
Cu	Cu	0.17517 0.25000 0.25000 0.90500
Cu	Cu	0.32483 0.25000 0.25000 0.90500
Cu	Cu	0.75000 0.67517 0.25000 0.90500
Cu	Cu	0.75000 0.82483 0.25000 0.90500
Cu	Cu	0.82483 0.75000 0.75000 0.90500
Cu	Cu	0.67517 0.75000 0.75000 0.90500
C 	C 	0.91240 0.08760 0.59930 0.14500
H 	H 	0.89070 0.10930 0.62760 -0.00500
C 	C 	0.58760 0.41240 0.59930 0.14500
H 	H 	0.60930 0.39070 0.62760 -0.00500
C 	C 	0.41240 0.91240 0.09930 0.14500
H 	H 	0.39070 0.89070 0.12760 -0.00500
C 	C 	0.08760 0.58760 0.09930 0.14500
H 	H 	0.10930 0.60930 0.12760 -0.00500
C 	C 	0.58760 0.08760 0.90070 0.14500
H 	H 	0.60930 0.10930 0.87240 -0.00500
C 	C 	0.91240 0.41240 0.90070 0.14500
H 	H 	0.89070 0.39070 0.87240 -0.00500
C 	C 	0.08760 0.91240 0.40070 0.14500
H 	H 	0.10930 0.89070 0.37240 -0.00500
C 	C 	0.41240 0.58760 0.40070 0.14500
H 	H 	0.39070 0.60930 0.37240 -0.00500
