data_crystal

_cell_length_a 10.31830
_cell_length_b 10.75010
_cell_length_c 10.83150
_cell_angle_alpha 73.43600
_cell_angle_beta  79.64800
_cell_angle_gamma 83.26000

_symmetry_space_group_name_	'P 1'
_symmetry_space_group_name_H-M	'P 1'

loop_
_symmetry_equiv_pos_as_xyz
  x,y,z

loop_
_atom_site_label
_atom_site_type_symbol
_atom_site_fract_x
_atom_site_fract_y
_atom_site_fract_z
_atom_site_charge
Ti	Ti	0.08810 0.18350 0.29450 3.11600
Ti	Ti	0.48730 0.41680 0.30620 3.12000
Ti	Ti	0.89030 0.64090 0.32070 3.11800
P 	P 	0.93020 0.91620 0.37230 0.76400
P 	P 	0.15820 0.31940 0.98100 0.69400
P 	P 	0.40140 0.11600 0.31920 0.71600
P 	P 	0.16230 0.45340 0.34960 0.82100
P 	P 	0.79420 0.33700 0.35620 0.76400
P 	P 	0.56610 0.68680 0.36280 0.78700
P 	P 	0.45090 0.56770 0.00940 0.63100
O 	O 	0.03480 0.01260 0.30390 -0.68000
O 	O 	0.93170 0.86350 0.51790 -0.78100
O 	O 	0.79390 0.98770 0.34650 -0.47000
O 	O 	0.95930 0.80640 0.30440 -0.66200
O 	O 	0.09870 0.22480 0.10370 -0.64300
O 	O 	0.31040 0.29250 0.96200 -0.43200
O 	O 	0.12920 0.46370 0.99320 -0.43500
O 	O 	0.09630 0.30480 0.87110 -0.65900
O 	O 	0.26960 0.11050 0.27790 -0.68600
O 	O 	0.43730 0.25350 0.29260 -0.70300
O 	O 	0.39460 0.04080 0.46320 -0.23000
O 	O 	0.51390 0.04720 0.24060 -0.42100
O 	O 	0.14350 0.34960 0.28200 -0.76300
O 	O 	0.30670 0.48850 0.31600 -0.69800
O 	O 	0.07710 0.57760 0.29860 -0.67300
O 	O 	0.12200 0.39910 0.49660 -0.81900
O 	O 	0.67130 0.34020 0.29450 -0.66600
O 	O 	0.76230 0.27330 0.50780 -0.47900
O 	O 	0.90360 0.25330 0.29820 -0.70700
O 	O 	0.83740 0.47300 0.33460 -0.78800
O 	O 	0.54710 0.57900 0.30190 -0.75200
O 	O 	0.53000 0.63800 0.51040 -0.77100
O 	O 	0.71120 0.71730 0.32870 -0.71700
O 	O 	0.47650 0.80410 0.31220 -0.24000
O 	O 	0.50770 0.47460 0.11670 -0.80600
O 	O 	0.30080 0.59030 0.03780 -0.43700
O 	O 	0.49200 0.70200 0.99900 -0.18500
H 	H 	0.77990 0.04830 0.38010 0.31000
H 	H 	0.34330 0.34360 0.89500 0.28700
H 	H 	0.04920 0.48000 0.00780 0.22500
H 	H 	0.49780 0.97140 0.25260 0.34100
H 	H 	0.82870 0.26910 0.54090 0.29300
H 	H 	0.27430 0.64300 0.97470 0.31300
Ti	Ti	0.91190 0.81650 0.70550 3.11700
Ti	Ti	0.51270 0.58320 0.69380 3.12100
Ti	Ti	0.10970 0.35910 0.67930 3.11900
P 	P 	0.06980 0.08380 0.62770 0.76500
P 	P 	0.84180 0.68060 0.01900 0.69500
P 	P 	0.59860 0.88400 0.68080 0.71700
P 	P 	0.83770 0.54660 0.65040 0.82100
P 	P 	0.20580 0.66300 0.64380 0.76400
P 	P 	0.43390 0.31320 0.63720 0.78700
P 	P 	0.54910 0.43230 0.99060 0.63100
O 	O 	0.96520 0.98740 0.69610 -0.68000
O 	O 	0.06830 0.13650 0.48210 -0.78100
O 	O 	0.20610 0.01230 0.65350 -0.47000
O 	O 	0.04070 0.19360 0.69560 -0.66200
O 	O 	0.90130 0.77520 0.89630 -0.64300
O 	O 	0.68960 0.70750 0.03800 -0.43200
O 	O 	0.87080 0.53630 0.00680 -0.43500
O 	O 	0.90370 0.69520 0.12890 -0.65900
O 	O 	0.73040 0.88950 0.72210 -0.68600
O 	O 	0.56270 0.74650 0.70740 -0.70300
O 	O 	0.60540 0.95920 0.53680 -0.23000
O 	O 	0.48610 0.95280 0.75940 -0.42100
O 	O 	0.85650 0.65040 0.71800 -0.76300
O 	O 	0.69330 0.51150 0.68400 -0.69800
O 	O 	0.92290 0.42240 0.70140 -0.67300
O 	O 	0.87800 0.60090 0.50340 -0.81900
O 	O 	0.32870 0.65980 0.70550 -0.66600
O 	O 	0.23770 0.72670 0.49220 -0.47900
O 	O 	0.09640 0.74670 0.70180 -0.70700
O 	O 	0.16260 0.52700 0.66540 -0.78800
O 	O 	0.45290 0.42100 0.69810 -0.75200
O 	O 	0.47000 0.36200 0.48960 -0.77100
O 	O 	0.28880 0.28270 0.67130 -0.71700
O 	O 	0.52350 0.19590 0.68780 -0.24000
O 	O 	0.49230 0.52540 0.88330 -0.80600
O 	O 	0.69920 0.40970 0.96220 -0.43700
O 	O 	0.50800 0.29800 0.00100 -0.18500
H 	H 	0.22010 0.95170 0.61990 0.31000
H 	H 	0.65670 0.65640 0.10500 0.28700
H 	H 	0.95080 0.52000 0.99220 0.22500
H 	H 	0.50220 0.02860 0.74740 0.34100
H 	H 	0.17130 0.73090 0.45910 0.29300
H 	H 	0.72570 0.35700 0.02530 0.31300
