data_crystal

_cell_length_a 12.35500
_cell_length_b 33.45200
_cell_length_c 12.95200
_cell_angle_alpha 90.00000
_cell_angle_beta  97.63000
_cell_angle_gamma 90.00000

_symmetry_space_group_name_	'P 1'
_symmetry_space_group_name_H-M	'P 1'

loop_
_symmetry_equiv_pos_as_xyz
  x,y,z

loop_
_atom_site_label
_atom_site_type_symbol
_atom_site_fract_x
_atom_site_fract_y
_atom_site_fract_z
_atom_site_charge
Mn	Mn	0.79230 0.06795 0.39752 1.28500
N 	N 	0.61090 0.13092 0.30780 -0.13800
O 	O 	0.96640 0.05510 0.40290 -0.42800
O 	O 	0.72110 0.01273 0.34870 -0.50100
N 	N 	0.79290 0.08652 0.22790 -0.22600
N 	N 	0.63450 0.10029 0.37630 -0.24000
N 	N 	0.74060 0.12017 0.18940 -0.13300
C 	C 	0.82310 0.06754 0.14510 0.31200
O 	O 	0.92060 0.02624 0.61780 -0.47400
O 	O 	0.79530 0.06960 0.55910 -0.51400
O 	O 	0.93800 0.11949 0.41260 -0.26500
C 	C 	0.70140 0.14795 0.26080 -0.00900
H 	H 	0.67700 0.17280 0.22320 0.02300
H 	H 	0.76160 0.15490 0.31620 0.02600
C 	C 	0.76430 0.97961 0.37160 0.44300
C 	C 	0.00000 0.09088 0.40160 0.14600
C 	C 	0.28530 0.07079 0.34360 -0.16900
H 	H 	0.32610 0.04850 0.32450 0.07600
C 	C 	0.53750 0.08850 0.40140 0.26800
C 	C 	0.50300 0.13858 0.28930 0.24700
C 	C 	0.83470 0.06039 0.74100 -0.25900
C 	C 	0.45260 0.11209 0.34880 -0.24800
C 	C 	0.78870 0.08900 0.05360 -0.29600
C 	C 	0.33620 0.10776 0.35740 0.15400
C 	C 	0.70320 0.94259 0.33420 -0.22200
C 	C 	0.73610 0.12286 0.08430 0.28400
C 	C 	0.11640 0.09769 0.38460 -0.10500
C 	C 	0.85310 0.05111 0.62930 0.48600
C 	C 	0.80550 0.07887 0.94600 0.29000
C 	C 	0.16340 0.13518 0.39660 0.04000
H 	H 	0.12150 0.15750 0.41340 -0.00600
N 	N 	0.43730 0.78493 0.17290 -0.13100
C 	C 	0.88270 0.02849 0.15740 -0.71600
H 	H 	0.93210 0.02630 0.10440 0.24800
H 	H 	0.83000 0.00650 0.14890 0.23200
H 	H 	0.92510 0.02710 0.22680 0.24800
C 	C 	0.68170 0.15645 0.02210 -0.63300
H 	H 	0.71880 0.18160 0.04370 0.21700
H 	H 	0.60510 0.15810 0.03380 0.19700
H 	H 	0.68560 0.15180 0.94800 0.20700
C 	C 	0.50440 0.83902 0.24870 -0.24800
C 	C 	0.27270 0.13997 0.38370 -0.17300
H 	H 	0.30500 0.16570 0.39290 0.07000
C 	C 	0.57680 0.87473 0.27520 0.19400
C 	C 	0.53070 0.05402 0.47330 -0.67400
H 	H 	0.52610 0.02910 0.43330 0.20900
H 	H 	0.46550 0.05680 0.50840 0.22400
H 	H 	0.59590 0.05350 0.52530 0.20700
N 	N 	0.36860 0.79405 0.24750 -0.25400
C 	C 	0.41400 0.82623 0.29300 0.23400
C 	C 	0.51770 0.81177 0.17200 0.23200
C 	C 	0.73310 0.07000 0.76630 0.08700
H 	H 	0.67120 0.06950 0.71430 -0.01400
C 	C 	0.45600 0.16865 0.21250 -0.58500
H 	H 	0.49070 0.19460 0.22910 0.17300
H 	H 	0.37730 0.17090 0.21490 0.17900
H 	H 	0.46870 0.16040 0.14250 0.17500
C 	C 	0.58360 0.90240 0.21060 -0.24400
H 	H 	0.54650 0.89990 0.14180 0.09900
C 	C 	0.92130 0.05490 0.82200 0.09300
H 	H 	0.98880 0.04410 0.80750 0.02100
C 	C 	0.36930 0.84505 0.38440 -0.58100
H 	H 	0.37180 0.87420 0.37830 0.19300
H 	H 	0.41340 0.83670 0.44930 0.17300
H 	H 	0.29350 0.83650 0.38490 0.13600
C 	C 	0.60650 0.80933 0.10000 -0.57700
H 	H 	0.66680 0.79270 0.13260 0.18900
H 	H 	0.63360 0.83620 0.08820 0.19000
H 	H 	0.57570 0.79750 0.03330 0.17500
C 	C 	0.17700 0.06535 0.35690 0.03800
H 	H 	0.14430 0.03970 0.34710 0.00300
C 	C 	0.90770 0.06530 0.92320 -0.17800
H 	H 	0.96750 0.06330 0.97720 0.09300
C 	C 	0.72150 0.08040 0.86810 -0.17000
H 	H 	0.65200 0.08890 0.88340 0.07400
O 	O 	0.85570 0.97420 0.42380 -0.44800
C 	C 	0.71050 0.90750 0.39720 -0.35000
H 	H 	0.76730 0.90550 0.45400 0.14300
C 	C 	0.63120 0.87380 0.37640 0.18000
H 	H 	0.61940 0.85410 0.42640 -0.04100
C 	C 	0.64480 0.93670 0.23850 0.17300
H 	H 	0.64580 0.95720 0.18780 -0.02900
C 	C 	0.68820 0.87280 0.31260 -0.37500
H 	H 	0.72210 0.84730 0.32120 0.14600
C 	C 	0.75260 0.90730 0.33820 0.47300
H 	H 	0.82930 0.90530 0.35770 -0.10900
C 	C 	0.79280 0.04020 0.90820 -0.17500
H 	H 	0.77220 0.01930 0.95110 0.07900
C 	C 	0.81930 0.11080 0.87240 -0.17600
H 	H 	0.81540 0.13800 0.89280 0.08000
C 	C 	0.59260 0.94668 0.29260 -0.08500
H 	H 	0.56050 0.97250 0.28500 0.06000
C 	C 	0.52980 0.91260 0.26230 0.01200
H 	H 	0.45540 0.91540 0.23310 0.01600
C 	C 	0.83760 0.10140 0.77500 0.11000
H 	H 	0.85250 0.12200 0.72840 -0.01700
C 	C 	0.81090 0.03250 0.80540 0.10700
H 	H 	0.80570 0.00570 0.78120 -0.00900
Mn	Mn	0.20770 0.56795 0.60248 1.28600
N 	N 	0.38910 0.63092 0.69220 -0.13900
O 	O 	0.03360 0.55510 0.59710 -0.55100
O 	O 	0.27890 0.51273 0.65130 -0.49100
N 	N 	0.20710 0.58652 0.77210 -0.22500
N 	N 	0.36550 0.60029 0.62370 -0.24000
N 	N 	0.25940 0.62017 0.81060 -0.13600
C 	C 	0.17690 0.56754 0.85490 0.27500
O 	O 	0.07940 0.52624 0.38220 -0.53200
O 	O 	0.20470 0.56960 0.44090 -0.52400
O 	O 	0.06200 0.61949 0.58740 -0.38100
C 	C 	0.29860 0.64795 0.73920 -0.00400
H 	H 	0.32300 0.67280 0.77680 0.01600
H 	H 	0.23840 0.65490 0.68380 0.01300
C 	C 	0.23570 0.47961 0.62840 0.43500
C 	C 	-0.00000 0.59088 0.59840 0.26800
C 	C 	0.71470 0.57079 0.65640 -0.14900
H 	H 	0.67390 0.54850 0.67550 0.07600
C 	C 	0.46250 0.58850 0.59860 0.27000
C 	C 	0.49700 0.63858 0.71070 0.25300
C 	C 	0.16530 0.56039 0.25900 -0.28400
C 	C 	0.54740 0.61209 0.65120 -0.24500
C 	C 	0.21130 0.58900 0.94640 -0.30100
C 	C 	0.66380 0.60776 0.64260 0.14700
C 	C 	0.29680 0.44259 0.66580 -0.23200
C 	C 	0.26390 0.62286 0.91570 0.27900
C 	C 	0.88360 0.59769 0.61540 -0.04400
C 	C 	0.14690 0.55111 0.37070 0.50000
C 	C 	0.19450 0.57887 0.05400 0.30400
C 	C 	0.83660 0.63518 0.60340 0.02700
H 	H 	0.87850 0.65750 0.58660 0.04400
N 	N 	0.56270 0.28493 0.82710 -0.12900
C 	C 	0.11730 0.52849 0.84260 -0.62300
H 	H 	0.06790 0.52630 0.89560 0.18000
H 	H 	0.17000 0.50650 0.85110 0.19000
H 	H 	0.07490 0.52710 0.77320 0.18300
C 	C 	0.31830 0.65645 0.97790 -0.64500
H 	H 	0.28120 0.68160 0.95630 0.21000
H 	H 	0.39490 0.65810 0.96620 0.19800
H 	H 	0.31440 0.65180 0.05200 0.21200
C 	C 	0.49560 0.33902 0.75130 -0.24800
C 	C 	0.72730 0.63997 0.61630 -0.15000
H 	H 	0.69500 0.66570 0.60710 0.07200
C 	C 	0.42320 0.37473 0.72480 0.19700
C 	C 	0.46930 0.55402 0.52670 -0.68100
H 	H 	0.47390 0.52910 0.56670 0.21600
H 	H 	0.53450 0.55680 0.49160 0.22800
H 	H 	0.40410 0.55350 0.47470 0.21100
N 	N 	0.63140 0.29405 0.75250 -0.25300
C 	C 	0.58600 0.32623 0.70700 0.23700
C 	C 	0.48230 0.31177 0.82800 0.21800
C 	C 	0.26690 0.57000 0.23370 0.10100
H 	H 	0.32880 0.56950 0.28570 -0.01800
C 	C 	0.54400 0.66865 0.78750 -0.60100
H 	H 	0.50930 0.69460 0.77090 0.17900
H 	H 	0.62270 0.67090 0.78510 0.19500
H 	H 	0.53130 0.66040 0.85750 0.18300
C 	C 	0.41640 0.40240 0.78940 -0.25800
H 	H 	0.45350 0.39990 0.85820 0.09800
C 	C 	0.07870 0.55490 0.17800 0.09800
H 	H 	0.01120 0.54410 0.19250 -0.03400
C 	C 	0.63070 0.34505 0.61560 -0.59200
H 	H 	0.62820 0.37420 0.62170 0.19600
H 	H 	0.58660 0.33670 0.55070 0.17700
H 	H 	0.70650 0.33650 0.61510 0.14700
C 	C 	0.39350 0.30933 0.90000 -0.53700
H 	H 	0.33320 0.29270 0.86740 0.15900
H 	H 	0.36640 0.33620 0.91180 0.16400
H 	H 	0.42430 0.29750 0.96670 0.15700
C 	C 	0.82300 0.56535 0.64310 0.02700
H 	H 	0.85570 0.53970 0.65290 0.04100
C 	C 	0.09230 0.56530 0.07680 -0.19800
H 	H 	0.03250 0.56330 0.02280 0.06400
C 	C 	0.27850 0.58040 0.13190 -0.17600
H 	H 	0.34800 0.58890 0.11660 0.07800
O 	O 	0.14430 0.47420 0.57620 -0.49700
C 	C 	0.28950 0.40750 0.60280 -0.33300
H 	H 	0.23270 0.40550 0.54600 0.13200
C 	C 	0.36880 0.37380 0.62360 0.17200
H 	H 	0.38060 0.35410 0.57360 -0.04200
C 	C 	0.35520 0.43670 0.76150 0.17100
H 	H 	0.35420 0.45720 0.81220 -0.03900
C 	C 	0.31180 0.37280 0.68740 -0.37700
H 	H 	0.27790 0.34730 0.67880 0.12900
C 	C 	0.24740 0.40730 0.66180 0.46100
H 	H 	0.17070 0.40530 0.64230 -0.13800
C 	C 	0.20720 0.54020 0.09180 -0.18300
H 	H 	0.22780 0.51930 0.04890 0.07700
C 	C 	0.18070 0.61080 0.12760 -0.19100
H 	H 	0.18460 0.63800 0.10720 0.07400
C 	C 	0.40740 0.44668 0.70740 -0.08200
H 	H 	0.43950 0.47250 0.71500 0.05500
C 	C 	0.47020 0.41260 0.73770 0.01900
H 	H 	0.54460 0.41540 0.76690 0.01300
C 	C 	0.16240 0.60140 0.22500 0.11400
H 	H 	0.14750 0.62200 0.27160 -0.03800
C 	C 	0.18910 0.53250 0.19460 0.11300
H 	H 	0.19430 0.50570 0.21880 -0.02000
Mn	Mn	0.20770 0.93205 0.60248 1.28600
N 	N 	0.38910 0.86908 0.69220 -0.13900
O 	O 	0.03360 0.94490 0.59710 -0.54700
O 	O 	0.27890 0.98727 0.65130 -0.47400
N 	N 	0.20710 0.91348 0.77210 -0.22500
N 	N 	0.36550 0.89971 0.62370 -0.24000
N 	N 	0.25940 0.87983 0.81060 -0.13600
C 	C 	0.17690 0.93246 0.85490 0.28000
O 	O 	0.07940 0.97376 0.38220 -0.52400
O 	O 	0.20470 0.93040 0.44090 -0.52200
O 	O 	0.06200 0.88051 0.58740 -0.38100
C 	C 	0.29860 0.85205 0.73920 -0.00400
H 	H 	0.32300 0.82720 0.77680 0.01600
H 	H 	0.23840 0.84510 0.68380 0.01300
C 	C 	0.23570 0.02039 0.62840 0.41400
C 	C 	-0.00000 0.90912 0.59840 0.26700
C 	C 	0.71470 0.92921 0.65640 -0.14800
H 	H 	0.67390 0.95150 0.67550 0.07900
C 	C 	0.46250 0.91150 0.59860 0.27300
C 	C 	0.49700 0.86142 0.71070 0.25400
C 	C 	0.16530 0.93961 0.25900 -0.28100
C 	C 	0.54740 0.88791 0.65120 -0.24600
C 	C 	0.21130 0.91100 0.94640 -0.30200
C 	C 	0.66380 0.89224 0.64260 0.14800
C 	C 	0.29680 0.05741 0.66580 -0.22400
C 	C 	0.26390 0.87714 0.91570 0.28000
C 	C 	0.88360 0.90231 0.61540 -0.04400
C 	C 	0.14690 0.94889 0.37070 0.49800
C 	C 	0.19450 0.92113 0.05400 0.30300
C 	C 	0.83660 0.86482 0.60340 0.02700
H 	H 	0.87850 0.84250 0.58660 0.04400
N 	N 	0.56270 0.21507 0.82710 -0.12900
C 	C 	0.11730 0.97151 0.84260 -0.63600
H 	H 	0.06790 0.97370 0.89560 0.18700
H 	H 	0.17000 0.99350 0.85110 0.19900
H 	H 	0.07490 0.97290 0.77320 0.19000
C 	C 	0.31830 0.84355 0.97790 -0.64500
H 	H 	0.28120 0.81840 0.95630 0.21000
H 	H 	0.39490 0.84190 0.96620 0.19800
H 	H 	0.31440 0.84820 0.05200 0.21200
C 	C 	0.49560 0.16098 0.75130 -0.24600
C 	C 	0.72730 0.86003 0.61630 -0.15000
H 	H 	0.69500 0.83430 0.60710 0.07200
C 	C 	0.42320 0.12527 0.72480 0.19400
C 	C 	0.46930 0.94598 0.52670 -0.69000
H 	H 	0.47390 0.97090 0.56670 0.22300
H 	H 	0.53450 0.94320 0.49160 0.23300
H 	H 	0.40410 0.94650 0.47470 0.21500
N 	N 	0.63140 0.20595 0.75250 -0.25300
C 	C 	0.58600 0.17377 0.70700 0.23700
C 	C 	0.48230 0.18823 0.82800 0.21700
C 	C 	0.26690 0.93000 0.23370 0.10100
H 	H 	0.32880 0.93050 0.28570 -0.01700
C 	C 	0.54400 0.83135 0.78750 -0.60200
H 	H 	0.50930 0.80540 0.77090 0.17900
H 	H 	0.62270 0.82910 0.78510 0.19600
H 	H 	0.53130 0.83960 0.85750 0.18300
C 	C 	0.41640 0.09760 0.78940 -0.24600
H 	H 	0.45350 0.10010 0.85820 0.09400
C 	C 	0.07870 0.94510 0.17800 0.09800
H 	H 	0.01120 0.95590 0.19250 -0.03100
C 	C 	0.63070 0.15495 0.61560 -0.59200
H 	H 	0.62820 0.12580 0.62170 0.19600
H 	H 	0.58660 0.16330 0.55070 0.17700
H 	H 	0.70650 0.16350 0.61510 0.14700
C 	C 	0.39350 0.19067 0.90000 -0.53500
H 	H 	0.33320 0.20730 0.86740 0.15900
H 	H 	0.36640 0.16380 0.91180 0.16400
H 	H 	0.42430 0.20250 0.96670 0.15600
C 	C 	0.82300 0.93465 0.64310 0.02800
H 	H 	0.85570 0.96030 0.65290 0.04500
C 	C 	0.09230 0.93470 0.07680 -0.19700
H 	H 	0.03250 0.93670 0.02280 0.06500
C 	C 	0.27850 0.91960 0.13190 -0.17500
H 	H 	0.34800 0.91110 0.11660 0.07800
O 	O 	0.14430 0.02580 0.57620 -0.49600
C 	C 	0.28950 0.09250 0.60280 -0.31800
H 	H 	0.23270 0.09450 0.54600 0.12800
C 	C 	0.36880 0.12620 0.62360 0.16100
H 	H 	0.38060 0.14590 0.57360 -0.03800
C 	C 	0.35520 0.06330 0.76150 0.16000
H 	H 	0.35420 0.04280 0.81220 -0.03800
C 	C 	0.31180 0.12720 0.68740 -0.36400
H 	H 	0.27790 0.15270 0.67880 0.12500
C 	C 	0.24740 0.09270 0.66180 0.44000
H 	H 	0.17070 0.09470 0.64230 -0.13100
C 	C 	0.20720 0.95980 0.09180 -0.18200
H 	H 	0.22780 0.98070 0.04890 0.08000
C 	C 	0.18070 0.88920 0.12760 -0.19000
H 	H 	0.18460 0.86200 0.10720 0.07400
C 	C 	0.40740 0.05332 0.70740 -0.07500
H 	H 	0.43950 0.02750 0.71500 0.04800
C 	C 	0.47020 0.08740 0.73770 0.01000
H 	H 	0.54460 0.08460 0.76690 0.01600
C 	C 	0.16240 0.89860 0.22500 0.11200
H 	H 	0.14750 0.87800 0.27160 -0.03700
C 	C 	0.18910 0.96750 0.19460 0.11100
H 	H 	0.19430 0.99430 0.21880 -0.01400
Mn	Mn	0.79230 0.43205 0.39752 1.28600
N 	N 	0.61090 0.36908 0.30780 -0.13700
O 	O 	0.96640 0.44490 0.40290 -0.42500
O 	O 	0.72110 0.48727 0.34870 -0.48500
N 	N 	0.79290 0.41348 0.22790 -0.22600
N 	N 	0.63450 0.39971 0.37630 -0.24000
N 	N 	0.74060 0.37983 0.18940 -0.13200
C 	C 	0.82310 0.43246 0.14510 0.31700
O 	O 	0.92060 0.47376 0.61780 -0.46800
O 	O 	0.79530 0.43040 0.55910 -0.51200
O 	O 	0.93800 0.38051 0.41260 -0.26400
C 	C 	0.70140 0.35205 0.26080 -0.00900
H 	H 	0.67700 0.32720 0.22320 0.02300
H 	H 	0.76160 0.34510 0.31620 0.02600
C 	C 	0.76430 0.52039 0.37160 0.42300
C 	C 	0.00000 0.40912 0.40160 0.14600
C 	C 	0.28530 0.42921 0.34360 -0.16800
H 	H 	0.32610 0.45150 0.32450 0.07900
C 	C 	0.53750 0.41150 0.40140 0.27100
C 	C 	0.50300 0.36142 0.28930 0.24800
C 	C 	0.83470 0.43961 0.74100 -0.25800
C 	C 	0.45260 0.38791 0.34880 -0.24900
C 	C 	0.78870 0.41100 0.05360 -0.29700
C 	C 	0.33620 0.39224 0.35740 0.15500
C 	C 	0.70320 0.55741 0.33420 -0.21400
C 	C 	0.73610 0.37714 0.08430 0.28500
C 	C 	0.11640 0.40231 0.38460 -0.10400
C 	C 	0.85310 0.44889 0.62930 0.48500
C 	C 	0.80550 0.42113 0.94600 0.29000
C 	C 	0.16340 0.36482 0.39660 0.04000
H 	H 	0.12150 0.34250 0.41340 -0.00500
N 	N 	0.43730 0.71507 0.17290 -0.13100
C 	C 	0.88270 0.47151 0.15740 -0.72800
H 	H 	0.93210 0.47370 0.10440 0.25400
H 	H 	0.83000 0.49350 0.14890 0.24000
H 	H 	0.92510 0.47290 0.22680 0.25500
C 	C 	0.68170 0.34355 0.02210 -0.63500
H 	H 	0.71880 0.31840 0.04370 0.21800
H 	H 	0.60510 0.34190 0.03380 0.19700
H 	H 	0.68560 0.34820 0.94800 0.20700
C 	C 	0.50440 0.66098 0.24870 -0.24700
C 	C 	0.27270 0.36003 0.38370 -0.17300
H 	H 	0.30500 0.33430 0.39290 0.07000
C 	C 	0.57680 0.62527 0.27520 0.19200
C 	C 	0.53070 0.44598 0.47330 -0.68200
H 	H 	0.52610 0.47090 0.43330 0.21600
H 	H 	0.46550 0.44320 0.50840 0.22900
H 	H 	0.59590 0.44650 0.52530 0.21100
N 	N 	0.36860 0.70595 0.24750 -0.25400
C 	C 	0.41400 0.67377 0.29300 0.23400
C 	C 	0.51770 0.68823 0.17200 0.23100
C 	C 	0.73310 0.43000 0.76630 0.08800
H 	H 	0.67120 0.43050 0.71430 -0.01400
C 	C 	0.45600 0.33135 0.21250 -0.58600
H 	H 	0.49070 0.30540 0.22910 0.17300
H 	H 	0.37730 0.32910 0.21490 0.17900
H 	H 	0.46870 0.33960 0.14250 0.17600
C 	C 	0.58360 0.59760 0.21060 -0.23400
H 	H 	0.54650 0.60010 0.14180 0.09500
C 	C 	0.92130 0.44510 0.82200 0.09300
H 	H 	0.98880 0.45590 0.80750 0.02400
C 	C 	0.36930 0.65495 0.38440 -0.58100
H 	H 	0.37180 0.62580 0.37830 0.19300
H 	H 	0.41340 0.66330 0.44930 0.17300
H 	H 	0.29350 0.66350 0.38490 0.13600
C 	C 	0.60650 0.69067 0.10000 -0.57600
H 	H 	0.66680 0.70730 0.13260 0.18800
H 	H 	0.63360 0.66380 0.08820 0.18900
H 	H 	0.57570 0.70250 0.03330 0.17500
C 	C 	0.17700 0.43465 0.35690 0.03800
H 	H 	0.14430 0.46030 0.34710 0.00700
C 	C 	0.90770 0.43470 0.92320 -0.17800
H 	H 	0.96750 0.43670 0.97720 0.09400
C 	C 	0.72150 0.41960 0.86810 -0.17000
H 	H 	0.65200 0.41110 0.88340 0.07500
O 	O 	0.85570 0.52580 0.42380 -0.44900
C 	C 	0.71050 0.59250 0.39720 -0.33700
H 	H 	0.76730 0.59450 0.45400 0.13900
C 	C 	0.63120 0.62620 0.37640 0.17000
H 	H 	0.61940 0.64590 0.42640 -0.03800
C 	C 	0.64480 0.56330 0.23850 0.16200
H 	H 	0.64580 0.54280 0.18780 -0.02900
C 	C 	0.68820 0.62720 0.31260 -0.36300
H 	H 	0.72210 0.65270 0.32120 0.14200
C 	C 	0.75260 0.59270 0.33820 0.45400
H 	H 	0.82930 0.59470 0.35770 -0.10300
C 	C 	0.79280 0.45980 0.90820 -0.17300
H 	H 	0.77220 0.48070 0.95110 0.08200
C 	C 	0.81930 0.38920 0.87240 -0.17500
H 	H 	0.81540 0.36200 0.89280 0.08000
C 	C 	0.59260 0.55332 0.29260 -0.07900
H 	H 	0.56050 0.52750 0.28500 0.05300
C 	C 	0.52980 0.58740 0.26230 0.00400
H 	H 	0.45540 0.58460 0.23310 0.01800
C 	C 	0.83760 0.39860 0.77500 0.10900
H 	H 	0.85250 0.37800 0.72840 -0.01700
C 	C 	0.81090 0.46750 0.80540 0.10600
H 	H 	0.80570 0.49430 0.78120 -0.00300
Mn	Mn	0.00000 0.00000 0.50000 1.28100
Mn	Mn	0.00000 0.50000 0.50000 1.28700
C 	C 	0.41230 0.75000 0.10600 -0.02800
H 	H 	0.33440 0.75000 0.07590 0.03600
H 	H 	0.45760 0.75000 0.04840 0.02100
Mn	Mn	0.23316 0.75000 0.28068 1.17200
Cl	Cl	0.13400 0.75000 0.09830 -0.59500
C 	C 	0.58770 0.25000 0.89400 -0.03000
H 	H 	0.66560 0.25000 0.92410 0.03800
H 	H 	0.54240 0.25000 0.95160 0.02000
Mn	Mn	0.76684 0.25000 0.71932 1.18300
Cl	Cl	0.86600 0.25000 0.90170 -0.53800
