data_crystal

_cell_length_a 20.42900
_cell_length_b 22.74400
_cell_length_c 21.79200
_cell_angle_alpha 90.00000
_cell_angle_beta  108.78300
_cell_angle_gamma 90.00000

_symmetry_space_group_name_	'P 1'
_symmetry_space_group_name_H-M	'P 1'

loop_
_symmetry_equiv_pos_as_xyz
  x,y,z

loop_
_atom_site_label
_atom_site_type_symbol
_atom_site_fract_x
_atom_site_fract_y
_atom_site_fract_z
_atom_site_charge
N 	N 	0.77220 0.31130 0.93510 -0.24200
C 	C 	0.74850 0.31290 0.87020 0.08000
H 	H 	0.71830 0.28510 0.84270 -0.00600
N 	N 	0.77490 0.36070 0.85090 -0.08000
N 	N 	0.81490 0.38860 0.90390 -0.08800
C 	C 	0.81320 0.35810 0.95590 0.08500
H 	H 	0.83700 0.36780 0.99990 0.00700
C 	C 	0.76890 0.38460 0.78760 -0.11500
H 	H 	0.74880 0.42460 0.78350 0.06900
H 	H 	0.73740 0.35960 0.75350 0.06300
C 	C 	0.83860 0.38720 0.77800 0.07900
C 	C 	0.86420 0.33600 0.75960 -0.09300
H 	H 	0.83820 0.30060 0.75400 0.06200
C 	C 	0.92780 0.33650 0.74920 -0.03200
H 	H 	0.94530 0.30150 0.73660 0.03900
C 	C 	0.96570 0.38820 0.75730 -0.00100
C 	C 	0.94010 0.43940 0.77580 -0.02800
H 	H 	0.96610 0.47470 0.78130 0.04400
C 	C 	0.87660 0.43890 0.78610 -0.09200
H 	H 	0.85900 0.47390 0.79880 0.06700
N 	N 	0.63710 0.25970 0.95460 -0.23300
C 	C 	0.59560 0.27310 0.99010 0.10200
H 	H 	0.61000 0.27830 0.03580 -0.02000
N 	N 	0.53010 0.27780 0.94910 -0.08300
N 	N 	0.53100 0.26740 0.88820 -0.08900
C 	C 	0.59720 0.25620 0.89160 0.08600
H 	H 	0.61290 0.24740 0.85610 -0.00200
C 	C 	0.46870 0.29160 0.96530 -0.08900
H 	H 	0.43600 0.31290 0.92840 0.06500
H 	H 	0.48140 0.31840 0.00310 0.04600
C 	C 	0.43180 0.23760 0.98110 0.09300
C 	C 	0.36260 0.22770 0.94560 -0.10100
H 	H 	0.33990 0.25210 0.90970 0.06500
C 	C 	0.32660 0.18190 0.96300 -0.00700
H 	H 	0.27940 0.17520 0.93880 0.03700
C 	C 	0.35980 0.14610 0.01570 -0.00600
C 	C 	0.42900 0.15600 0.05120 -0.02200
H 	H 	0.45170 0.13160 0.08710 0.04400
C 	C 	0.46500 0.20180 0.03380 -0.11300
H 	H 	0.51220 0.20850 0.05800 0.07100
N 	N 	0.24990 0.82250 0.06470 -0.23500
C 	C 	0.21400 0.87260 0.04240 0.03900
H 	H 	0.18580 0.87990 0.99900 0.01700
N 	N 	0.22550 0.91040 0.09300 -0.06900
N 	N 	0.26840 0.88370 0.14660 -0.09200
C 	C 	0.28350 0.82940 0.12910 0.08300
H 	H 	0.31250 0.80110 0.15700 -0.00300
C 	C 	0.19790 0.96800 0.09090 -0.14200
H 	H 	0.15060 0.96890 0.05940 0.06700
H 	H 	0.19490 0.97820 0.13410 0.07500
C 	C 	0.24220 0.01350 0.07150 0.12100
C 	C 	0.28250 0.05210 0.11770 -0.13000
H 	H 	0.28330 0.04930 0.16140 0.07500
C 	C 	0.32170 0.09460 0.09990 0.00700
H 	H 	0.34930 0.12100 0.13150 0.03200
C 	C 	0.32050 0.09860 0.03610 -0.04600
C 	C 	0.28010 0.06010 0.98990 0.06000
H 	H 	0.27930 0.06280 0.94620 0.01800
C 	C 	0.24100 0.01750 0.00770 -0.18200
H 	H 	0.21330 0.99110 0.97610 0.10200
N 	N 	0.27220 0.81130 0.93510 -0.24100
C 	C 	0.24850 0.81290 0.87020 0.08100
H 	H 	0.21830 0.78510 0.84270 -0.00600
N 	N 	0.27490 0.86070 0.85090 -0.08000
N 	N 	0.31490 0.88860 0.90390 -0.08900
C 	C 	0.31320 0.85810 0.95590 0.08500
H 	H 	0.33700 0.86780 0.99990 0.00700
C 	C 	0.26890 0.88460 0.78760 -0.11500
H 	H 	0.24880 0.92460 0.78350 0.06800
H 	H 	0.23740 0.85960 0.75350 0.06300
C 	C 	0.33860 0.88720 0.77800 0.07800
C 	C 	0.36420 0.83600 0.75960 -0.09200
H 	H 	0.33820 0.80060 0.75400 0.06200
C 	C 	0.42780 0.83650 0.74920 -0.03200
H 	H 	0.44530 0.80150 0.73660 0.03900
C 	C 	0.46570 0.88820 0.75730 0.00000
C 	C 	0.44010 0.93940 0.77580 -0.02800
H 	H 	0.46610 0.97470 0.78130 0.04400
C 	C 	0.37660 0.93890 0.78610 -0.09200
H 	H 	0.35900 0.97390 0.79880 0.06700
N 	N 	0.13710 0.75970 0.95460 -0.23300
C 	C 	0.09560 0.77310 0.99010 0.10200
H 	H 	0.11000 0.77830 0.03580 -0.02000
N 	N 	0.03010 0.77780 0.94910 -0.08300
N 	N 	0.03100 0.76740 0.88820 -0.08900
C 	C 	0.09720 0.75620 0.89160 0.08600
H 	H 	0.11290 0.74740 0.85610 -0.00200
C 	C 	0.96870 0.79160 0.96530 -0.09100
H 	H 	0.93600 0.81290 0.92840 0.06500
H 	H 	0.98140 0.81840 0.00310 0.04600
C 	C 	0.93180 0.73760 0.98110 0.09100
C 	C 	0.86260 0.72770 0.94560 -0.10000
H 	H 	0.83990 0.75210 0.90970 0.06400
C 	C 	0.82660 0.68190 0.96300 -0.00800
H 	H 	0.77940 0.67520 0.93880 0.03700
C 	C 	0.85980 0.64610 0.01570 -0.00500
C 	C 	0.92900 0.65600 0.05120 -0.02300
H 	H 	0.95170 0.63160 0.08710 0.04400
C 	C 	0.96500 0.70180 0.03380 -0.11100
H 	H 	0.01220 0.70850 0.05800 0.07100
N 	N 	0.74990 0.32250 0.06470 -0.23500
C 	C 	0.71400 0.37260 0.04240 0.03900
H 	H 	0.68580 0.37990 0.99900 0.01700
N 	N 	0.72550 0.41040 0.09300 -0.06900
N 	N 	0.76840 0.38370 0.14660 -0.09200
C 	C 	0.78350 0.32940 0.12910 0.08300
H 	H 	0.81250 0.30110 0.15700 -0.00300
C 	C 	0.69790 0.46800 0.09090 -0.14100
H 	H 	0.65060 0.46890 0.05940 0.06700
H 	H 	0.69490 0.47820 0.13410 0.07600
C 	C 	0.74220 0.51350 0.07150 0.12100
C 	C 	0.78250 0.55210 0.11770 -0.13000
H 	H 	0.78330 0.54930 0.16140 0.07500
C 	C 	0.82170 0.59460 0.09990 0.00800
H 	H 	0.84930 0.62100 0.13150 0.03200
C 	C 	0.82050 0.59860 0.03610 -0.04700
C 	C 	0.78010 0.56010 0.98990 0.06100
H 	H 	0.77930 0.56280 0.94620 0.01600
C 	C 	0.74100 0.51750 0.00770 -0.18600
H 	H 	0.71330 0.49110 0.97610 0.10500
N 	N 	0.22780 0.31130 0.56490 -0.24500
C 	C 	0.25150 0.31290 0.62980 0.08100
H 	H 	0.28170 0.28510 0.65730 -0.00600
N 	N 	0.22510 0.36070 0.64910 -0.08000
N 	N 	0.18510 0.38860 0.59610 -0.09000
C 	C 	0.18680 0.35810 0.54410 0.08400
H 	H 	0.16300 0.36780 0.50010 0.00100
C 	C 	0.23110 0.38460 0.71240 -0.11500
H 	H 	0.25120 0.42460 0.71650 0.06900
H 	H 	0.26260 0.35960 0.74650 0.06300
C 	C 	0.16140 0.38720 0.72200 0.07800
C 	C 	0.13580 0.33600 0.74040 -0.09200
H 	H 	0.16180 0.30060 0.74600 0.06200
C 	C 	0.07220 0.33650 0.75080 -0.03300
H 	H 	0.05470 0.30150 0.76340 0.03900
C 	C 	0.03430 0.38820 0.74270 0.00100
C 	C 	0.05990 0.43940 0.72420 -0.02900
H 	H 	0.03390 0.47470 0.71870 0.04400
C 	C 	0.12340 0.43890 0.71390 -0.09100
H 	H 	0.14100 0.47390 0.70120 0.06600
N 	N 	0.36290 0.25970 0.54540 -0.23200
C 	C 	0.40440 0.27310 0.50990 0.07100
H 	H 	0.39000 0.27830 0.46420 -0.00100
N 	N 	0.46990 0.27780 0.55090 -0.07700
N 	N 	0.46900 0.26740 0.61180 -0.09000
C 	C 	0.40280 0.25620 0.60840 0.08500
H 	H 	0.38710 0.24740 0.64390 -0.00200
C 	C 	0.53130 0.29160 0.53470 -0.11100
H 	H 	0.56400 0.31290 0.57160 0.06900
H 	H 	0.51860 0.31840 0.49690 0.06300
C 	C 	0.56820 0.23760 0.51890 0.07000
C 	C 	0.63740 0.22770 0.55440 -0.08600
H 	H 	0.66010 0.25210 0.59030 0.05900
C 	C 	0.67340 0.18190 0.53700 -0.03300
H 	H 	0.72060 0.17520 0.56120 0.04200
C 	C 	0.64020 0.14610 0.48430 0.00500
C 	C 	0.57100 0.15600 0.44880 -0.03400
H 	H 	0.54830 0.13160 0.41290 0.04800
C 	C 	0.53500 0.20180 0.46620 -0.08300
H 	H 	0.48780 0.20850 0.44200 0.06500
N 	N 	0.75010 0.82250 0.43530 -0.23700
C 	C 	0.78600 0.87260 0.45760 0.06900
H 	H 	0.81420 0.87990 0.50100 -0.00200
N 	N 	0.77450 0.91040 0.40700 -0.07600
N 	N 	0.73160 0.88370 0.35340 -0.09200
C 	C 	0.71650 0.82940 0.37090 0.08400
H 	H 	0.68750 0.80110 0.34300 -0.00300
C 	C 	0.80210 0.96800 0.40910 -0.11400
H 	H 	0.84940 0.96890 0.44060 0.06300
H 	H 	0.80510 0.97820 0.36590 0.06800
C 	C 	0.75780 0.01350 0.42850 0.07200
C 	C 	0.71750 0.05210 0.38230 -0.08600
H 	H 	0.71670 0.04930 0.33860 0.06100
C 	C 	0.67830 0.09460 0.40010 -0.03400
H 	H 	0.65070 0.12100 0.36850 0.04600
C 	C 	0.67950 0.09860 0.46390 0.00500
C 	C 	0.71990 0.06010 0.51010 -0.03400
H 	H 	0.72070 0.06280 0.55380 0.04500
C 	C 	0.75900 0.01750 0.49230 -0.08200
H 	H 	0.78670 0.99110 0.52390 0.05900
N 	N 	0.72780 0.81130 0.56490 -0.24500
C 	C 	0.75150 0.81290 0.62980 0.08100
H 	H 	0.78170 0.78510 0.65730 -0.00600
N 	N 	0.72510 0.86070 0.64910 -0.08000
N 	N 	0.68510 0.88860 0.59610 -0.09000
C 	C 	0.68680 0.85810 0.54410 0.08400
H 	H 	0.66300 0.86780 0.50010 0.00100
C 	C 	0.73110 0.88460 0.71240 -0.11500
H 	H 	0.75120 0.92460 0.71650 0.06800
H 	H 	0.76260 0.85960 0.74650 0.06300
C 	C 	0.66140 0.88720 0.72200 0.07800
C 	C 	0.63580 0.83600 0.74040 -0.09300
H 	H 	0.66180 0.80060 0.74600 0.06200
C 	C 	0.57220 0.83650 0.75080 -0.03200
H 	H 	0.55470 0.80150 0.76340 0.03900
C 	C 	0.53430 0.88820 0.74270 0.00000
C 	C 	0.55990 0.93940 0.72420 -0.02900
H 	H 	0.53390 0.97470 0.71870 0.04300
C 	C 	0.62340 0.93890 0.71390 -0.09100
H 	H 	0.64100 0.97390 0.70120 0.06600
N 	N 	0.86290 0.75970 0.54540 -0.23200
C 	C 	0.90440 0.77310 0.50990 0.07100
H 	H 	0.89000 0.77830 0.46420 -0.00200
N 	N 	0.96990 0.77780 0.55090 -0.07800
N 	N 	0.96900 0.76740 0.61180 -0.09000
C 	C 	0.90280 0.75620 0.60840 0.08500
H 	H 	0.88710 0.74740 0.64390 -0.00200
C 	C 	0.03130 0.79160 0.53470 -0.11100
H 	H 	0.06400 0.81290 0.57160 0.06900
H 	H 	0.01860 0.81840 0.49690 0.06300
C 	C 	0.06820 0.73760 0.51890 0.07000
C 	C 	0.13740 0.72770 0.55440 -0.08600
H 	H 	0.16010 0.75210 0.59030 0.05900
C 	C 	0.17340 0.68190 0.53700 -0.03400
H 	H 	0.22060 0.67520 0.56120 0.04200
C 	C 	0.14020 0.64610 0.48430 0.00500
C 	C 	0.07100 0.65600 0.44880 -0.03500
H 	H 	0.04830 0.63160 0.41290 0.04800
C 	C 	0.03500 0.70180 0.46620 -0.08300
H 	H 	0.98780 0.70850 0.44200 0.06500
N 	N 	0.25010 0.32250 0.43530 -0.23700
C 	C 	0.28600 0.37260 0.45760 0.06900
H 	H 	0.31420 0.37990 0.50100 -0.00200
N 	N 	0.27450 0.41040 0.40700 -0.07600
N 	N 	0.23160 0.38370 0.35340 -0.09100
C 	C 	0.21650 0.32940 0.37090 0.08400
H 	H 	0.18750 0.30110 0.34300 -0.00300
C 	C 	0.30210 0.46800 0.40910 -0.11200
H 	H 	0.34940 0.46890 0.44060 0.06300
H 	H 	0.30510 0.47820 0.36590 0.06800
C 	C 	0.25780 0.51350 0.42850 0.07200
C 	C 	0.21750 0.55210 0.38230 -0.08700
H 	H 	0.21670 0.54930 0.33860 0.06100
C 	C 	0.17830 0.59460 0.40010 -0.03300
H 	H 	0.15070 0.62100 0.36850 0.04600
C 	C 	0.17950 0.59860 0.46390 0.00400
C 	C 	0.21990 0.56010 0.51010 -0.03200
H 	H 	0.22070 0.56280 0.55380 0.04400
C 	C 	0.25900 0.51750 0.49230 -0.08700
H 	H 	0.28670 0.49110 0.52390 0.06200
N 	N 	0.22780 0.68870 0.06490 -0.24700
C 	C 	0.25150 0.68710 0.12980 0.08100
H 	H 	0.28170 0.71490 0.15730 -0.00700
N 	N 	0.22510 0.63930 0.14910 -0.08000
N 	N 	0.18510 0.61140 0.09610 -0.09100
C 	C 	0.18680 0.64190 0.04410 0.08300
H 	H 	0.16300 0.63220 0.00010 -0.00500
C 	C 	0.23110 0.61540 0.21240 -0.11500
H 	H 	0.25120 0.57540 0.21650 0.06800
H 	H 	0.26260 0.64040 0.24650 0.06300
C 	C 	0.16140 0.61280 0.22200 0.07700
C 	C 	0.13580 0.66400 0.24040 -0.09200
H 	H 	0.16180 0.69940 0.24600 0.06100
C 	C 	0.07220 0.66350 0.25080 -0.03200
H 	H 	0.05470 0.69850 0.26340 0.03800
C 	C 	0.03430 0.61180 0.24270 0.00000
C 	C 	0.05990 0.56060 0.22420 -0.02900
H 	H 	0.03390 0.52530 0.21870 0.04300
C 	C 	0.12340 0.56110 0.21390 -0.09200
H 	H 	0.14100 0.52610 0.20120 0.06500
N 	N 	0.36290 0.74030 0.04540 -0.23000
C 	C 	0.40440 0.72690 0.00990 0.04100
H 	H 	0.39000 0.72170 0.96420 0.01800
N 	N 	0.46990 0.72220 0.05090 -0.07200
N 	N 	0.46900 0.73260 0.11180 -0.09100
C 	C 	0.40280 0.74380 0.10840 0.08400
H 	H 	0.38710 0.75260 0.14390 -0.00200
C 	C 	0.53130 0.70840 0.03470 -0.13300
H 	H 	0.56400 0.68710 0.07160 0.07300
H 	H 	0.51860 0.68160 0.99690 0.08100
C 	C 	0.56820 0.76240 0.01890 0.04800
C 	C 	0.63740 0.77230 0.05440 -0.07100
H 	H 	0.66010 0.74790 0.09030 0.05200
C 	C 	0.67340 0.81810 0.03700 -0.06000
H 	H 	0.72060 0.82480 0.06120 0.04700
C 	C 	0.64020 0.85390 0.98430 0.01700
C 	C 	0.57100 0.84400 0.94880 -0.04600
H 	H 	0.54830 0.86840 0.91290 0.05200
C 	C 	0.53500 0.79820 0.96620 -0.05300
H 	H 	0.48780 0.79150 0.94200 0.05800
N 	N 	0.75010 0.17750 0.93530 -0.23800
C 	C 	0.78600 0.12740 0.95760 0.09900
H 	H 	0.81420 0.12010 0.00100 -0.02100
N 	N 	0.77450 0.08960 0.90700 -0.08400
N 	N 	0.73160 0.11630 0.85340 -0.09000
C 	C 	0.71650 0.17060 0.87090 0.08500
H 	H 	0.68750 0.19890 0.84300 -0.00300
C 	C 	0.80210 0.03200 0.90910 -0.08300
H 	H 	0.84940 0.03110 0.94060 0.05900
H 	H 	0.80510 0.02180 0.86590 0.06200
C 	C 	0.75780 0.98650 0.92850 0.02400
C 	C 	0.71750 0.94790 0.88230 -0.04400
H 	H 	0.71670 0.95070 0.83860 0.04700
C 	C 	0.67830 0.90540 0.90010 -0.07200
H 	H 	0.65070 0.87900 0.86850 0.05900
C 	C 	0.67950 0.90140 0.96390 0.05300
C 	C 	0.71990 0.93990 0.01010 -0.12100
H 	H 	0.72070 0.93720 0.05380 0.07000
C 	C 	0.75900 0.98250 0.99230 0.00700
H 	H 	0.78670 0.00890 0.02390 0.02300
N 	N 	0.72780 0.18870 0.06490 -0.24700
C 	C 	0.75150 0.18710 0.12980 0.08100
H 	H 	0.78170 0.21490 0.15730 -0.00700
N 	N 	0.72510 0.13930 0.14910 -0.08000
N 	N 	0.68510 0.11140 0.09610 -0.09100
C 	C 	0.68680 0.14190 0.04410 0.08300
H 	H 	0.66300 0.13220 0.00010 -0.00500
C 	C 	0.73110 0.11540 0.21240 -0.11500
H 	H 	0.75120 0.07540 0.21650 0.06800
H 	H 	0.76260 0.14040 0.24650 0.06300
C 	C 	0.66140 0.11280 0.22200 0.07800
C 	C 	0.63580 0.16400 0.24040 -0.09300
H 	H 	0.66180 0.19940 0.24600 0.06200
C 	C 	0.57220 0.16350 0.25080 -0.03200
H 	H 	0.55470 0.19850 0.26340 0.03800
C 	C 	0.53430 0.11180 0.24270 0.00000
C 	C 	0.55990 0.06060 0.22420 -0.02900
H 	H 	0.53390 0.02530 0.21870 0.04300
C 	C 	0.62340 0.06110 0.21390 -0.09200
H 	H 	0.64100 0.02610 0.20120 0.06600
N 	N 	0.86290 0.24030 0.04540 -0.23000
C 	C 	0.90440 0.22690 0.00990 0.04100
H 	H 	0.89000 0.22170 0.96420 0.01700
N 	N 	0.96990 0.22220 0.05090 -0.07200
N 	N 	0.96900 0.23260 0.11180 -0.09100
C 	C 	0.90280 0.24380 0.10840 0.08400
H 	H 	0.88710 0.25260 0.14390 -0.00200
C 	C 	0.03130 0.20840 0.03470 -0.13300
H 	H 	0.06400 0.18710 0.07160 0.07400
H 	H 	0.01860 0.18160 0.99690 0.08100
C 	C 	0.06820 0.26240 0.01890 0.04800
C 	C 	0.13740 0.27230 0.05440 -0.07100
H 	H 	0.16010 0.24790 0.09030 0.05200
C 	C 	0.17340 0.31810 0.03700 -0.06000
H 	H 	0.22060 0.32480 0.06120 0.04700
C 	C 	0.14020 0.35390 0.98430 0.01700
C 	C 	0.07100 0.34400 0.94880 -0.04700
H 	H 	0.04830 0.36840 0.91290 0.05300
C 	C 	0.03500 0.29820 0.96620 -0.05200
H 	H 	0.98780 0.29150 0.94200 0.05800
N 	N 	0.25010 0.67750 0.93530 -0.23800
C 	C 	0.28600 0.62740 0.95760 0.09900
H 	H 	0.31420 0.62010 0.00100 -0.02200
N 	N 	0.27450 0.58960 0.90700 -0.08400
N 	N 	0.23160 0.61630 0.85340 -0.09000
C 	C 	0.21650 0.67060 0.87090 0.08500
H 	H 	0.18750 0.69890 0.84300 -0.00300
C 	C 	0.30210 0.53200 0.90910 -0.08400
H 	H 	0.34940 0.53110 0.94060 0.05900
H 	H 	0.30510 0.52180 0.86590 0.06200
C 	C 	0.25780 0.48650 0.92850 0.02300
C 	C 	0.21750 0.44790 0.88230 -0.04200
H 	H 	0.21670 0.45070 0.83860 0.04700
C 	C 	0.17830 0.40540 0.90010 -0.07400
H 	H 	0.15070 0.37900 0.86850 0.06000
C 	C 	0.17950 0.40140 0.96390 0.05600
C 	C 	0.21990 0.43990 0.01010 -0.12600
H 	H 	0.22070 0.43720 0.05380 0.07200
C 	C 	0.25900 0.48250 0.99230 0.01500
H 	H 	0.28670 0.50890 0.02390 0.01900
N 	N 	0.77220 0.68870 0.43510 -0.24500
C 	C 	0.74850 0.68710 0.37020 0.08100
H 	H 	0.71830 0.71490 0.34270 -0.00700
N 	N 	0.77490 0.63930 0.35090 -0.08000
N 	N 	0.81490 0.61140 0.40390 -0.09000
C 	C 	0.81320 0.64190 0.45590 0.08400
H 	H 	0.83700 0.63220 0.49990 0.00100
C 	C 	0.76890 0.61540 0.28760 -0.11400
H 	H 	0.74880 0.57540 0.28350 0.06700
H 	H 	0.73740 0.64040 0.25350 0.06200
C 	C 	0.83860 0.61280 0.27800 0.07700
C 	C 	0.86420 0.66400 0.25960 -0.09200
H 	H 	0.83820 0.69940 0.25400 0.06100
C 	C 	0.92780 0.66350 0.24920 -0.03200
H 	H 	0.94530 0.69850 0.23660 0.03800
C 	C 	0.96570 0.61180 0.25730 0.00000
C 	C 	0.94010 0.56060 0.27580 -0.02900
H 	H 	0.96610 0.52530 0.28130 0.04300
C 	C 	0.87660 0.56110 0.28610 -0.09200
H 	H 	0.85900 0.52610 0.29880 0.06600
N 	N 	0.63710 0.74030 0.45460 -0.23200
C 	C 	0.59560 0.72690 0.49010 0.07100
H 	H 	0.61000 0.72170 0.53580 -0.00100
N 	N 	0.53010 0.72220 0.44910 -0.07700
N 	N 	0.53100 0.73260 0.38820 -0.09000
C 	C 	0.59720 0.74380 0.39160 0.08500
H 	H 	0.61290 0.75260 0.35610 -0.00200
C 	C 	0.46870 0.70840 0.46530 -0.11100
H 	H 	0.43600 0.68710 0.42840 0.06900
H 	H 	0.48140 0.68160 0.50310 0.06300
C 	C 	0.43180 0.76240 0.48110 0.07000
C 	C 	0.36260 0.77230 0.44560 -0.08600
H 	H 	0.33990 0.74790 0.40970 0.05800
C 	C 	0.32660 0.81810 0.46300 -0.03400
H 	H 	0.27940 0.82480 0.43880 0.04200
C 	C 	0.35980 0.85390 0.51570 0.00500
C 	C 	0.42900 0.84400 0.55120 -0.03500
H 	H 	0.45170 0.86840 0.58710 0.04800
C 	C 	0.46500 0.79820 0.53380 -0.08300
H 	H 	0.51220 0.79150 0.55800 0.06500
N 	N 	0.24990 0.17750 0.56470 -0.23700
C 	C 	0.21400 0.12740 0.54240 0.06900
H 	H 	0.18580 0.12010 0.49900 -0.00200
N 	N 	0.22550 0.08960 0.59300 -0.07600
N 	N 	0.26840 0.11630 0.64660 -0.09100
C 	C 	0.28350 0.17060 0.62910 0.08400
H 	H 	0.31250 0.19890 0.65700 -0.00300
C 	C 	0.19790 0.03200 0.59090 -0.11100
H 	H 	0.15060 0.03110 0.55940 0.06300
H 	H 	0.19490 0.02180 0.63410 0.06900
C 	C 	0.24220 0.98650 0.57150 0.07200
C 	C 	0.28250 0.94790 0.61770 -0.08700
H 	H 	0.28330 0.95070 0.66140 0.06100
C 	C 	0.32170 0.90540 0.59990 -0.03200
H 	H 	0.34930 0.87900 0.63150 0.04500
C 	C 	0.32050 0.90140 0.53610 0.00300
C 	C 	0.28010 0.93990 0.48990 -0.02900
H 	H 	0.27930 0.93720 0.44620 0.04300
C 	C 	0.24100 0.98250 0.50770 -0.09100
H 	H 	0.21330 0.00890 0.47610 0.06500
N 	N 	0.27220 0.18870 0.43510 -0.24500
C 	C 	0.24850 0.18710 0.37020 0.08100
H 	H 	0.21830 0.21490 0.34270 -0.00600
N 	N 	0.27490 0.13930 0.35090 -0.08000
N 	N 	0.31490 0.11140 0.40390 -0.09000
C 	C 	0.31320 0.14190 0.45590 0.08400
H 	H 	0.33700 0.13220 0.49990 0.00100
C 	C 	0.26890 0.11540 0.28760 -0.11500
H 	H 	0.24880 0.07540 0.28350 0.06800
H 	H 	0.23740 0.14040 0.25350 0.06200
C 	C 	0.33860 0.11280 0.27800 0.07800
C 	C 	0.36420 0.16400 0.25960 -0.09200
H 	H 	0.33820 0.19940 0.25400 0.06100
C 	C 	0.42780 0.16350 0.24920 -0.03200
H 	H 	0.44530 0.19850 0.23660 0.03800
C 	C 	0.46570 0.11180 0.25730 0.00000
C 	C 	0.44010 0.06060 0.27580 -0.02800
H 	H 	0.46610 0.02530 0.28130 0.04400
C 	C 	0.37660 0.06110 0.28610 -0.09200
H 	H 	0.35900 0.02610 0.29880 0.06600
N 	N 	0.13710 0.24030 0.45460 -0.23200
C 	C 	0.09560 0.22690 0.49010 0.07100
H 	H 	0.11000 0.22170 0.53580 -0.00100
N 	N 	0.03010 0.22220 0.44910 -0.07700
N 	N 	0.03100 0.23260 0.38820 -0.09000
C 	C 	0.09720 0.24380 0.39160 0.08500
H 	H 	0.11290 0.25260 0.35610 -0.00200
C 	C 	0.96870 0.20840 0.46530 -0.11200
H 	H 	0.93600 0.18710 0.42840 0.06900
H 	H 	0.98140 0.18160 0.50310 0.06400
C 	C 	0.93180 0.26240 0.48110 0.07100
C 	C 	0.86260 0.27230 0.44560 -0.08600
H 	H 	0.83990 0.24790 0.40970 0.05900
C 	C 	0.82660 0.31810 0.46300 -0.03300
H 	H 	0.77940 0.32480 0.43880 0.04200
C 	C 	0.85980 0.35390 0.51570 0.00500
C 	C 	0.92900 0.34400 0.55120 -0.03400
H 	H 	0.95170 0.36840 0.58710 0.04800
C 	C 	0.96500 0.29820 0.53380 -0.08400
H 	H 	0.01220 0.29150 0.55800 0.06500
N 	N 	0.74990 0.67750 0.56470 -0.23700
C 	C 	0.71400 0.62740 0.54240 0.06900
H 	H 	0.68580 0.62010 0.49900 -0.00200
N 	N 	0.72550 0.58960 0.59300 -0.07600
N 	N 	0.76840 0.61630 0.64660 -0.09100
C 	C 	0.78350 0.67060 0.62910 0.08400
H 	H 	0.81250 0.69890 0.65700 -0.00300
C 	C 	0.69790 0.53200 0.59090 -0.11300
H 	H 	0.65060 0.53110 0.55940 0.06300
H 	H 	0.69490 0.52180 0.63410 0.06900
C 	C 	0.74220 0.48650 0.57150 0.07200
C 	C 	0.78250 0.44790 0.61770 -0.08700
H 	H 	0.78330 0.45070 0.66140 0.06100
C 	C 	0.82170 0.40540 0.59990 -0.03300
H 	H 	0.84930 0.37900 0.63150 0.04600
C 	C 	0.82050 0.40140 0.53610 0.00400
C 	C 	0.78010 0.43990 0.48990 -0.03200
H 	H 	0.77930 0.43720 0.44620 0.04400
C 	C 	0.74100 0.48250 0.50770 -0.08700
H 	H 	0.71330 0.50890 0.47610 0.06200
Co	Co	0.75000 0.25000 -0.00000 1.10700
Co	Co	0.25000 0.25000 0.50000 1.11300
Co	Co	0.25000 0.75000 -0.00000 1.10700
Co	Co	0.75000 0.75000 0.50000 1.11300
