data_crystal

_cell_length_a 23.47400
_cell_length_b 23.47400
_cell_length_c 6.69260
_cell_angle_alpha 90.00000
_cell_angle_beta  90.00000
_cell_angle_gamma 90.00000

_symmetry_space_group_name_	'P 1'
_symmetry_space_group_name_H-M	'P 1'

loop_
_symmetry_equiv_pos_as_xyz
  x,y,z

loop_
_atom_site_label
_atom_site_type_symbol
_atom_site_fract_x
_atom_site_fract_y
_atom_site_fract_z
_atom_site_charge
O 	O 	0.61465 0.23751 0.81530 -0.41600
O 	O 	0.38535 0.76249 0.81530 -0.41600
O 	O 	0.76249 0.61465 0.81530 -0.41600
O 	O 	0.23751 0.38535 0.81530 -0.41600
O 	O 	0.88535 0.73751 0.68470 -0.44000
O 	O 	0.11465 0.26249 0.68470 -0.44000
O 	O 	0.73751 0.11465 0.68470 -0.44000
O 	O 	0.26249 0.88535 0.68470 -0.44000
O 	O 	0.38535 0.76249 0.18470 -0.48500
O 	O 	0.61465 0.23751 0.18470 -0.48500
O 	O 	0.23751 0.38535 0.18470 -0.48500
O 	O 	0.76249 0.61465 0.18470 -0.48500
O 	O 	0.11465 0.26249 0.31530 -0.48000
O 	O 	0.88535 0.73751 0.31530 -0.48000
O 	O 	0.26249 0.88535 0.31530 -0.48000
O 	O 	0.73751 0.11465 0.31530 -0.48000
In	In	0.12300 0.27548 -0.00000 1.99500
P 	P 	0.60476 0.20059 -0.00000 0.42900
C 	C 	0.51500 0.12370 -0.00000 0.03200
H 	H 	0.54300 0.09570 -0.00000 0.02300
O 	O 	0.63910 0.14540 -0.00000 -0.56000
O 	O 	0.21820 0.25190 -0.00000 -0.46300
O 	O 	0.15420 0.18470 -0.00000 -0.44300
C 	C 	0.53010 0.17970 -0.00000 -0.11600
C 	C 	0.20570 0.19990 -0.00000 0.31100
O 	O 	0.21550 0.97900 -0.00000 -0.33800
O 	O 	0.30670 0.96170 -0.00000 -0.52000
C 	C 	0.41380 0.14770 -0.00000 0.07100
C 	C 	0.30850 0.17140 -0.00000 -0.02200
H 	H 	0.31780 0.20990 -0.00000 0.04900
C 	C 	0.27960 0.05820 -0.00000 -0.08500
C 	C 	0.35240 0.13200 -0.00000 -0.03400
C 	C 	0.23740 0.09860 -0.00000 0.00400
H 	H 	0.19930 0.08760 -0.00000 0.06500
C 	C 	0.25210 0.15620 -0.00000 -0.07300
C 	C 	0.43080 0.20350 -0.00000 -0.13100
H 	H 	0.40330 0.23200 -0.00000 0.07600
C 	C 	0.26570 0.99630 -0.00000 0.33100
C 	C 	0.48870 0.21890 -0.00000 0.03800
H 	H 	0.49840 0.25730 -0.00000 0.02300
C 	C 	0.33650 0.07430 -0.00000 -0.01900
H 	H 	0.36460 0.04640 -0.00000 0.04700
C 	C 	0.45600 0.10790 -0.00000 -0.13200
H 	H 	0.44630 0.06950 -0.00000 0.06700
In	In	0.87700 0.72452 -0.00000 1.99500
P 	P 	0.39524 0.79941 -0.00000 0.42900
C 	C 	0.48500 0.87630 -0.00000 0.03200
H 	H 	0.45700 0.90430 -0.00000 0.02300
O 	O 	0.36090 0.85460 -0.00000 -0.56000
O 	O 	0.78180 0.74810 -0.00000 -0.46300
O 	O 	0.84580 0.81530 -0.00000 -0.44300
C 	C 	0.46990 0.82030 -0.00000 -0.11600
C 	C 	0.79430 0.80010 -0.00000 0.31100
O 	O 	0.78450 0.02100 -0.00000 -0.33800
O 	O 	0.69330 0.03830 -0.00000 -0.52000
C 	C 	0.58620 0.85230 -0.00000 0.07100
C 	C 	0.69150 0.82860 -0.00000 -0.02200
H 	H 	0.68220 0.79010 -0.00000 0.04900
C 	C 	0.72040 0.94180 -0.00000 -0.08500
C 	C 	0.64760 0.86800 -0.00000 -0.03400
C 	C 	0.76260 0.90140 -0.00000 0.00400
H 	H 	0.80070 0.91240 -0.00000 0.06500
C 	C 	0.74790 0.84380 -0.00000 -0.07300
C 	C 	0.56920 0.79650 -0.00000 -0.13100
H 	H 	0.59670 0.76800 -0.00000 0.07600
C 	C 	0.73430 0.00370 -0.00000 0.33100
C 	C 	0.51130 0.78110 -0.00000 0.03800
H 	H 	0.50160 0.74270 -0.00000 0.02300
C 	C 	0.66350 0.92570 -0.00000 -0.01900
H 	H 	0.63540 0.95360 -0.00000 0.04700
C 	C 	0.54400 0.89210 -0.00000 -0.13200
H 	H 	0.55370 0.93050 -0.00000 0.06700
In	In	0.72452 0.12300 -0.00000 1.99500
P 	P 	0.79941 0.60476 -0.00000 0.42900
C 	C 	0.87630 0.51500 -0.00000 0.03200
H 	H 	0.90430 0.54300 -0.00000 0.02300
O 	O 	0.85460 0.63910 -0.00000 -0.56000
O 	O 	0.74810 0.21820 -0.00000 -0.46300
O 	O 	0.81530 0.15420 -0.00000 -0.44300
C 	C 	0.82030 0.53010 -0.00000 -0.11600
C 	C 	0.80010 0.20570 -0.00000 0.31100
O 	O 	0.02100 0.21550 -0.00000 -0.33800
O 	O 	0.03830 0.30670 -0.00000 -0.52000
C 	C 	0.85230 0.41380 -0.00000 0.07100
C 	C 	0.82860 0.30850 -0.00000 -0.02200
H 	H 	0.79010 0.31780 -0.00000 0.04900
C 	C 	0.94180 0.27960 -0.00000 -0.08500
C 	C 	0.86800 0.35240 -0.00000 -0.03400
C 	C 	0.90140 0.23740 -0.00000 0.00400
H 	H 	0.91240 0.19930 -0.00000 0.06500
C 	C 	0.84380 0.25210 -0.00000 -0.07300
C 	C 	0.79650 0.43080 -0.00000 -0.13100
H 	H 	0.76800 0.40330 -0.00000 0.07600
C 	C 	0.00370 0.26570 -0.00000 0.33100
C 	C 	0.78110 0.48870 -0.00000 0.03800
H 	H 	0.74270 0.49840 -0.00000 0.02300
C 	C 	0.92570 0.33650 -0.00000 -0.01900
H 	H 	0.95360 0.36460 -0.00000 0.04700
C 	C 	0.89210 0.45600 -0.00000 -0.13200
H 	H 	0.93050 0.44630 -0.00000 0.06700
In	In	0.27548 0.87700 -0.00000 1.99500
P 	P 	0.20059 0.39524 -0.00000 0.42900
C 	C 	0.12370 0.48500 -0.00000 0.03200
H 	H 	0.09570 0.45700 -0.00000 0.02300
O 	O 	0.14540 0.36090 -0.00000 -0.56000
O 	O 	0.25190 0.78180 -0.00000 -0.46300
O 	O 	0.18470 0.84580 -0.00000 -0.44300
C 	C 	0.17970 0.46990 -0.00000 -0.11600
C 	C 	0.19990 0.79430 -0.00000 0.31100
O 	O 	0.97900 0.78450 -0.00000 -0.33800
O 	O 	0.96170 0.69330 -0.00000 -0.52000
C 	C 	0.14770 0.58620 -0.00000 0.07100
C 	C 	0.17140 0.69150 -0.00000 -0.02200
H 	H 	0.20990 0.68220 -0.00000 0.04900
C 	C 	0.05820 0.72040 -0.00000 -0.08500
C 	C 	0.13200 0.64760 -0.00000 -0.03400
C 	C 	0.09860 0.76260 -0.00000 0.00400
H 	H 	0.08760 0.80070 -0.00000 0.06500
C 	C 	0.15620 0.74790 -0.00000 -0.07300
C 	C 	0.20350 0.56920 -0.00000 -0.13100
H 	H 	0.23200 0.59670 -0.00000 0.07600
C 	C 	0.99630 0.73430 -0.00000 0.33100
C 	C 	0.21890 0.51130 -0.00000 0.03800
H 	H 	0.25730 0.50160 -0.00000 0.02300
C 	C 	0.07430 0.66350 -0.00000 -0.01900
H 	H 	0.04640 0.63540 -0.00000 0.04700
C 	C 	0.10790 0.54400 -0.00000 -0.13200
H 	H 	0.06950 0.55370 -0.00000 0.06700
In	In	0.37700 0.77548 0.50000 2.00400
P 	P 	0.89524 0.70059 0.50000 0.48700
C 	C 	0.98500 0.62370 0.50000 0.04300
H 	H 	0.95700 0.59570 0.50000 0.04100
O 	O 	0.86090 0.64540 0.50000 -0.53300
O 	O 	0.28180 0.75190 0.50000 -0.42700
O 	O 	0.34580 0.68470 0.50000 -0.42100
C 	C 	0.96990 0.67970 0.50000 -0.09000
C 	C 	0.29430 0.69990 0.50000 0.31100
O 	O 	0.28450 0.47900 0.50000 -0.31300
O 	O 	0.19330 0.46170 0.50000 -0.48700
C 	C 	0.08620 0.64770 0.50000 0.08400
C 	C 	0.19150 0.67140 0.50000 -0.02300
H 	H 	0.18220 0.70990 0.50000 0.07400
C 	C 	0.22040 0.55820 0.50000 -0.05000
C 	C 	0.14760 0.63200 0.50000 0.00200
C 	C 	0.26260 0.59860 0.50000 0.00000
H 	H 	0.30070 0.58760 0.50000 0.08000
C 	C 	0.24790 0.65620 0.50000 -0.04000
C 	C 	0.06920 0.70350 0.50000 -0.10500
H 	H 	0.09670 0.73200 0.50000 0.09600
C 	C 	0.23430 0.49630 0.50000 0.33600
C 	C 	0.01130 0.71890 0.50000 0.05000
H 	H 	0.00160 0.75730 0.50000 0.05200
C 	C 	0.16350 0.57430 0.50000 -0.01600
H 	H 	0.13540 0.54640 0.50000 0.06800
C 	C 	0.04400 0.60790 0.50000 -0.10800
H 	H 	0.05370 0.56950 0.50000 0.08100
In	In	0.62300 0.22452 0.50000 2.00400
P 	P 	0.10476 0.29941 0.50000 0.48700
C 	C 	0.01500 0.37630 0.50000 0.04300
H 	H 	0.04300 0.40430 0.50000 0.04100
O 	O 	0.13910 0.35460 0.50000 -0.53300
O 	O 	0.71820 0.24810 0.50000 -0.42700
O 	O 	0.65420 0.31530 0.50000 -0.42100
C 	C 	0.03010 0.32030 0.50000 -0.09000
C 	C 	0.70570 0.30010 0.50000 0.31100
O 	O 	0.71550 0.52100 0.50000 -0.31300
O 	O 	0.80670 0.53830 0.50000 -0.48700
C 	C 	0.91380 0.35230 0.50000 0.08400
C 	C 	0.80850 0.32860 0.50000 -0.02300
H 	H 	0.81780 0.29010 0.50000 0.07400
C 	C 	0.77960 0.44180 0.50000 -0.05000
C 	C 	0.85240 0.36800 0.50000 0.00200
C 	C 	0.73740 0.40140 0.50000 0.00000
H 	H 	0.69930 0.41240 0.50000 0.08000
C 	C 	0.75210 0.34380 0.50000 -0.04000
C 	C 	0.93080 0.29650 0.50000 -0.10500
H 	H 	0.90330 0.26800 0.50000 0.09600
C 	C 	0.76570 0.50370 0.50000 0.33600
C 	C 	0.98870 0.28110 0.50000 0.05000
H 	H 	0.99840 0.24270 0.50000 0.05200
C 	C 	0.83650 0.42570 0.50000 -0.01600
H 	H 	0.86460 0.45360 0.50000 0.06800
C 	C 	0.95600 0.39210 0.50000 -0.10800
H 	H 	0.94630 0.43050 0.50000 0.08100
In	In	0.77548 0.62300 0.50000 2.00400
P 	P 	0.70059 0.10476 0.50000 0.48700
C 	C 	0.62370 0.01500 0.50000 0.04300
H 	H 	0.59570 0.04300 0.50000 0.04100
O 	O 	0.64540 0.13910 0.50000 -0.53300
O 	O 	0.75190 0.71820 0.50000 -0.42700
O 	O 	0.68470 0.65420 0.50000 -0.42100
C 	C 	0.67970 0.03010 0.50000 -0.09000
C 	C 	0.69990 0.70570 0.50000 0.31100
O 	O 	0.47900 0.71550 0.50000 -0.31300
O 	O 	0.46170 0.80670 0.50000 -0.48700
C 	C 	0.64770 0.91380 0.50000 0.08400
C 	C 	0.67140 0.80850 0.50000 -0.02300
H 	H 	0.70990 0.81780 0.50000 0.07400
C 	C 	0.55820 0.77960 0.50000 -0.05000
C 	C 	0.63200 0.85240 0.50000 0.00200
C 	C 	0.59860 0.73740 0.50000 0.00000
H 	H 	0.58760 0.69930 0.50000 0.08000
C 	C 	0.65620 0.75210 0.50000 -0.04000
C 	C 	0.70350 0.93080 0.50000 -0.10500
H 	H 	0.73200 0.90330 0.50000 0.09600
C 	C 	0.49630 0.76570 0.50000 0.33600
C 	C 	0.71890 0.98870 0.50000 0.05000
H 	H 	0.75730 0.99840 0.50000 0.05200
C 	C 	0.57430 0.83650 0.50000 -0.01600
H 	H 	0.54640 0.86460 0.50000 0.06800
C 	C 	0.60790 0.95600 0.50000 -0.10800
H 	H 	0.56950 0.94630 0.50000 0.08100
In	In	0.22452 0.37700 0.50000 2.00400
P 	P 	0.29941 0.89524 0.50000 0.48700
C 	C 	0.37630 0.98500 0.50000 0.04300
H 	H 	0.40430 0.95700 0.50000 0.04100
O 	O 	0.35460 0.86090 0.50000 -0.53300
O 	O 	0.24810 0.28180 0.50000 -0.42700
O 	O 	0.31530 0.34580 0.50000 -0.42100
C 	C 	0.32030 0.96990 0.50000 -0.09000
C 	C 	0.30010 0.29430 0.50000 0.31100
O 	O 	0.52100 0.28450 0.50000 -0.31300
O 	O 	0.53830 0.19330 0.50000 -0.48700
C 	C 	0.35230 0.08620 0.50000 0.08400
C 	C 	0.32860 0.19150 0.50000 -0.02300
H 	H 	0.29010 0.18220 0.50000 0.07400
C 	C 	0.44180 0.22040 0.50000 -0.05000
C 	C 	0.36800 0.14760 0.50000 0.00200
C 	C 	0.40140 0.26260 0.50000 0.00000
H 	H 	0.41240 0.30070 0.50000 0.08000
C 	C 	0.34380 0.24790 0.50000 -0.04000
C 	C 	0.29650 0.06920 0.50000 -0.10500
H 	H 	0.26800 0.09670 0.50000 0.09600
C 	C 	0.50370 0.23430 0.50000 0.33600
C 	C 	0.28110 0.01130 0.50000 0.05000
H 	H 	0.24270 0.00160 0.50000 0.05200
C 	C 	0.42570 0.16350 0.50000 -0.01600
H 	H 	0.45360 0.13540 0.50000 0.06800
C 	C 	0.39210 0.04400 0.50000 -0.10800
H 	H 	0.43050 0.05370 0.50000 0.08100
