data_crystal

_cell_length_a 25.23780
_cell_length_b 8.68720
_cell_length_c 18.81390
_cell_angle_alpha 90.00000
_cell_angle_beta  130.44700
_cell_angle_gamma 90.00000

_symmetry_space_group_name_	'P 1'
_symmetry_space_group_name_H-M	'P 1'

loop_
_symmetry_equiv_pos_as_xyz
  x,y,z

loop_
_atom_site_label
_atom_site_type_symbol
_atom_site_fract_x
_atom_site_fract_y
_atom_site_fract_z
_atom_site_charge
Co	Co	0.12867 0.20514 0.06328 1.11300
N 	N 	0.18500 0.04400 0.05540 -0.24100
O 	O 	0.07510 0.34190 0.09070 -0.55200
O 	O 	0.14910 0.17570 0.19790 -0.38600
O 	O 	0.05130 0.46140 0.45060 -0.43800
O 	O 	0.08550 0.69370 0.43960 -0.46300
O 	O 	0.06310 0.67270 0.10460 -0.40400
O 	O 	0.14760 0.79490 0.25530 -0.25600
O 	O 	0.18380 0.58360 0.21060 -0.27900
S 	S 	0.12754 0.65140 0.20211 0.47900
C 	C 	0.11010 0.28720 0.17370 0.32100
C 	C 	0.10280 0.36090 0.23900 -0.05100
C 	C 	0.10710 0.51850 0.25370 -0.07800
C 	C 	0.09800 0.57920 0.31350 0.01800
H 	H 	0.10150 0.68490 0.32370 0.04400
C 	C 	0.08370 0.48270 0.35840 -0.11000
C 	C 	0.08000 0.32560 0.34390 0.00500
H 	H 	0.07040 0.26040 0.37350 0.02400
C 	C 	0.09040 0.26400 0.28610 -0.05600
H 	H 	0.08910 0.15790 0.27850 0.04500
C 	C 	0.07220 0.55190 0.42070 0.36000
C 	C 	0.20110 0.06870 0.00060 -0.11000
H 	H 	0.19360 0.16680 0.97570 0.06800
C 	C 	0.22720 0.96170 0.97960 0.08000
H 	H 	0.23850 0.98730 0.94280 0.01700
C 	C 	0.23730 0.81230 0.01270 -0.08400
C 	C 	0.22180 0.78760 0.07050 -0.05100
H 	H 	0.22840 0.69030 0.09570 0.06100
C 	C 	0.19730 0.90320 0.09060 0.07000
H 	H 	0.18860 0.88300 0.13090 0.01200
Co	Co	0.62867 0.70514 0.06328 1.12400
N 	N 	0.68500 0.54400 0.05540 -0.23300
O 	O 	0.57510 0.84190 0.09070 -0.52100
O 	O 	0.64910 0.67570 0.19790 -0.37300
O 	O 	0.55130 0.96140 0.45060 -0.37000
O 	O 	0.58550 0.19370 0.43960 -0.43600
O 	O 	0.56310 0.17270 0.10460 -0.39000
O 	O 	0.64760 0.29490 0.25530 -0.26000
O 	O 	0.68380 0.08360 0.21060 -0.29300
S 	S 	0.62754 0.15140 0.20211 0.47700
C 	C 	0.61010 0.78720 0.17370 0.32000
C 	C 	0.60280 0.86090 0.23900 -0.02200
C 	C 	0.60710 0.01850 0.25370 -0.08300
C 	C 	0.59800 0.07920 0.31350 -0.04900
H 	H 	0.60150 0.18490 0.32370 0.07000
C 	C 	0.58370 0.98270 0.35840 0.00200
C 	C 	0.58000 0.82560 0.34390 -0.03600
H 	H 	0.57040 0.76040 0.37350 0.05700
C 	C 	0.59040 0.76400 0.28610 -0.02700
H 	H 	0.58910 0.65790 0.27850 0.05200
C 	C 	0.57220 0.05190 0.42070 0.27400
C 	C 	0.70110 0.56870 0.00060 -0.02100
H 	H 	0.69360 0.66680 0.97570 0.04100
C 	C 	0.72720 0.46170 0.97960 -0.00100
H 	H 	0.73850 0.48730 0.94280 0.03600
C 	C 	0.73730 0.31230 0.01270 -0.06400
C 	C 	0.72180 0.28760 0.07050 -0.05500
H 	H 	0.72840 0.19030 0.09570 0.05800
C 	C 	0.69730 0.40320 0.09060 0.04000
H 	H 	0.68860 0.38300 0.13090 0.01600
Co	Co	0.87133 0.20514 0.43672 1.12600
N 	N 	0.81500 0.04400 0.44460 -0.26700
O 	O 	0.92490 0.34190 0.40930 -0.50700
O 	O 	0.85090 0.17570 0.30210 -0.37800
O 	O 	0.94870 0.46140 0.04940 -0.38900
O 	O 	0.91450 0.69370 0.06040 -0.43700
O 	O 	0.93690 0.67270 0.39540 -0.34500
O 	O 	0.85240 0.79490 0.24470 -0.24100
O 	O 	0.81620 0.58360 0.28940 -0.27700
S 	S 	0.87246 0.65140 0.29789 0.47300
C 	C 	0.88990 0.28720 0.32630 0.32500
C 	C 	0.89720 0.36090 0.26100 -0.03700
C 	C 	0.89290 0.51850 0.24630 -0.05600
C 	C 	0.90200 0.57920 0.18650 0.02200
H 	H 	0.89850 0.68490 0.17630 0.06000
C 	C 	0.91630 0.48270 0.14160 -0.08100
C 	C 	0.92000 0.32560 0.15610 0.01100
H 	H 	0.92960 0.26040 0.12650 0.04800
C 	C 	0.90960 0.26400 0.21390 -0.03400
H 	H 	0.91090 0.15790 0.22150 0.06100
C 	C 	0.92780 0.55190 0.07930 0.36400
C 	C 	0.79890 0.06870 0.49940 0.02400
H 	H 	0.80640 0.16680 0.52430 0.01000
C 	C 	0.77280 0.96170 0.52040 -0.07000
H 	H 	0.76150 0.98730 0.55720 0.06900
C 	C 	0.76270 0.81230 0.48730 0.04400
C 	C 	0.77820 0.78760 0.42950 -0.13400
H 	H 	0.77160 0.69030 0.40430 0.09300
C 	C 	0.80270 0.90320 0.40940 0.12400
H 	H 	0.81140 0.88300 0.36910 -0.00100
Co	Co	0.37133 0.70514 0.43672 1.12800
N 	N 	0.31500 0.54400 0.44460 -0.25700
O 	O 	0.42490 0.84190 0.40930 -0.51800
O 	O 	0.35090 0.67570 0.30210 -0.37100
O 	O 	0.44870 0.96140 0.04940 -0.37200
O 	O 	0.41450 0.19370 0.06040 -0.44100
O 	O 	0.43690 0.17270 0.39540 -0.38500
O 	O 	0.35240 0.29490 0.24470 -0.25900
O 	O 	0.31620 0.08360 0.28940 -0.29200
S 	S 	0.37246 0.15140 0.29789 0.47600
C 	C 	0.38990 0.78720 0.32630 0.32000
C 	C 	0.39720 0.86090 0.26100 -0.02300
C 	C 	0.39290 0.01850 0.24630 -0.08100
C 	C 	0.40200 0.07920 0.18650 -0.05300
H 	H 	0.39850 0.18490 0.17630 0.07200
C 	C 	0.41630 0.98270 0.14160 0.00500
C 	C 	0.42000 0.82560 0.15610 -0.03900
H 	H 	0.42960 0.76040 0.12650 0.05500
C 	C 	0.40960 0.76400 0.21390 -0.02600
H 	H 	0.41090 0.65790 0.22150 0.05200
C 	C 	0.42780 0.05190 0.07930 0.26900
C 	C 	0.29890 0.56870 0.49940 0.08500
H 	H 	0.30640 0.66680 0.52430 -0.00400
C 	C 	0.27280 0.46170 0.52040 -0.13300
H 	H 	0.26150 0.48730 0.55720 0.08100
C 	C 	0.26270 0.31230 0.48730 0.05300
C 	C 	0.27820 0.28760 0.42950 -0.12800
H 	H 	0.27160 0.19030 0.40430 0.08800
C 	C 	0.30270 0.40320 0.40940 0.08800
H 	H 	0.31140 0.38300 0.36910 0.00100
Co	Co	0.87133 0.79486 0.93672 1.13600
N 	N 	0.81500 0.95600 0.94460 -0.27800
O 	O 	0.92490 0.65810 0.90930 -0.49800
O 	O 	0.85090 0.82430 0.80210 -0.36100
O 	O 	0.94870 0.53860 0.54940 -0.38600
O 	O 	0.91450 0.30630 0.56040 -0.44100
O 	O 	0.93690 0.32730 0.89540 -0.34900
O 	O 	0.85240 0.20510 0.74470 -0.26100
O 	O 	0.81620 0.41640 0.78940 -0.28000
S 	S 	0.87246 0.34860 0.79789 0.47600
C 	C 	0.88990 0.71280 0.82630 0.32100
C 	C 	0.89720 0.63910 0.76100 -0.02900
C 	C 	0.89290 0.48150 0.74630 -0.06300
C 	C 	0.90200 0.42080 0.68650 0.02700
H 	H 	0.89850 0.31510 0.67630 0.05100
C 	C 	0.91630 0.51730 0.64160 -0.08500
C 	C 	0.92000 0.67440 0.65610 0.01700
H 	H 	0.92960 0.73960 0.62650 0.05400
C 	C 	0.90960 0.73600 0.71390 -0.04100
H 	H 	0.91090 0.84210 0.72150 0.07500
C 	C 	0.92780 0.44810 0.57930 0.36500
C 	C 	0.79890 0.93130 0.99940 0.25600
H 	H 	0.80640 0.83320 0.02430 -0.06800
C 	C 	0.77280 0.03830 0.02040 -0.34100
H 	H 	0.76150 0.01270 0.05720 0.14100
C 	C 	0.76270 0.18770 0.98730 0.20500
C 	C 	0.77820 0.21240 0.92950 -0.22100
H 	H 	0.77160 0.30970 0.90430 0.12600
C 	C 	0.80270 0.09680 0.90940 0.11900
H 	H 	0.81140 0.11700 0.86910 -0.01400
Co	Co	0.37133 0.29486 0.93672 1.12800
N 	N 	0.31500 0.45600 0.94460 -0.29300
O 	O 	0.42490 0.15810 0.90930 -0.53000
O 	O 	0.35090 0.32430 0.80210 -0.37300
O 	O 	0.44870 0.03860 0.54940 -0.45800
O 	O 	0.41450 0.80630 0.56040 -0.46900
O 	O 	0.43690 0.82730 0.89540 -0.36900
O 	O 	0.35240 0.70510 0.74470 -0.25700
O 	O 	0.31620 0.91640 0.78940 -0.26800
S 	S 	0.37246 0.84860 0.79789 0.47900
C 	C 	0.38990 0.21280 0.82630 0.32200
C 	C 	0.39720 0.13910 0.76100 -0.05300
C 	C 	0.39290 0.98150 0.74630 -0.06200
C 	C 	0.40200 0.92080 0.68650 0.09100
H 	H 	0.39850 0.81510 0.67630 0.02700
C 	C 	0.41630 0.01730 0.64160 -0.18900
C 	C 	0.42000 0.17440 0.65610 0.05700
H 	H 	0.42960 0.23960 0.62650 0.02300
C 	C 	0.40960 0.23600 0.71390 -0.07000
H 	H 	0.41090 0.34210 0.72150 0.06900
C 	C 	0.42780 0.94810 0.57930 0.44700
C 	C 	0.29890 0.43130 0.99940 0.22600
H 	H 	0.30640 0.33320 0.02430 -0.07200
C 	C 	0.27280 0.53830 0.02040 -0.30700
H 	H 	0.26150 0.51270 0.05720 0.14000
C 	C 	0.26270 0.68770 0.98730 0.21200
C 	C 	0.27820 0.71240 0.92950 -0.23500
H 	H 	0.27160 0.80970 0.90430 0.13500
C 	C 	0.30270 0.59680 0.90940 0.15300
H 	H 	0.31140 0.61700 0.86910 -0.02000
Co	Co	0.12867 0.79486 0.56328 1.12400
N 	N 	0.18500 0.95600 0.55540 -0.25600
O 	O 	0.07510 0.65810 0.59070 -0.54400
O 	O 	0.14910 0.82430 0.69790 -0.37000
O 	O 	0.05130 0.53860 0.95060 -0.42800
O 	O 	0.08550 0.30630 0.93960 -0.46200
O 	O 	0.06310 0.32730 0.60460 -0.40900
O 	O 	0.14760 0.20510 0.75530 -0.27400
O 	O 	0.18380 0.41640 0.71060 -0.28100
S 	S 	0.12754 0.34860 0.70211 0.48200
C 	C 	0.11010 0.71280 0.67370 0.31700
C 	C 	0.10280 0.63910 0.73900 -0.04400
C 	C 	0.10710 0.48150 0.75370 -0.08300
C 	C 	0.09800 0.42080 0.81350 0.02300
H 	H 	0.10150 0.31510 0.82370 0.03700
C 	C 	0.08370 0.51730 0.85840 -0.11100
C 	C 	0.08000 0.67440 0.84390 0.01100
H 	H 	0.07040 0.73960 0.87350 0.03300
C 	C 	0.09040 0.73600 0.78610 -0.06000
H 	H 	0.08910 0.84210 0.77850 0.06000
C 	C 	0.07220 0.44810 0.92070 0.36000
C 	C 	0.20110 0.93130 0.50060 0.15300
H 	H 	0.19360 0.83320 0.47570 -0.02800
C 	C 	0.22720 0.03830 0.47960 -0.21200
H 	H 	0.23850 0.01270 0.44280 0.09800
C 	C 	0.23730 0.18770 0.51270 0.08800
C 	C 	0.22180 0.21240 0.57050 -0.14500
H 	H 	0.22840 0.30970 0.59570 0.09600
C 	C 	0.19730 0.09680 0.59060 0.06500
H 	H 	0.18860 0.11700 0.63090 -0.00100
Co	Co	0.62867 0.29486 0.56328 1.12200
N 	N 	0.68500 0.45600 0.55540 -0.26400
O 	O 	0.57510 0.15810 0.59070 -0.53900
O 	O 	0.64910 0.32430 0.69790 -0.37600
O 	O 	0.55130 0.03860 0.95060 -0.44600
O 	O 	0.58550 0.80630 0.93960 -0.46100
O 	O 	0.56310 0.82730 0.60460 -0.37500
O 	O 	0.64760 0.70510 0.75530 -0.25800
O 	O 	0.68380 0.91640 0.71060 -0.26900
S 	S 	0.62754 0.84860 0.70211 0.47800
C 	C 	0.61010 0.21280 0.67370 0.32500
C 	C 	0.60280 0.13910 0.73900 -0.05800
C 	C 	0.60710 0.98150 0.75370 -0.05800
C 	C 	0.59800 0.92080 0.81350 0.08400
H 	H 	0.60150 0.81510 0.82370 0.02900
C 	C 	0.58370 0.01730 0.85840 -0.17800
C 	C 	0.58000 0.17440 0.84390 0.05100
H 	H 	0.57040 0.23960 0.87350 0.02800
C 	C 	0.59040 0.23600 0.78610 -0.06300
H 	H 	0.58910 0.34210 0.77850 0.06700
C 	C 	0.57220 0.94810 0.92070 0.43900
C 	C 	0.70110 0.43130 0.50060 0.09500
H 	H 	0.69360 0.33320 0.47570 -0.01500
C 	C 	0.72720 0.53830 0.47960 -0.15200
H 	H 	0.73850 0.51270 0.44280 0.08700
C 	C 	0.73730 0.68770 0.51270 0.08000
C 	C 	0.72180 0.71240 0.57050 -0.15000
H 	H 	0.72840 0.80970 0.59570 0.10200
C 	C 	0.69730 0.59680 0.59060 0.09900
H 	H 	0.68860 0.61700 0.63090 -0.00300
Co	Co	-0.00000 0.50000 -0.00000 1.16800
Co	Co	0.50000 0.00000 -0.00000 1.18500
Co	Co	0.00000 0.50000 0.50000 1.17400
Co	Co	0.50000 0.00000 0.50000 1.19400
