data_crystal

_cell_length_a 10.85000
_cell_length_b 11.53400
_cell_length_c 13.60800
_cell_angle_alpha 66.17000
_cell_angle_beta  81.40000
_cell_angle_gamma 63.15000

_symmetry_space_group_name_	'P 1'
_symmetry_space_group_name_H-M	'P 1'

loop_
_symmetry_equiv_pos_as_xyz
  x,y,z

loop_
_atom_site_label
_atom_site_type_symbol
_atom_site_fract_x
_atom_site_fract_y
_atom_site_fract_z
_atom_site_charge
Co	Co	0.44208 0.07515 0.79178 1.15900
Co	Co	0.55792 0.92485 0.20822 1.17600
Co	Co	-0.00000 0.00000 -0.00000 1.08800
H 	H 	0.15990 0.31070 0.78720 -0.00900
H 	H 	0.96830 0.46610 0.67480 0.13000
H 	H 	0.20310 0.40440 0.42980 0.08400
H 	H 	0.38500 0.24860 0.54900 -0.00700
H 	H 	0.82500 0.33050 0.91270 -0.01000
H 	H 	0.82200 0.52830 0.91330 0.07900
H 	H 	0.18500 0.29240 0.07540 0.10100
H 	H 	0.17910 0.10120 0.06940 -0.01800
H 	H 	0.85580 0.08380 0.19350 0.02900
H 	H 	0.87320 0.01040 0.37510 0.01300
H 	H 	0.22350 0.67880 0.37620 0.06700
H 	H 	0.19610 0.76290 0.19370 0.01500
H 	H 	0.90060 0.78070 0.73320 0.00200
H 	H 	0.86740 0.87020 0.55050 0.09100
H 	H 	0.27710 0.67870 0.53140 0.09100
H 	H 	0.29340 0.59660 0.71520 0.02200
H 	H 	0.54400 0.66380 0.87010 0.20500
H 	H 	0.38360 0.71910 0.87220 0.20300
H 	H 	0.58930 0.61530 0.05140 0.19100
H 	H 	0.43460 0.64150 0.07190 0.19400
H 	H 	0.56240 0.87630 0.97200 0.27500
H 	H 	0.84010 0.68930 0.21280 0.02200
H 	H 	0.03170 0.53390 0.32520 0.02100
H 	H 	0.79690 0.59560 0.57020 0.08000
H 	H 	0.61500 0.75140 0.45100 0.00500
H 	H 	0.17500 0.66950 0.08730 0.00100
H 	H 	0.17800 0.47170 0.08670 0.06700
H 	H 	0.81500 0.70760 0.92460 0.07600
H 	H 	0.82090 0.89880 0.93060 0.00100
H 	H 	0.14420 0.91620 0.80650 -0.04800
H 	H 	0.12680 0.98960 0.62490 0.18600
H 	H 	0.77650 0.32120 0.62380 0.11500
H 	H 	0.80390 0.23710 0.80630 -0.00400
H 	H 	0.09940 0.21930 0.26680 0.01300
H 	H 	0.13260 0.12980 0.44950 0.07300
H 	H 	0.72290 0.32130 0.46860 0.07500
H 	H 	0.70660 0.40340 0.28480 0.02300
H 	H 	0.45600 0.33620 0.12990 0.17700
H 	H 	0.61640 0.28090 0.12780 0.17500
H 	H 	0.41070 0.38470 0.94860 0.18400
H 	H 	0.56540 0.35850 0.92810 0.18200
H 	H 	0.43760 0.12370 0.02800 0.22700
C 	C 	0.16830 0.32770 0.71430 0.12200
C 	C 	0.05220 0.42230 0.64670 -0.21600
C 	C 	0.06120 0.45160 0.53770 0.06900
C 	C 	0.19010 0.38560 0.50280 -0.15000
C 	C 	0.29940 0.29230 0.57510 0.09400
C 	C 	0.89870 0.32220 0.94640 0.12700
C 	C 	0.89600 0.44200 0.94700 -0.13600
C 	C 	0.00190 0.43620 0.99700 0.11600
C 	C 	0.10930 0.30360 0.04200 -0.21900
C 	C 	0.10510 0.18830 0.03790 0.05400
C 	C 	0.93070 0.00050 0.23070 -0.01300
C 	C 	0.94100 0.95740 0.34020 0.05700
C 	C 	0.05230 0.83500 0.39920 -0.04300
C 	C 	0.14730 0.76220 0.34110 -0.07800
C 	C 	0.12920 0.81310 0.23090 0.03900
C 	C 	0.97800 0.75970 0.69190 0.11600
C 	C 	0.95640 0.81380 0.58150 -0.12400
C 	C 	0.06910 0.78270 0.51830 0.06900
C 	C 	0.19750 0.70110 0.57030 -0.14400
C 	C 	0.20590 0.65290 0.68170 0.08300
C 	C 	0.44560 0.84290 0.73870 0.48500
C 	C 	0.45780 0.74800 0.85830 -0.55500
C 	C 	0.45400 0.80550 0.94310 0.33700
C 	C 	0.49710 0.68570 0.05410 -0.57100
C 	C 	0.49600 0.73570 0.14280 0.46900
C 	C 	0.30750 0.92160 0.94360 0.25100
C 	C 	0.83170 0.67230 0.28570 0.04800
C 	C 	0.94780 0.57770 0.35330 -0.03700
C 	C 	0.93880 0.54840 0.46230 0.05100
C 	C 	0.80990 0.61440 0.49720 -0.12200
C 	C 	0.70060 0.70770 0.42490 0.08100
C 	C 	0.10130 0.67780 0.05360 0.02600
C 	C 	0.10400 0.55800 0.05300 -0.16000
C 	C 	0.99810 0.56380 0.00300 0.03700
C 	C 	0.89070 0.69640 0.95800 -0.09100
C 	C 	0.89490 0.81170 0.96210 0.11900
C 	C 	0.06930 0.99950 0.76930 0.22300
C 	C 	0.05900 0.04260 0.65980 -0.37300
C 	C 	0.94770 0.16500 0.60080 0.18800
C 	C 	0.85270 0.23780 0.65890 -0.21500
C 	C 	0.87080 0.18690 0.76910 0.13200
C 	C 	0.02200 0.24030 0.30810 0.02800
C 	C 	0.04360 0.18620 0.41850 -0.15300
C 	C 	0.93090 0.21730 0.48170 0.04600
C 	C 	0.80250 0.29890 0.42970 -0.11100
C 	C 	0.79410 0.34710 0.31830 0.07400
C 	C 	0.55440 0.15710 0.26130 0.47300
C 	C 	0.54220 0.25200 0.14170 -0.51100
C 	C 	0.54600 0.19450 0.05690 0.24800
C 	C 	0.50290 0.31430 0.94590 -0.44800
C 	C 	0.50400 0.26430 0.85720 0.44800
C 	C 	0.69250 0.07840 0.05640 0.20000
N 	N 	0.29020 0.26030 0.68090 -0.24500
N 	N 	0.00240 0.19320 0.99210 -0.21600
N 	N 	0.02200 0.92970 0.17460 -0.21000
N 	N 	0.10030 0.68030 0.74320 -0.15200
N 	N 	0.70980 0.73970 0.31910 -0.22400
N 	N 	0.99760 0.80680 0.00790 -0.21200
N 	N 	0.97800 0.07030 0.82540 -0.24700
N 	N 	0.89970 0.31970 0.25680 -0.11100
O 	O 	0.43870 0.96280 0.70871 -0.43900
O 	O 	0.44450 0.78970 0.67600 -0.29900
O 	O 	0.55070 0.86560 0.91360 -0.51800
O 	O 	0.21860 0.88380 0.99821 -0.35000
O 	O 	0.28630 0.04550 0.88870 -0.40100
O 	O 	0.46430 0.67770 0.23500 -0.33500
O 	O 	0.52930 0.83670 0.11345 -0.48300
O 	O 	0.56130 0.03720 0.29129 -0.46500
O 	O 	0.55550 0.21030 0.32400 -0.30300
O 	O 	0.44930 0.13440 0.08640 -0.51400
O 	O 	0.78140 0.11620 0.00179 -0.39600
O 	O 	0.71370 0.95450 0.11130 -0.36100
O 	O 	0.53570 0.32230 0.76500 -0.32700
O 	O 	0.47070 0.16330 0.88655 -0.45400
