data_crystal

_cell_length_a 8.35670
_cell_length_b 9.04340
_cell_length_c 12.05500
_cell_angle_alpha 90.00000
_cell_angle_beta  90.00000
_cell_angle_gamma 90.00000

_symmetry_space_group_name_	'P 1'
_symmetry_space_group_name_H-M	'P 1'

loop_
_symmetry_equiv_pos_as_xyz
  x,y,z

loop_
_atom_site_label
_atom_site_type_symbol
_atom_site_fract_x
_atom_site_fract_y
_atom_site_fract_z
_atom_site_charge
Ni	Ni	0.12879 0.81024 0.68074 1.04500
O 	O 	0.05948 0.59132 0.69370 -0.46400
N 	N 	0.38051 0.58384 0.61242 -0.07000
N 	N 	0.34219 0.73128 0.60980 -0.22700
C 	C 	0.14210 0.47855 0.71404 0.40400
C 	C 	0.32410 0.48180 0.69830 -0.31700
H 	H 	0.37330 0.50900 0.76830 0.10300
H 	H 	0.36010 0.38290 0.67980 0.11800
C 	C 	0.48200 0.55480 0.53035 0.06100
H 	H 	0.52500 0.46210 0.51520 -0.02900
N 	N 	0.51345 0.67692 0.47305 -0.23900
O 	O 	0.09179 0.35828 0.75230 -0.45500
C 	C 	0.42480 0.78168 0.52402 0.09900
H 	H 	0.42200 0.87980 0.50110 -0.03200
Ni	Ni	0.37121 0.18976 0.18074 1.04600
O 	O 	0.44052 0.40868 0.19370 -0.46300
N 	N 	0.11949 0.41616 0.11242 -0.06900
N 	N 	0.15781 0.26872 0.10980 -0.22700
C 	C 	0.35790 0.52145 0.21404 0.40500
C 	C 	0.17590 0.51820 0.19830 -0.31700
H 	H 	0.12670 0.49100 0.26830 0.10300
H 	H 	0.13990 0.61710 0.17980 0.11800
C 	C 	0.01800 0.44520 0.03035 0.06300
H 	H 	0.97500 0.53790 0.01520 -0.03000
N 	N 	0.98655 0.32308 0.97305 -0.24000
O 	O 	0.40821 0.64172 0.25230 -0.45500
C 	C 	0.07520 0.21832 0.02402 0.10000
H 	H 	0.07800 0.12020 0.00110 -0.03200
Ni	Ni	0.87121 0.31024 0.81926 1.04600
O 	O 	0.94052 0.09132 0.80630 -0.46300
N 	N 	0.61949 0.08384 0.88758 -0.06900
N 	N 	0.65781 0.23128 0.89020 -0.22700
C 	C 	0.85790 0.97855 0.78596 0.40500
C 	C 	0.67590 0.98180 0.80170 -0.31800
H 	H 	0.62670 0.00900 0.73170 0.10300
H 	H 	0.63990 0.88290 0.82020 0.11700
C 	C 	0.51800 0.05480 0.96965 0.06300
H 	H 	0.47500 0.96210 0.98480 -0.03000
N 	N 	0.48655 0.17692 0.02695 -0.24000
O 	O 	0.90821 0.85828 0.74770 -0.45600
C 	C 	0.57520 0.28168 0.97598 0.10000
H 	H 	0.57800 0.37980 0.99890 -0.03200
Ni	Ni	0.62879 0.68976 0.31926 1.04600
O 	O 	0.55948 0.90868 0.30630 -0.46200
N 	N 	0.88051 0.91616 0.38758 -0.06800
N 	N 	0.84219 0.76872 0.39020 -0.22700
C 	C 	0.64210 0.02145 0.28596 0.40400
C 	C 	0.82410 0.01820 0.30170 -0.32000
H 	H 	0.87330 0.99100 0.23170 0.10500
H 	H 	0.86010 0.11710 0.32020 0.11800
C 	C 	0.98200 0.94520 0.46965 0.06100
H 	H 	0.02500 0.03790 0.48480 -0.02900
N 	N 	0.01345 0.82308 0.52695 -0.23800
O 	O 	0.59179 0.14172 0.24770 -0.45500
C 	C 	0.92480 0.71832 0.47598 0.09900
H 	H 	0.92200 0.62020 0.49890 -0.03200
