data_crystal

_cell_length_a 9.84010
_cell_length_b 10.05170
_cell_length_c 18.06420
_cell_angle_alpha 90.22100
_cell_angle_beta  93.85700
_cell_angle_gamma 113.89100

_symmetry_space_group_name_	'P 1'
_symmetry_space_group_name_H-M	'P 1'

loop_
_symmetry_equiv_pos_as_xyz
  x,y,z

loop_
_atom_site_label
_atom_site_type_symbol
_atom_site_fract_x
_atom_site_fract_y
_atom_site_fract_z
_atom_site_charge
Ce	Ce	0.50731 0.27658 0.49638 2.12500
O 	O 	0.57370 0.16180 0.60313 -0.56000
O 	O 	0.43640 0.41250 0.58596 -0.57400
O 	O 	0.55810 0.93910 0.58213 -0.59600
O 	O 	0.38480 0.59930 0.61815 -0.50200
O 	O 	0.30240 0.30950 0.42133 -0.51400
O 	O 	0.26790 0.50900 0.45344 -0.50300
C 	C 	0.39990 0.48390 0.63270 0.45200
C 	C 	0.88020 0.12500 0.96540 -0.12800
C 	C 	0.73500 0.00100 0.93640 -0.17200
H 	H 	0.74690 0.91020 0.94100 0.06700
H 	H 	0.65720 0.99690 0.96780 0.05900
C 	C 	0.07750 0.42280 0.18540 0.14100
C 	C 	0.31760 0.49140 0.75990 0.12400
H 	H 	0.29760 0.57140 0.74660 -0.01100
C 	C 	0.19040 0.40950 0.33100 -0.20000
C 	C 	0.40750 0.31200 0.73120 0.13000
H 	H 	0.44740 0.26900 0.69820 -0.02200
C 	C 	0.57580 0.04350 0.62390 0.49400
C 	C 	0.21390 0.33210 0.27320 0.11400
H 	H 	0.26660 0.27450 0.28260 -0.00600
C 	C 	0.38230 0.26000 0.80200 -0.22400
H 	H 	0.40760 0.18370 0.81620 0.09500
C 	C 	0.71470 0.14570 0.82460 -0.21400
H 	H 	0.76280 0.23060 0.85370 0.09700
C 	C 	0.31980 0.31950 0.85220 0.14400
C 	C 	0.37390 0.42760 0.70930 -0.21800
C 	C 	0.29040 0.43750 0.83040 -0.21800
H 	H 	0.25180 0.48150 0.86360 0.09000
C 	C 	0.60520 0.03080 0.70590 -0.23000
C 	C 	0.60720 0.88850 0.81230 -0.22200
H 	H 	0.58030 0.79790 0.83330 0.09000
C 	C 	0.68380 0.01250 0.85620 0.14200
C 	C 	0.29850 0.47670 0.03960 -0.65600
H 	H 	0.36050 0.43960 0.06820 0.21300
H 	H 	0.28040 0.54630 0.06940 0.21700
H 	H 	0.34770 0.52300 0.99670 0.20500
C 	C 	0.01220 0.14020 0.93470 0.21700
C 	C 	0.29080 0.25940 0.92900 -0.18300
H 	H 	0.37700 0.31600 0.96000 0.06500
C 	C 	0.67530 0.15500 0.75050 0.13000
H 	H 	0.69620 0.24580 0.73060 -0.00700
C 	C 	0.10680 0.49020 0.31580 0.12100
H 	H 	0.08840 0.54120 0.35410 -0.01200
C 	C 	0.14740 0.25190 0.95980 -0.13000
C 	C 	0.15880 0.34020 0.20120 -0.20500
H 	H 	0.17690 0.28910 0.16290 0.09000
C 	C 	0.56910 0.89590 0.73720 0.12500
H 	H 	0.51970 0.81100 0.70820 -0.01300
C 	C 	0.74550 0.19470 0.06320 -0.64300
H 	H 	0.68530 0.23430 0.03490 0.20100
H 	H 	0.77360 0.24200 0.11150 0.21100
H 	H 	0.68960 0.09220 0.06820 0.20400
C 	C 	0.88490 0.21960 0.02340 0.17100
C 	C 	0.02370 0.44280 0.10670 -0.17900
H 	H 	0.92390 0.43900 0.10810 0.06900
H 	H 	0.08730 0.53960 0.09200 0.07200
C 	C 	0.25850 0.40860 0.40780 0.43000
C 	C 	0.05070 0.49540 0.24440 -0.20800
H 	H 	0.99350 0.54890 0.23560 0.09600
C 	C 	0.02010 0.33540 0.04700 -0.11800
C 	C 	0.00810 0.03300 0.87490 -0.70300
H 	H 	0.05190 0.96990 0.89500 0.23100
H 	H 	0.06320 0.08480 0.83470 0.24000
H 	H 	0.90660 0.97600 0.85710 0.24000
C 	C 	0.15110 0.35210 0.01500 0.18800
H 	H 	0.29300 0.16400 0.92700 0.06800
Ce	Ce	0.49269 0.72342 0.50362 2.12600
O 	O 	0.42630 0.83820 0.39687 -0.55900
O 	O 	0.56360 0.58750 0.41404 -0.57300
O 	O 	0.44190 0.06090 0.41787 -0.59500
O 	O 	0.61520 0.40070 0.38185 -0.50100
O 	O 	0.69760 0.69050 0.57867 -0.51300
O 	O 	0.73210 0.49100 0.54656 -0.50300
C 	C 	0.60010 0.51610 0.36730 0.45200
C 	C 	0.11980 0.87500 0.03460 -0.12800
C 	C 	0.26500 0.99900 0.06360 -0.17200
H 	H 	0.25310 0.08980 0.05900 0.06700
H 	H 	0.34280 0.00310 0.03220 0.05900
C 	C 	0.92250 0.57720 0.81460 0.14100
C 	C 	0.68240 0.50860 0.24010 0.12400
H 	H 	0.70240 0.42860 0.25340 -0.01100
C 	C 	0.80960 0.59050 0.66900 -0.20000
C 	C 	0.59250 0.68800 0.26880 0.13000
H 	H 	0.55260 0.73100 0.30180 -0.02200
C 	C 	0.42420 0.95650 0.37610 0.49400
C 	C 	0.78610 0.66790 0.72680 0.11400
H 	H 	0.73340 0.72550 0.71740 -0.00600
C 	C 	0.61770 0.74000 0.19800 -0.22400
H 	H 	0.59240 0.81630 0.18380 0.09500
C 	C 	0.28530 0.85430 0.17540 -0.21400
H 	H 	0.23720 0.76940 0.14630 0.09700
C 	C 	0.68020 0.68050 0.14780 0.14400
C 	C 	0.62610 0.57240 0.29070 -0.21800
C 	C 	0.70960 0.56250 0.16960 -0.21800
H 	H 	0.74820 0.51850 0.13640 0.09000
C 	C 	0.39480 0.96920 0.29410 -0.23000
C 	C 	0.39280 0.11150 0.18770 -0.22200
H 	H 	0.41970 0.20210 0.16670 0.09000
C 	C 	0.31620 0.98750 0.14380 0.14200
C 	C 	0.70150 0.52330 0.96040 -0.65600
H 	H 	0.63950 0.56040 0.93180 0.21300
H 	H 	0.71960 0.45370 0.93060 0.21700
H 	H 	0.65230 0.47700 0.00330 0.20500
C 	C 	0.98780 0.85980 0.06530 0.21700
C 	C 	0.70920 0.74060 0.07100 -0.18300
H 	H 	0.62300 0.68400 0.04000 0.06500
C 	C 	0.32470 0.84500 0.24950 0.13000
H 	H 	0.30380 0.75420 0.26940 -0.00700
C 	C 	0.89320 0.50980 0.68420 0.12100
H 	H 	0.91160 0.45880 0.64590 -0.01200
C 	C 	0.85260 0.74810 0.04020 -0.13000
C 	C 	0.84120 0.65980 0.79880 -0.20500
H 	H 	0.82310 0.71090 0.83710 0.09000
C 	C 	0.43090 0.10410 0.26280 0.12500
H 	H 	0.48030 0.18900 0.29180 -0.01300
C 	C 	0.25450 0.80530 0.93680 -0.64300
H 	H 	0.31470 0.76570 0.96510 0.20100
H 	H 	0.22640 0.75800 0.88850 0.21100
H 	H 	0.31040 0.90780 0.93180 0.20400
C 	C 	0.11510 0.78040 0.97660 0.17100
C 	C 	0.97630 0.55720 0.89330 -0.17900
H 	H 	0.07610 0.56100 0.89190 0.06900
H 	H 	0.91270 0.46040 0.90800 0.07200
C 	C 	0.74150 0.59140 0.59220 0.43000
C 	C 	0.94930 0.50460 0.75560 -0.20800
H 	H 	0.00650 0.45110 0.76440 0.09600
C 	C 	0.97990 0.66460 0.95300 -0.11800
C 	C 	0.99190 0.96700 0.12510 -0.70300
H 	H 	0.94810 0.03010 0.10500 0.23100
H 	H 	0.93680 0.91520 0.16530 0.24000
H 	H 	0.09340 0.02400 0.14290 0.24000
C 	C 	0.84890 0.64790 0.98500 0.18800
H 	H 	0.70700 0.83600 0.07300 0.06800
