data_crystal

_cell_length_a 32.80770
_cell_length_b 35.03060
_cell_length_c 5.73210
_cell_angle_alpha 90.00000
_cell_angle_beta  90.00000
_cell_angle_gamma 90.00000

_symmetry_space_group_name_	'P 1'
_symmetry_space_group_name_H-M	'P 1'

loop_
_symmetry_equiv_pos_as_xyz
  x,y,z

loop_
_atom_site_label
_atom_site_type_symbol
_atom_site_fract_x
_atom_site_fract_y
_atom_site_fract_z
_atom_site_charge
O 	O 	0.80720 0.70340 0.73700 -0.50200
O 	O 	0.76330 0.70380 0.45800 -0.47600
O 	O 	0.64770 0.30000 0.79200 -0.61800
C 	C 	0.77700 0.68880 0.64000 0.38900
C 	C 	0.75870 0.65350 0.74000 -0.18500
C 	C 	0.72640 0.63600 0.62800 0.11000
C 	C 	0.77240 0.63970 0.94350 0.12500
C 	C 	0.70850 0.60420 0.72800 -0.21600
H 	H 	0.71690 0.64560 0.48670 -0.00500
C 	C 	0.75450 0.60620 0.03920 -0.21000
H 	H 	0.79350 0.65190 0.02170 -0.00200
C 	C 	0.72240 0.58870 0.92400 0.14900
H 	H 	0.68590 0.59330 0.65500 0.09100
H 	H 	0.76420 0.59610 0.17850 0.09200
C 	C 	0.70450 0.55310 0.03100 -0.17200
C 	C 	0.66340 0.54000 0.93500 -0.15300
H 	H 	0.70160 0.55740 0.19730 0.06000
H 	H 	0.72390 0.53250 0.01050 0.06100
C 	C 	0.66200 0.51490 0.75000 0.20000
C 	C 	0.62800 0.55350 0.04200 0.23000
C 	C 	0.70150 0.50110 0.64200 -0.67800
C 	C 	0.62400 0.50090 0.66900 -0.12600
C 	C 	0.59040 0.53810 0.96900 -0.14900
C 	C 	0.62950 0.58270 0.23500 -0.73000
H 	H 	0.72120 0.52140 0.64480 0.21700
H 	H 	0.69670 0.49340 0.48400 0.22000
H 	H 	0.71170 0.47980 0.73000 0.21400
C 	C 	0.58820 0.51300 0.78400 0.19700
C 	C 	0.62090 0.47470 0.46300 -0.19900
C 	C 	0.55310 0.55020 0.11100 -0.16400
H 	H 	0.65730 0.59010 0.26230 0.24000
H 	H 	0.61840 0.57190 0.37500 0.23800
H 	H 	0.61390 0.60470 0.19110 0.24200
C 	C 	0.54690 0.49680 0.71600 -0.66600
C 	C 	0.61920 0.43210 0.52800 0.19800
H 	H 	0.64410 0.47900 0.36200 0.07700
H 	H 	0.59650 0.48120 0.37540 0.07400
H 	H 	0.53310 0.52980 0.10350 0.05500
H 	H 	0.56130 0.55290 0.27270 0.06300
C 	C 	0.53300 0.58680 0.03470 0.12900
H 	H 	0.54150 0.47420 0.80510 0.21700
H 	H 	0.54700 0.49060 0.55260 0.21200
H 	H 	0.52610 0.51550 0.74590 0.21200
C 	C 	0.63630 0.41760 0.72500 -0.28600
C 	C 	0.60070 0.40670 0.37000 -0.27300
C 	C 	0.54350 0.60560 0.82980 -0.20700
C 	C 	0.50390 0.60240 0.18300 -0.21100
H 	H 	0.64790 0.43420 0.83220 0.12300
C 	C 	0.63670 0.37880 0.77000 0.21700
C 	C 	0.60140 0.36790 0.41700 0.20900
H 	H 	0.58820 0.41590 0.23570 0.11800
H 	H 	0.56290 0.59510 0.73060 0.09000
C 	C 	0.52490 0.64000 0.77300 0.11600
C 	C 	0.48530 0.63690 0.12600 0.10900
H 	H 	0.49680 0.58990 0.31990 0.09000
C 	C 	0.61960 0.35370 0.61600 -0.31200
H 	H 	0.64880 0.36970 0.90540 -0.04500
H 	H 	0.58940 0.35110 0.31200 -0.04100
H 	H 	0.53200 0.65260 0.63600 -0.02100
C 	C 	0.49590 0.65570 0.92100 -0.21700
H 	H 	0.46590 0.64730 0.22530 -0.01900
C 	C 	0.61930 0.31140 0.65960 0.62600
C 	C 	0.47610 0.69280 0.87280 0.41800
O 	O 	0.59440 0.29100 0.56700 -0.63600
O 	O 	0.48260 0.70790 0.65080 -0.49600
O 	O 	0.45300 0.70830 0.01230 -0.50400
H 	H 	0.90010 0.74410 0.72100 0.27500
H 	H 	0.87490 0.77380 0.62860 0.54200
O 	O 	0.69280 0.29660 0.23700 -0.50600
O 	O 	0.73670 0.29620 0.95800 -0.48900
O 	O 	0.85230 0.70000 0.29200 -0.62000
C 	C 	0.72300 0.31120 0.14000 0.41300
C 	C 	0.74130 0.34650 0.24000 -0.20900
C 	C 	0.77360 0.36400 0.12800 0.15800
C 	C 	0.72760 0.36030 0.44350 0.13400
C 	C 	0.79150 0.39580 0.22800 -0.24900
H 	H 	0.78310 0.35440 0.98670 -0.03000
C 	C 	0.74550 0.39380 0.53920 -0.22200
H 	H 	0.70650 0.34810 0.52170 -0.00300
C 	C 	0.77760 0.41130 0.42400 0.16900
H 	H 	0.81410 0.40670 0.15500 0.10600
H 	H 	0.73580 0.40390 0.67850 0.09500
C 	C 	0.79550 0.44690 0.53100 -0.19000
C 	C 	0.83660 0.46000 0.43500 -0.13600
H 	H 	0.79840 0.44260 0.69730 0.06400
H 	H 	0.77610 0.46750 0.51050 0.06500
C 	C 	0.83800 0.48510 0.25000 0.18600
C 	C 	0.87200 0.44650 0.54200 0.21500
C 	C 	0.79850 0.49890 0.14200 -0.64700
C 	C 	0.87600 0.49910 0.16900 -0.11400
C 	C 	0.90960 0.46190 0.46900 -0.13800
C 	C 	0.87050 0.41730 0.73500 -0.70800
H 	H 	0.77880 0.47860 0.14480 0.21000
H 	H 	0.80330 0.50660 0.98400 0.20800
H 	H 	0.78830 0.52020 0.23000 0.20600
C 	C 	0.91180 0.48700 0.28400 0.18900
C 	C 	0.87910 0.52530 0.96300 -0.20900
C 	C 	0.94690 0.44980 0.61100 -0.17400
H 	H 	0.84270 0.40990 0.76230 0.23200
H 	H 	0.88160 0.42810 0.87500 0.22900
H 	H 	0.88610 0.39530 0.69110 0.23500
C 	C 	0.95310 0.50320 0.21600 -0.65600
C 	C 	0.88080 0.56790 0.02800 0.20300
H 	H 	0.85590 0.52100 0.86200 0.07900
H 	H 	0.90350 0.51880 0.87540 0.07700
H 	H 	0.96690 0.47020 0.60350 0.05800
H 	H 	0.93870 0.44710 0.77270 0.06500
C 	C 	0.96700 0.41320 0.53470 0.14000
H 	H 	0.95850 0.52580 0.30510 0.21400
H 	H 	0.95300 0.50940 0.05260 0.20900
H 	H 	0.97390 0.48450 0.24590 0.20900
C 	C 	0.86370 0.58240 0.22500 -0.29400
C 	C 	0.89930 0.59330 0.87000 -0.28000
C 	C 	0.95650 0.39440 0.32980 -0.21700
C 	C 	0.99610 0.39760 0.68300 -0.22100
H 	H 	0.85210 0.56580 0.33220 0.12700
C 	C 	0.86330 0.62120 0.27000 0.22700
C 	C 	0.89860 0.63210 0.91700 0.22700
H 	H 	0.91180 0.58410 0.73570 0.12000
H 	H 	0.93710 0.40490 0.23060 0.09600
C 	C 	0.97510 0.36000 0.27300 0.12300
C 	C 	0.01470 0.36310 0.62600 0.12100
H 	H 	0.00320 0.41010 0.81990 0.09100
C 	C 	0.88040 0.64630 0.11600 -0.32700
H 	H 	0.85120 0.63030 0.40540 -0.04600
H 	H 	0.91060 0.64890 0.81200 -0.04700
H 	H 	0.96800 0.34740 0.13600 -0.01900
C 	C 	0.00410 0.34430 0.42100 -0.22400
H 	H 	0.03410 0.35270 0.72530 -0.02400
C 	C 	0.88070 0.68860 0.15960 0.63000
C 	C 	0.02390 0.30720 0.37280 0.41000
O 	O 	0.90560 0.70900 0.06700 -0.64000
O 	O 	0.01740 0.29210 0.15080 -0.48600
O 	O 	0.04700 0.29170 0.51230 -0.49400
H 	H 	0.59990 0.25590 0.22100 0.27300
H 	H 	0.62510 0.22620 0.12860 0.54400
O 	O 	0.19280 0.20340 0.26300 -0.50300
O 	O 	0.23670 0.20380 0.54200 -0.47800
O 	O 	0.35230 0.80000 0.20800 -0.61900
C 	C 	0.22300 0.18880 0.36000 0.38800
C 	C 	0.24130 0.15350 0.26000 -0.18600
C 	C 	0.27360 0.13600 0.37200 0.11000
C 	C 	0.22760 0.13970 0.05650 0.12500
C 	C 	0.29150 0.10420 0.27200 -0.21800
H 	H 	0.28310 0.14560 0.51330 -0.00600
C 	C 	0.24550 0.10620 0.96080 -0.21100
H 	H 	0.20650 0.15190 0.97830 -0.00200
C 	C 	0.27760 0.08870 0.07600 0.14900
H 	H 	0.31410 0.09330 0.34500 0.09100
H 	H 	0.23580 0.09610 0.82150 0.09300
C 	C 	0.29550 0.05310 0.96900 -0.17200
C 	C 	0.33660 0.04000 0.06500 -0.15300
H 	H 	0.29840 0.05740 0.80270 0.06000
H 	H 	0.27610 0.03250 0.98950 0.06100
C 	C 	0.33800 0.01490 0.25000 0.20000
C 	C 	0.37200 0.05350 0.95800 0.23000
C 	C 	0.29850 0.00110 0.35800 -0.67800
C 	C 	0.37600 0.00090 0.33100 -0.12600
C 	C 	0.40960 0.03810 0.03100 -0.14900
C 	C 	0.37050 0.08270 0.76500 -0.73000
H 	H 	0.27880 0.02140 0.35520 0.21700
H 	H 	0.30330 0.99340 0.51600 0.22000
H 	H 	0.28830 0.97980 0.27000 0.21400
C 	C 	0.41180 0.01300 0.21600 0.19700
C 	C 	0.37910 0.97470 0.53700 -0.19900
C 	C 	0.44690 0.05020 0.88900 -0.16400
H 	H 	0.34270 0.09010 0.73770 0.24000
H 	H 	0.38160 0.07190 0.62500 0.23800
H 	H 	0.38610 0.10470 0.80890 0.24200
C 	C 	0.45310 0.99680 0.28400 -0.66600
C 	C 	0.38080 0.93210 0.47200 0.19800
H 	H 	0.35590 0.97900 0.63800 0.07700
H 	H 	0.40350 0.98120 0.62460 0.07400
H 	H 	0.46690 0.02980 0.89650 0.05500
H 	H 	0.43870 0.05290 0.72730 0.06300
C 	C 	0.46700 0.08680 0.96530 0.12900
H 	H 	0.45850 0.97420 0.19490 0.21700
H 	H 	0.45300 0.99060 0.44740 0.21200
H 	H 	0.47390 0.01550 0.25410 0.21200
C 	C 	0.36370 0.91760 0.27500 -0.28600
C 	C 	0.39930 0.90670 0.63000 -0.27300
C 	C 	0.45650 0.10560 0.17020 -0.20700
C 	C 	0.49610 0.10240 0.81700 -0.21100
H 	H 	0.35210 0.93420 0.16780 0.12300
C 	C 	0.36330 0.87880 0.23000 0.21700
C 	C 	0.39860 0.86790 0.58300 0.20900
H 	H 	0.41180 0.91590 0.76430 0.11800
H 	H 	0.43710 0.09510 0.26940 0.09000
C 	C 	0.47510 0.14000 0.22700 0.11600
C 	C 	0.51470 0.13690 0.87400 0.10900
H 	H 	0.50320 0.08990 0.68010 0.09000
C 	C 	0.38040 0.85370 0.38400 -0.31200
H 	H 	0.35120 0.86970 0.09460 -0.04500
H 	H 	0.41060 0.85110 0.68800 -0.04100
H 	H 	0.46800 0.15260 0.36400 -0.02100
C 	C 	0.50410 0.15570 0.07900 -0.21700
H 	H 	0.53410 0.14730 0.77470 -0.01900
C 	C 	0.38070 0.81140 0.34040 0.62600
C 	C 	0.52390 0.19280 0.12720 0.41800
O 	O 	0.40560 0.79100 0.43300 -0.63600
O 	O 	0.51740 0.20790 0.34920 -0.49600
O 	O 	0.54700 0.20830 0.98770 -0.50400
H 	H 	0.09990 0.24410 0.27900 0.27500
H 	H 	0.12510 0.27380 0.37140 0.54200
O 	O 	0.30720 0.79660 0.76300 -0.50600
O 	O 	0.26330 0.79620 0.04200 -0.48900
O 	O 	0.14770 0.20000 0.70800 -0.62000
C 	C 	0.27700 0.81120 0.86000 0.41300
C 	C 	0.25870 0.84650 0.76000 -0.20900
C 	C 	0.22640 0.86400 0.87200 0.15800
C 	C 	0.27240 0.86030 0.55650 0.13400
C 	C 	0.20850 0.89580 0.77200 -0.24900
H 	H 	0.21690 0.85440 0.01330 -0.03000
C 	C 	0.25450 0.89380 0.46080 -0.22200
H 	H 	0.29350 0.84810 0.47830 -0.00300
C 	C 	0.22240 0.91130 0.57600 0.16900
H 	H 	0.18590 0.90670 0.84500 0.10600
H 	H 	0.26420 0.90390 0.32150 0.09500
C 	C 	0.20450 0.94690 0.46900 -0.19000
C 	C 	0.16340 0.96000 0.56500 -0.13600
H 	H 	0.20160 0.94260 0.30270 0.06400
H 	H 	0.22390 0.96750 0.48950 0.06500
C 	C 	0.16200 0.98510 0.75000 0.18600
C 	C 	0.12800 0.94650 0.45800 0.21500
C 	C 	0.20150 0.99890 0.85800 -0.64800
C 	C 	0.12400 0.99910 0.83100 -0.11400
C 	C 	0.09040 0.96190 0.53100 -0.13800
C 	C 	0.12950 0.91730 0.26500 -0.70800
H 	H 	0.22120 0.97860 0.85520 0.21000
H 	H 	0.19670 0.00660 0.01600 0.20800
H 	H 	0.21170 0.02020 0.77000 0.20700
C 	C 	0.08820 0.98700 0.71600 0.18900
C 	C 	0.12090 0.02530 0.03700 -0.20900
C 	C 	0.05310 0.94980 0.38900 -0.17400
H 	H 	0.15730 0.90990 0.23770 0.23200
H 	H 	0.11840 0.92810 0.12500 0.22900
H 	H 	0.11390 0.89530 0.30890 0.23500
C 	C 	0.04690 0.00320 0.78400 -0.65700
C 	C 	0.11920 0.06790 0.97200 0.20300
H 	H 	0.14410 0.02100 0.13800 0.07900
H 	H 	0.09650 0.01880 0.12460 0.07700
H 	H 	0.03310 0.97020 0.39650 0.05800
H 	H 	0.06130 0.94710 0.22730 0.06500
C 	C 	0.03300 0.91320 0.46530 0.14000
H 	H 	0.04150 0.02580 0.69490 0.21400
H 	H 	0.04700 0.00940 0.94740 0.20900
H 	H 	0.02610 0.98450 0.75410 0.20900
C 	C 	0.13630 0.08240 0.77500 -0.29400
C 	C 	0.10070 0.09330 0.13000 -0.28000
C 	C 	0.04350 0.89440 0.67020 -0.21700
C 	C 	0.00390 0.89760 0.31700 -0.22100
H 	H 	0.14790 0.06580 0.66780 0.12700
C 	C 	0.13670 0.12120 0.73000 0.22700
C 	C 	0.10140 0.13210 0.08300 0.22700
H 	H 	0.08820 0.08410 0.26430 0.12000
H 	H 	0.06290 0.90490 0.76940 0.09600
C 	C 	0.02490 0.86000 0.72700 0.12300
C 	C 	0.98530 0.86310 0.37400 0.12100
H 	H 	0.99680 0.91010 0.18010 0.09100
C 	C 	0.11960 0.14630 0.88400 -0.32700
H 	H 	0.14880 0.13030 0.59460 -0.04600
H 	H 	0.08940 0.14890 0.18800 -0.04700
H 	H 	0.03200 0.84740 0.86400 -0.01900
C 	C 	0.99590 0.84430 0.57900 -0.22400
H 	H 	0.96590 0.85270 0.27470 -0.02400
C 	C 	0.11930 0.18860 0.84040 0.63000
C 	C 	0.97610 0.80720 0.62720 0.41000
O 	O 	0.09440 0.20900 0.93300 -0.64000
O 	O 	0.98260 0.79210 0.84920 -0.48600
O 	O 	0.95300 0.79170 0.48770 -0.49400
H 	H 	0.40010 0.75590 0.77900 0.27300
H 	H 	0.37490 0.72620 0.87140 0.54400
O 	O 	0.19280 0.29660 0.26300 -0.50300
O 	O 	0.23670 0.29620 0.54200 -0.47700
O 	O 	0.35230 0.70000 0.20800 -0.61900
C 	C 	0.22300 0.31120 0.36000 0.38800
C 	C 	0.24130 0.34650 0.26000 -0.18600
C 	C 	0.27360 0.36400 0.37200 0.10900
C 	C 	0.22760 0.36030 0.05650 0.12400
C 	C 	0.29150 0.39580 0.27200 -0.21700
H 	H 	0.28310 0.35440 0.51330 -0.00600
C 	C 	0.24550 0.39380 0.96080 -0.21100
H 	H 	0.20650 0.34810 0.97830 -0.00200
C 	C 	0.27760 0.41130 0.07600 0.14900
H 	H 	0.31410 0.40670 0.34500 0.09100
H 	H 	0.23580 0.40390 0.82150 0.09200
C 	C 	0.29550 0.44690 0.96900 -0.17200
C 	C 	0.33660 0.46000 0.06500 -0.15300
H 	H 	0.29840 0.44260 0.80270 0.06000
H 	H 	0.27610 0.46750 0.98950 0.06100
C 	C 	0.33800 0.48510 0.25000 0.20000
C 	C 	0.37200 0.44650 0.95800 0.23000
C 	C 	0.29850 0.49890 0.35800 -0.67800
C 	C 	0.37600 0.49910 0.33100 -0.12600
C 	C 	0.40960 0.46190 0.03100 -0.14900
C 	C 	0.37050 0.41730 0.76500 -0.73000
H 	H 	0.27880 0.47860 0.35520 0.21700
H 	H 	0.30330 0.50660 0.51600 0.22000
H 	H 	0.28830 0.52020 0.27000 0.21400
C 	C 	0.41180 0.48700 0.21600 0.19700
C 	C 	0.37910 0.52530 0.53700 -0.19900
C 	C 	0.44690 0.44980 0.88900 -0.16400
H 	H 	0.34270 0.40990 0.73770 0.24000
H 	H 	0.38160 0.42810 0.62500 0.23800
H 	H 	0.38610 0.39530 0.80890 0.24200
C 	C 	0.45310 0.50320 0.28400 -0.66600
C 	C 	0.38080 0.56790 0.47200 0.19800
H 	H 	0.35590 0.52100 0.63800 0.07700
H 	H 	0.40350 0.51880 0.62460 0.07400
H 	H 	0.46690 0.47020 0.89650 0.05500
H 	H 	0.43870 0.44710 0.72730 0.06300
C 	C 	0.46700 0.41320 0.96530 0.12900
H 	H 	0.45850 0.52580 0.19490 0.21700
H 	H 	0.45300 0.50940 0.44740 0.21200
H 	H 	0.47390 0.48450 0.25410 0.21200
C 	C 	0.36370 0.58240 0.27500 -0.28600
C 	C 	0.39930 0.59330 0.63000 -0.27300
C 	C 	0.45650 0.39440 0.17020 -0.20700
C 	C 	0.49610 0.39760 0.81700 -0.21100
H 	H 	0.35210 0.56580 0.16780 0.12300
C 	C 	0.36330 0.62120 0.23000 0.21700
C 	C 	0.39860 0.63210 0.58300 0.20900
H 	H 	0.41180 0.58410 0.76430 0.11800
H 	H 	0.43710 0.40490 0.26940 0.09000
C 	C 	0.47510 0.36000 0.22700 0.11600
C 	C 	0.51470 0.36310 0.87400 0.10900
H 	H 	0.50320 0.41010 0.68010 0.09000
C 	C 	0.38040 0.64630 0.38400 -0.31200
H 	H 	0.35120 0.63030 0.09460 -0.04500
H 	H 	0.41060 0.64890 0.68800 -0.04100
H 	H 	0.46800 0.34740 0.36400 -0.02100
C 	C 	0.50410 0.34430 0.07900 -0.21700
H 	H 	0.53410 0.35270 0.77470 -0.01900
C 	C 	0.38070 0.68860 0.34040 0.62600
C 	C 	0.52390 0.30720 0.12720 0.41800
O 	O 	0.40560 0.70900 0.43300 -0.63600
O 	O 	0.51740 0.29210 0.34920 -0.49600
O 	O 	0.54700 0.29170 0.98770 -0.50400
H 	H 	0.09990 0.25590 0.27900 0.27500
H 	H 	0.12510 0.22620 0.37140 0.54200
O 	O 	0.30720 0.70340 0.76300 -0.50600
O 	O 	0.26330 0.70380 0.04200 -0.48900
O 	O 	0.14770 0.30000 0.70800 -0.62000
C 	C 	0.27700 0.68880 0.86000 0.41300
C 	C 	0.25870 0.65350 0.76000 -0.20900
C 	C 	0.22640 0.63600 0.87200 0.15800
C 	C 	0.27240 0.63970 0.55650 0.13400
C 	C 	0.20850 0.60420 0.77200 -0.24900
H 	H 	0.21690 0.64560 0.01330 -0.03000
C 	C 	0.25450 0.60620 0.46080 -0.22200
H 	H 	0.29350 0.65190 0.47830 -0.00300
C 	C 	0.22240 0.58870 0.57600 0.16900
H 	H 	0.18590 0.59330 0.84500 0.10600
H 	H 	0.26420 0.59610 0.32150 0.09500
C 	C 	0.20450 0.55310 0.46900 -0.19000
C 	C 	0.16340 0.54000 0.56500 -0.13600
H 	H 	0.20160 0.55740 0.30270 0.06400
H 	H 	0.22390 0.53250 0.48950 0.06500
C 	C 	0.16200 0.51490 0.75000 0.18600
C 	C 	0.12800 0.55350 0.45800 0.21500
C 	C 	0.20150 0.50110 0.85800 -0.64700
C 	C 	0.12400 0.50090 0.83100 -0.11400
C 	C 	0.09040 0.53810 0.53100 -0.13800
C 	C 	0.12950 0.58270 0.26500 -0.70800
H 	H 	0.22120 0.52140 0.85520 0.21000
H 	H 	0.19670 0.49340 0.01600 0.20800
H 	H 	0.21170 0.47980 0.77000 0.20600
C 	C 	0.08820 0.51300 0.71600 0.18900
C 	C 	0.12090 0.47470 0.03700 -0.20900
C 	C 	0.05310 0.55020 0.38900 -0.17400
H 	H 	0.15730 0.59010 0.23770 0.23200
H 	H 	0.11840 0.57190 0.12500 0.22900
H 	H 	0.11390 0.60470 0.30890 0.23500
C 	C 	0.04690 0.49680 0.78400 -0.65600
C 	C 	0.11920 0.43210 0.97200 0.20300
H 	H 	0.14410 0.47900 0.13800 0.07900
H 	H 	0.09650 0.48120 0.12460 0.07700
H 	H 	0.03310 0.52980 0.39650 0.05800
H 	H 	0.06130 0.55290 0.22730 0.06500
C 	C 	0.03300 0.58680 0.46530 0.14000
H 	H 	0.04150 0.47420 0.69490 0.21400
H 	H 	0.04700 0.49060 0.94740 0.20900
H 	H 	0.02610 0.51550 0.75410 0.20900
C 	C 	0.13630 0.41760 0.77500 -0.29400
C 	C 	0.10070 0.40670 0.13000 -0.28000
C 	C 	0.04350 0.60560 0.67020 -0.21700
C 	C 	0.00390 0.60240 0.31700 -0.22100
H 	H 	0.14790 0.43420 0.66780 0.12700
C 	C 	0.13670 0.37880 0.73000 0.22700
C 	C 	0.10140 0.36790 0.08300 0.22700
H 	H 	0.08820 0.41590 0.26430 0.12000
H 	H 	0.06290 0.59510 0.76940 0.09600
C 	C 	0.02490 0.64000 0.72700 0.12300
C 	C 	0.98530 0.63690 0.37400 0.12100
H 	H 	0.99680 0.58990 0.18010 0.09100
C 	C 	0.11960 0.35370 0.88400 -0.32700
H 	H 	0.14880 0.36970 0.59460 -0.04600
H 	H 	0.08940 0.35110 0.18800 -0.04700
H 	H 	0.03200 0.65260 0.86400 -0.01900
C 	C 	0.99590 0.65570 0.57900 -0.22400
H 	H 	0.96590 0.64730 0.27470 -0.02400
C 	C 	0.11930 0.31140 0.84040 0.63000
C 	C 	0.97610 0.69280 0.62720 0.41000
O 	O 	0.09440 0.29100 0.93300 -0.64000
O 	O 	0.98260 0.70790 0.84920 -0.48600
O 	O 	0.95300 0.70830 0.48770 -0.49400
H 	H 	0.40010 0.74410 0.77900 0.27300
H 	H 	0.37490 0.77380 0.87140 0.54400
O 	O 	0.80720 0.79660 0.73700 -0.50300
O 	O 	0.76330 0.79620 0.45800 -0.47800
O 	O 	0.64770 0.20000 0.79200 -0.61900
C 	C 	0.77700 0.81120 0.64000 0.38800
C 	C 	0.75870 0.84650 0.74000 -0.18600
C 	C 	0.72640 0.86400 0.62800 0.11000
C 	C 	0.77240 0.86030 0.94350 0.12500
C 	C 	0.70850 0.89580 0.72800 -0.21800
H 	H 	0.71690 0.85440 0.48670 -0.00600
C 	C 	0.75450 0.89380 0.03920 -0.21100
H 	H 	0.79350 0.84810 0.02170 -0.00200
C 	C 	0.72240 0.91130 0.92400 0.14900
H 	H 	0.68590 0.90670 0.65500 0.09100
H 	H 	0.76420 0.90390 0.17850 0.09300
C 	C 	0.70450 0.94690 0.03100 -0.17200
C 	C 	0.66340 0.96000 0.93500 -0.15300
H 	H 	0.70160 0.94260 0.19730 0.06000
H 	H 	0.72390 0.96750 0.01050 0.06100
C 	C 	0.66200 0.98510 0.75000 0.20000
C 	C 	0.62800 0.94650 0.04200 0.23000
C 	C 	0.70150 0.99890 0.64200 -0.67800
C 	C 	0.62400 0.99910 0.66900 -0.12600
C 	C 	0.59040 0.96190 0.96900 -0.14900
C 	C 	0.62950 0.91730 0.23500 -0.73000
H 	H 	0.72120 0.97860 0.64480 0.21700
H 	H 	0.69670 0.00660 0.48400 0.22000
H 	H 	0.71170 0.02020 0.73000 0.21400
C 	C 	0.58820 0.98700 0.78400 0.19700
C 	C 	0.62090 0.02530 0.46300 -0.19900
C 	C 	0.55310 0.94980 0.11100 -0.16400
H 	H 	0.65730 0.90990 0.26230 0.24000
H 	H 	0.61840 0.92810 0.37500 0.23800
H 	H 	0.61390 0.89530 0.19110 0.24200
C 	C 	0.54690 0.00320 0.71600 -0.66600
C 	C 	0.61920 0.06790 0.52800 0.19800
H 	H 	0.64410 0.02100 0.36200 0.07700
H 	H 	0.59650 0.01880 0.37540 0.07400
H 	H 	0.53310 0.97020 0.10350 0.05500
H 	H 	0.56130 0.94710 0.27270 0.06300
C 	C 	0.53300 0.91320 0.03470 0.12900
H 	H 	0.54150 0.02580 0.80510 0.21700
H 	H 	0.54700 0.00940 0.55260 0.21200
H 	H 	0.52610 0.98450 0.74590 0.21200
C 	C 	0.63630 0.08240 0.72500 -0.28600
C 	C 	0.60070 0.09330 0.37000 -0.27300
C 	C 	0.54350 0.89440 0.82980 -0.20700
C 	C 	0.50390 0.89760 0.18300 -0.21100
H 	H 	0.64790 0.06580 0.83220 0.12300
C 	C 	0.63670 0.12120 0.77000 0.21700
C 	C 	0.60140 0.13210 0.41700 0.20900
H 	H 	0.58820 0.08410 0.23570 0.11800
H 	H 	0.56290 0.90490 0.73060 0.09000
C 	C 	0.52490 0.86000 0.77300 0.11600
C 	C 	0.48530 0.86310 0.12600 0.10900
H 	H 	0.49680 0.91010 0.31990 0.09000
C 	C 	0.61960 0.14630 0.61600 -0.31200
H 	H 	0.64880 0.13030 0.90540 -0.04500
H 	H 	0.58940 0.14890 0.31200 -0.04100
H 	H 	0.53200 0.84740 0.63600 -0.02100
C 	C 	0.49590 0.84430 0.92100 -0.21700
H 	H 	0.46590 0.85270 0.22530 -0.01900
C 	C 	0.61930 0.18860 0.65960 0.62600
C 	C 	0.47610 0.80720 0.87280 0.41800
O 	O 	0.59440 0.20900 0.56700 -0.63600
O 	O 	0.48260 0.79210 0.65080 -0.49600
O 	O 	0.45300 0.79170 0.01230 -0.50400
H 	H 	0.90010 0.75590 0.72100 0.27500
H 	H 	0.87490 0.72620 0.62860 0.54200
O 	O 	0.69280 0.20340 0.23700 -0.50600
O 	O 	0.73670 0.20380 0.95800 -0.48900
O 	O 	0.85230 0.80000 0.29200 -0.62000
C 	C 	0.72300 0.18880 0.14000 0.41300
C 	C 	0.74130 0.15350 0.24000 -0.20900
C 	C 	0.77360 0.13600 0.12800 0.15800
C 	C 	0.72760 0.13970 0.44350 0.13400
C 	C 	0.79150 0.10420 0.22800 -0.24900
H 	H 	0.78310 0.14560 0.98670 -0.03000
C 	C 	0.74550 0.10620 0.53920 -0.22200
H 	H 	0.70650 0.15190 0.52170 -0.00300
C 	C 	0.77760 0.08870 0.42400 0.16900
H 	H 	0.81410 0.09330 0.15500 0.10600
H 	H 	0.73580 0.09610 0.67850 0.09500
C 	C 	0.79550 0.05310 0.53100 -0.19000
C 	C 	0.83660 0.04000 0.43500 -0.13600
H 	H 	0.79840 0.05740 0.69730 0.06400
H 	H 	0.77610 0.03250 0.51050 0.06500
C 	C 	0.83800 0.01490 0.25000 0.18600
C 	C 	0.87200 0.05350 0.54200 0.21500
C 	C 	0.79850 0.00110 0.14200 -0.64800
C 	C 	0.87600 0.00090 0.16900 -0.11400
C 	C 	0.90960 0.03810 0.46900 -0.13800
C 	C 	0.87050 0.08270 0.73500 -0.70800
H 	H 	0.77880 0.02140 0.14480 0.21000
H 	H 	0.80330 0.99340 0.98400 0.20800
H 	H 	0.78830 0.97980 0.23000 0.20700
C 	C 	0.91180 0.01300 0.28400 0.18900
C 	C 	0.87910 0.97470 0.96300 -0.20900
C 	C 	0.94690 0.05020 0.61100 -0.17400
H 	H 	0.84270 0.09010 0.76230 0.23200
H 	H 	0.88160 0.07190 0.87500 0.22900
H 	H 	0.88610 0.10470 0.69110 0.23500
C 	C 	0.95310 0.99680 0.21600 -0.65700
C 	C 	0.88080 0.93210 0.02800 0.20300
H 	H 	0.85590 0.97900 0.86200 0.07900
H 	H 	0.90350 0.98120 0.87540 0.07700
H 	H 	0.96690 0.02980 0.60350 0.05800
H 	H 	0.93870 0.05290 0.77270 0.06500
C 	C 	0.96700 0.08680 0.53470 0.14000
H 	H 	0.95850 0.97420 0.30510 0.21400
H 	H 	0.95300 0.99060 0.05260 0.20900
H 	H 	0.97390 0.01550 0.24590 0.20900
C 	C 	0.86370 0.91760 0.22500 -0.29400
C 	C 	0.89930 0.90670 0.87000 -0.28000
C 	C 	0.95650 0.10560 0.32980 -0.21700
C 	C 	0.99610 0.10240 0.68300 -0.22100
H 	H 	0.85210 0.93420 0.33220 0.12700
C 	C 	0.86330 0.87880 0.27000 0.22700
C 	C 	0.89860 0.86790 0.91700 0.22700
H 	H 	0.91180 0.91590 0.73570 0.12000
H 	H 	0.93710 0.09510 0.23060 0.09600
C 	C 	0.97510 0.14000 0.27300 0.12300
C 	C 	0.01470 0.13690 0.62600 0.12100
H 	H 	0.00320 0.08990 0.81990 0.09100
C 	C 	0.88040 0.85370 0.11600 -0.32700
H 	H 	0.85120 0.86970 0.40540 -0.04600
H 	H 	0.91060 0.85110 0.81200 -0.04700
H 	H 	0.96800 0.15260 0.13600 -0.01900
C 	C 	0.00410 0.15570 0.42100 -0.22400
H 	H 	0.03410 0.14730 0.72530 -0.02400
C 	C 	0.88070 0.81140 0.15960 0.63000
C 	C 	0.02390 0.19280 0.37280 0.41000
O 	O 	0.90560 0.79100 0.06700 -0.64000
O 	O 	0.01740 0.20790 0.15080 -0.48600
O 	O 	0.04700 0.20830 0.51230 -0.49400
H 	H 	0.59990 0.24410 0.22100 0.27300
H 	H 	0.62510 0.27380 0.12860 0.54400
Eu	Eu	0.81795 0.75000 0.44830 2.18100
O 	O 	0.87840 0.75000 0.64900 -1.60800
Eu	Eu	0.68205 0.25000 0.94830 2.16300
O 	O 	0.62160 0.25000 0.14900 -1.60400
Eu	Eu	0.18205 0.25000 0.55170 2.18100
O 	O 	0.12160 0.25000 0.35100 -1.60800
Eu	Eu	0.31795 0.75000 0.05170 2.16300
O 	O 	0.37840 0.75000 0.85100 -1.60400
Eu	Eu	0.54366 0.25000 0.62740 1.98900
Eu	Eu	0.95634 0.75000 0.12740 1.96600
Eu	Eu	0.45634 0.75000 0.37260 1.98900
Eu	Eu	0.04366 0.25000 0.87260 1.96600
