data_crystal

_cell_length_a 12.79000
_cell_length_b 12.79000
_cell_length_c 11.19100
_cell_angle_alpha 90.00000
_cell_angle_beta  90.00000
_cell_angle_gamma 90.00000

_symmetry_space_group_name_	'P 1'
_symmetry_space_group_name_H-M	'P 1'

loop_
_symmetry_equiv_pos_as_xyz
  x,y,z

loop_
_atom_site_label
_atom_site_type_symbol
_atom_site_fract_x
_atom_site_fract_y
_atom_site_fract_z
_atom_site_charge
C 	C 	0.87960 0.91130 0.77390 0.23900
H 	H 	0.95010 0.91550 0.80770 -0.01100
C 	C 	0.81050 0.99150 0.83680 -0.00800
H 	H 	0.81720 0.06630 0.83550 0.05600
C 	C 	0.70700 0.01000 0.77670 0.08700
H 	H 	0.66360 0.95080 0.79480 0.01500
C 	C 	0.71740 0.02180 0.64260 0.05300
H 	H 	0.65050 0.01440 0.60450 0.01500
C 	C 	0.78500 0.93650 0.59330 -0.02800
H 	H 	0.75000 0.86990 0.60370 0.04100
H 	H 	0.79490 0.94770 0.50830 0.06300
O 	O 	0.83840 0.81090 0.79830 -0.46600
H 	H 	0.83600 0.76000 0.73900 0.19700
O 	O 	0.79400 0.95740 0.95710 -0.35800
H 	H 	0.79140 0.00450 0.01670 0.14000
O 	O 	0.66090 0.10230 0.82380 -0.43400
H 	H 	0.60790 0.09870 0.88050 0.19300
O 	O 	0.75910 0.12380 0.62270 -0.30200
O 	O 	0.88550 0.93270 0.65100 -0.20700
C 	C 	0.12040 0.08870 0.27390 0.23100
H 	H 	0.04990 0.08450 0.30770 -0.01600
C 	C 	0.18950 0.00850 0.33680 0.02700
H 	H 	0.18280 0.93370 0.33550 0.03800
C 	C 	0.29300 0.99000 0.27670 0.06700
H 	H 	0.33640 0.04920 0.29480 0.01800
C 	C 	0.28260 0.97820 0.14260 0.05400
H 	H 	0.34950 0.98560 0.10450 0.00500
C 	C 	0.21500 0.06350 0.09330 -0.01500
H 	H 	0.25000 0.13010 0.10370 0.02800
H 	H 	0.20510 0.05230 0.00830 0.04100
O 	O 	0.16160 0.18910 0.29830 -0.47200
H 	H 	0.16400 0.24000 0.23900 0.19100
O 	O 	0.20600 0.04260 0.45710 -0.43800
H 	H 	0.20860 0.99550 0.51670 0.20100
O 	O 	0.33910 0.89770 0.32380 -0.43100
H 	H 	0.39210 0.90130 0.38050 0.17600
O 	O 	0.24090 0.87620 0.12270 -0.31400
O 	O 	0.11450 0.06730 0.15100 -0.21900
C 	C 	0.58870 0.37960 0.52390 0.23200
H 	H 	0.58450 0.45010 0.55770 -0.01500
C 	C 	0.50850 0.31050 0.58680 0.01700
H 	H 	0.43370 0.31720 0.58550 0.04400
C 	C 	0.49000 0.20700 0.52670 0.07700
H 	H 	0.54920 0.16360 0.54480 0.01400
C 	C 	0.47820 0.21740 0.39260 0.05800
H 	H 	0.48560 0.15050 0.35450 0.01200
C 	C 	0.56350 0.28500 0.34330 -0.02900
H 	H 	0.63010 0.25000 0.35370 0.04000
H 	H 	0.55230 0.29490 0.25830 0.06000
O 	O 	0.68910 0.33840 0.54830 -0.47200
H 	H 	0.74000 0.33600 0.48900 0.19700
O 	O 	0.54260 0.29400 0.70710 -0.44100
H 	H 	0.49550 0.29140 0.76670 0.20900
O 	O 	0.39770 0.16090 0.57380 -0.43400
H 	H 	0.40130 0.10790 0.63050 0.18100
O 	O 	0.37620 0.25910 0.37270 -0.30500
O 	O 	0.56730 0.38550 0.40100 -0.20700
C 	C 	0.41130 0.62040 0.02390 0.17600
H 	H 	0.41550 0.54990 0.05770 -0.01100
C 	C 	0.49150 0.68950 0.08680 0.05200
H 	H 	0.56630 0.68280 0.08550 0.02500
C 	C 	0.51000 0.79300 0.02670 -0.00200
H 	H 	0.45080 0.83640 0.04480 0.02800
C 	C 	0.52180 0.78260 0.89260 0.14100
H 	H 	0.51440 0.84950 0.85450 -0.00300
C 	C 	0.43650 0.71500 0.84330 -0.07900
H 	H 	0.36990 0.75000 0.85370 0.06700
H 	H 	0.44770 0.70510 0.75830 0.07800
O 	O 	0.31090 0.66160 0.04830 -0.51600
H 	H 	0.26000 0.66400 0.98900 0.24600
O 	O 	0.45740 0.70600 0.20710 -0.44700
H 	H 	0.50450 0.70860 0.26670 0.20700
O 	O 	0.60230 0.83910 0.07380 -0.43300
H 	H 	0.59870 0.89210 0.13050 0.17100
O 	O 	0.62380 0.74090 0.87270 -0.30200
O 	O 	0.43270 0.61450 0.90100 -0.15900
C 	C 	0.62040 0.41130 0.97610 0.29100
H 	H 	0.54990 0.41550 0.94230 -0.01900
C 	C 	0.68950 0.49150 0.91320 -0.01900
H 	H 	0.68280 0.56630 0.91450 0.06400
C 	C 	0.79300 0.51000 0.97330 0.15800
H 	H 	0.83640 0.45080 0.95520 0.00100
C 	C 	0.78260 0.52180 0.10740 -0.02500
H 	H 	0.84950 0.51440 0.14550 0.03000
C 	C 	0.71500 0.43650 0.15670 0.01700
H 	H 	0.75000 0.36990 0.14630 0.01600
H 	H 	0.70510 0.44770 0.24170 0.05000
O 	O 	0.66160 0.31090 0.95170 -0.42600
H 	H 	0.66400 0.26000 0.01100 0.14600
O 	O 	0.70600 0.45740 0.79290 -0.43300
H 	H 	0.70860 0.50450 0.73330 0.20100
O 	O 	0.83910 0.60230 0.92620 -0.43200
H 	H 	0.89210 0.59870 0.86950 0.18500
O 	O 	0.74090 0.62380 0.12730 -0.30200
O 	O 	0.61450 0.43270 0.09900 -0.25400
C 	C 	0.37960 0.58870 0.47610 0.23200
H 	H 	0.45010 0.58450 0.44230 -0.01500
C 	C 	0.31050 0.50850 0.41320 0.01600
H 	H 	0.31720 0.43370 0.41450 0.04300
C 	C 	0.20700 0.49000 0.47330 0.07600
H 	H 	0.16360 0.54920 0.45520 0.01400
C 	C 	0.21740 0.47820 0.60740 0.06100
H 	H 	0.15050 0.48560 0.64550 0.01400
C 	C 	0.28500 0.56350 0.65670 -0.03400
H 	H 	0.25000 0.63010 0.64630 0.04300
H 	H 	0.29490 0.55230 0.74170 0.06800
O 	O 	0.33840 0.68910 0.45170 -0.47200
H 	H 	0.33600 0.74000 0.51100 0.19700
O 	O 	0.29400 0.54260 0.29290 -0.43900
H 	H 	0.29140 0.49550 0.23330 0.19900
O 	O 	0.16090 0.39770 0.42620 -0.43400
H 	H 	0.10790 0.40130 0.36950 0.17500
O 	O 	0.25910 0.37620 0.62730 -0.30100
O 	O 	0.38550 0.56730 0.59900 -0.20600
C 	C 	0.91130 0.87960 0.22610 0.22300
H 	H 	0.91550 0.95010 0.19230 -0.01700
C 	C 	0.99150 0.81050 0.16320 0.04500
H 	H 	0.06630 0.81720 0.16450 0.02800
C 	C 	0.01000 0.70700 0.22330 0.06200
H 	H 	0.95080 0.66360 0.20520 0.01600
C 	C 	0.02180 0.71740 0.35740 0.06200
H 	H 	0.01440 0.65050 0.39550 0.01100
C 	C 	0.93650 0.78500 0.40670 -0.03300
H 	H 	0.86990 0.75000 0.39630 0.04200
H 	H 	0.94770 0.79490 0.49170 0.06600
O 	O 	0.81090 0.83840 0.20170 -0.47600
H 	H 	0.76000 0.83600 0.26100 0.19700
O 	O 	0.95740 0.79400 0.04290 -0.51400
H 	H 	0.00450 0.79140 0.98330 0.26000
O 	O 	0.10230 0.66090 0.17620 -0.43200
H 	H 	0.09870 0.60790 0.11950 0.16300
O 	O 	0.12380 0.75910 0.37730 -0.30400
O 	O 	0.93270 0.88550 0.34900 -0.20400
C 	C 	0.08870 0.12040 0.72610 0.23000
H 	H 	0.08450 0.04990 0.69230 -0.01200
C 	C 	0.00850 0.18950 0.66320 0.01500
H 	H 	0.93370 0.18280 0.66450 0.04400
C 	C 	0.99000 0.29300 0.72330 0.07900
H 	H 	0.04920 0.33640 0.70520 0.01300
C 	C 	0.97820 0.28260 0.85740 0.06500
H 	H 	0.98560 0.34950 0.89550 0.02100
C 	C 	0.06350 0.21500 0.90670 -0.04900
H 	H 	0.13010 0.25000 0.89630 0.05600
H 	H 	0.05230 0.20510 0.99170 0.08800
O 	O 	0.18910 0.16160 0.70170 -0.47100
H 	H 	0.24000 0.16400 0.76100 0.20400
O 	O 	0.04260 0.20600 0.54290 -0.43900
H 	H 	0.99550 0.20860 0.48330 0.20200
O 	O 	0.89770 0.33910 0.67620 -0.43400
H 	H 	0.90130 0.39210 0.61950 0.17800
O 	O 	0.87620 0.24090 0.87730 -0.29200
O 	O 	0.06730 0.11450 0.84900 -0.19200
Ca	Ca	0.77380 0.77380 -0.00000 1.51300
Ca	Ca	0.22620 0.22620 0.50000 1.52200
Ca	Ca	0.72620 0.27380 0.75000 1.52200
Ca	Ca	0.27380 0.72620 0.25000 1.52200
