data_crystal

_cell_length_a 19.18000
_cell_length_b 19.18000
_cell_length_c 37.36800
_cell_angle_alpha 90.00000
_cell_angle_beta  90.00000
_cell_angle_gamma 120.00000

_symmetry_space_group_name_	'P 1'
_symmetry_space_group_name_H-M	'P 1'

loop_
_symmetry_equiv_pos_as_xyz
  x,y,z

loop_
_atom_site_label
_atom_site_type_symbol
_atom_site_fract_x
_atom_site_fract_y
_atom_site_fract_z
_atom_site_charge
C 	C 	0.97450 0.20980 0.19127 0.39700
O 	O 	0.96356 0.18327 0.15965 -0.47200
C 	C 	0.05150 0.22910 0.20843 -0.11500
O 	O 	0.92536 0.22107 0.20927 -0.48200
C 	C 	0.06730 0.25970 0.24368 -0.00400
H 	H 	0.03020 0.26970 0.25520 0.04700
C 	C 	0.19490 0.28680 0.32130 -0.00900
C 	C 	0.22460 0.35030 0.31010 -0.00700
C 	C 	0.64117 0.54313 0.52460 0.39800
O 	O 	0.63023 0.51660 0.49298 -0.47100
C 	C 	0.71817 0.56243 0.54176 -0.11500
O 	O 	0.59203 0.55440 0.54260 -0.48200
C 	C 	0.73397 0.59303 0.57701 -0.00400
H 	H 	0.69687 0.60303 0.58853 0.04700
C 	C 	0.86157 0.62013 0.65463 -0.00900
C 	C 	0.89127 0.68363 0.64343 -0.00700
C 	C 	0.30783 0.87647 0.85794 0.39800
O 	O 	0.29689 0.84994 0.82632 -0.47100
C 	C 	0.38483 0.89577 0.87510 -0.11500
O 	O 	0.25869 0.88774 0.87594 -0.48300
C 	C 	0.40063 0.92637 0.91035 -0.00400
H 	H 	0.36353 0.93637 0.92187 0.04700
C 	C 	0.52823 0.95347 0.98797 -0.00900
C 	C 	0.55793 0.01697 0.97677 -0.00700
C 	C 	0.79020 0.76470 0.19127 0.39800
O 	O 	0.81673 0.78029 0.15965 -0.47100
C 	C 	0.77090 0.82240 0.20843 -0.11500
O 	O 	0.77893 0.70429 0.20927 -0.48300
C 	C 	0.74030 0.80760 0.24368 -0.00400
H 	H 	0.73030 0.76050 0.25520 0.04700
C 	C 	0.71320 0.90810 0.32130 -0.00900
C 	C 	0.64970 0.87430 0.31010 -0.00700
C 	C 	0.45687 0.09803 0.52460 0.39800
O 	O 	0.48340 0.11362 0.49298 -0.47100
C 	C 	0.43757 0.15573 0.54176 -0.11500
O 	O 	0.44560 0.03762 0.54260 -0.48300
C 	C 	0.40697 0.14093 0.57701 -0.00400
H 	H 	0.39697 0.09383 0.58853 0.04700
C 	C 	0.37987 0.24143 0.65463 -0.00900
C 	C 	0.31637 0.20763 0.64343 -0.00700
C 	C 	0.12353 0.43137 0.85794 0.39800
O 	O 	0.15006 0.44696 0.82632 -0.47100
C 	C 	0.10423 0.48907 0.87510 -0.11500
O 	O 	0.11226 0.37096 0.87594 -0.48200
C 	C 	0.07363 0.47427 0.91035 -0.00400
H 	H 	0.06363 0.42717 0.92187 0.04700
C 	C 	0.04653 0.57477 0.98797 -0.00900
C 	C 	0.98303 0.54097 0.97677 -0.00700
C 	C 	0.23530 0.02550 0.19127 0.39800
O 	O 	0.21971 0.03644 0.15965 -0.47100
C 	C 	0.17760 0.94850 0.20843 -0.11400
O 	O 	0.29571 0.07464 0.20927 -0.48200
C 	C 	0.19240 0.93270 0.24368 -0.00500
H 	H 	0.23950 0.96980 0.25520 0.04700
C 	C 	0.09190 0.80510 0.32130 -0.00900
C 	C 	0.12570 0.77540 0.31010 -0.00700
C 	C 	0.90197 0.35883 0.52460 0.39800
O 	O 	0.88638 0.36977 0.49298 -0.47100
C 	C 	0.84427 0.28183 0.54176 -0.11500
O 	O 	0.96238 0.40797 0.54260 -0.48200
C 	C 	0.85907 0.26603 0.57701 -0.00400
H 	H 	0.90617 0.30313 0.58853 0.04700
C 	C 	0.75857 0.13843 0.65463 -0.00900
C 	C 	0.79237 0.10873 0.64343 -0.00700
C 	C 	0.56863 0.69217 0.85794 0.39800
O 	O 	0.55304 0.70311 0.82632 -0.47100
C 	C 	0.51093 0.61517 0.87510 -0.11500
O 	O 	0.62904 0.74131 0.87594 -0.48300
C 	C 	0.52573 0.59937 0.91035 -0.00400
H 	H 	0.57283 0.63647 0.92187 0.04700
C 	C 	0.42523 0.47177 0.98797 -0.00900
C 	C 	0.45903 0.44207 0.97677 -0.00700
C 	C 	0.20980 0.97450 0.80873 0.39800
O 	O 	0.18327 0.96356 0.84035 -0.47100
C 	C 	0.22910 0.05150 0.79157 -0.11500
O 	O 	0.22107 0.92536 0.79073 -0.48200
C 	C 	0.25970 0.06730 0.75632 -0.00400
H 	H 	0.26970 0.03020 0.74480 0.04700
C 	C 	0.28680 0.19490 0.67870 -0.00900
C 	C 	0.35030 0.22460 0.68990 -0.00700
C 	C 	0.87647 0.30783 0.14206 0.39800
O 	O 	0.84994 0.29689 0.17368 -0.47100
C 	C 	0.89577 0.38483 0.12490 -0.11500
O 	O 	0.88774 0.25869 0.12406 -0.48300
C 	C 	0.92637 0.40063 0.08965 -0.00400
H 	H 	0.93637 0.36353 0.07813 0.04700
C 	C 	0.95347 0.52823 0.01203 -0.00900
C 	C 	0.01697 0.55793 0.02323 -0.00700
C 	C 	0.54313 0.64117 0.47540 0.39800
O 	O 	0.51660 0.63023 0.50702 -0.47100
C 	C 	0.56243 0.71817 0.45824 -0.11500
O 	O 	0.55440 0.59203 0.45740 -0.48200
C 	C 	0.59303 0.73397 0.42299 -0.00400
H 	H 	0.60303 0.69687 0.41147 0.04700
C 	C 	0.62013 0.86157 0.34537 -0.00900
C 	C 	0.68363 0.89127 0.35657 -0.00700
C 	C 	0.76470 0.79020 0.80873 0.39800
O 	O 	0.78029 0.81673 0.84035 -0.47100
C 	C 	0.82240 0.77090 0.79157 -0.11500
O 	O 	0.70429 0.77893 0.79073 -0.48300
C 	C 	0.80760 0.74030 0.75632 -0.00400
H 	H 	0.76050 0.73030 0.74480 0.04700
C 	C 	0.90810 0.71320 0.67870 -0.00900
C 	C 	0.87430 0.64970 0.68990 -0.00700
C 	C 	0.43137 0.12353 0.14206 0.39800
O 	O 	0.44696 0.15006 0.17368 -0.47100
C 	C 	0.48907 0.10423 0.12490 -0.11500
O 	O 	0.37096 0.11226 0.12406 -0.48200
C 	C 	0.47427 0.07363 0.08965 -0.00400
H 	H 	0.42717 0.06363 0.07813 0.04700
C 	C 	0.57477 0.04653 0.01203 -0.00900
C 	C 	0.54097 0.98303 0.02323 -0.00700
C 	C 	0.09803 0.45687 0.47540 0.39800
O 	O 	0.11362 0.48340 0.50702 -0.47100
C 	C 	0.15573 0.43757 0.45824 -0.11500
O 	O 	0.03762 0.44560 0.45740 -0.48300
C 	C 	0.14093 0.40697 0.42299 -0.00400
H 	H 	0.09383 0.39697 0.41147 0.04700
C 	C 	0.24143 0.37987 0.34537 -0.00900
C 	C 	0.20763 0.31637 0.35657 -0.00700
C 	C 	0.02550 0.23530 0.80873 0.39800
O 	O 	0.03644 0.21971 0.84035 -0.47100
C 	C 	0.94850 0.17760 0.79157 -0.11400
O 	O 	0.07464 0.29571 0.79073 -0.48200
C 	C 	0.93270 0.19240 0.75632 -0.00500
H 	H 	0.96980 0.23950 0.74480 0.04700
C 	C 	0.80510 0.09190 0.67870 -0.00900
C 	C 	0.77540 0.12570 0.68990 -0.00700
C 	C 	0.69217 0.56863 0.14206 0.39800
O 	O 	0.70311 0.55304 0.17368 -0.47100
C 	C 	0.61517 0.51093 0.12490 -0.11500
O 	O 	0.74131 0.62904 0.12406 -0.48300
C 	C 	0.59937 0.52573 0.08965 -0.00400
H 	H 	0.63647 0.57283 0.07813 0.04700
C 	C 	0.47177 0.42523 0.01203 -0.00900
C 	C 	0.44207 0.45903 0.02323 -0.00700
C 	C 	0.35883 0.90197 0.47540 0.39800
O 	O 	0.36977 0.88638 0.50702 -0.47100
C 	C 	0.28183 0.84427 0.45824 -0.11500
O 	O 	0.40797 0.96238 0.45740 -0.48200
C 	C 	0.26603 0.85907 0.42299 -0.00400
H 	H 	0.30313 0.90617 0.41147 0.04700
C 	C 	0.13843 0.75857 0.34537 -0.00900
C 	C 	0.10873 0.79237 0.35657 -0.00700
C 	C 	0.02550 0.79020 0.80873 0.39800
O 	O 	0.03644 0.81673 0.84035 -0.47100
C 	C 	0.94850 0.77090 0.79157 -0.11500
O 	O 	0.07464 0.77893 0.79073 -0.48200
C 	C 	0.93270 0.74030 0.75632 -0.00400
H 	H 	0.96980 0.73030 0.74480 0.04700
C 	C 	0.80510 0.71320 0.67870 -0.00900
C 	C 	0.77540 0.64970 0.68990 -0.00700
C 	C 	0.69217 0.12353 0.14206 0.39800
O 	O 	0.70311 0.15006 0.17368 -0.47100
C 	C 	0.61517 0.10423 0.12490 -0.11500
O 	O 	0.74131 0.11226 0.12406 -0.48300
C 	C 	0.59937 0.07363 0.08965 -0.00400
H 	H 	0.63647 0.06363 0.07813 0.04700
C 	C 	0.47177 0.04653 0.01203 -0.00900
C 	C 	0.44207 0.98303 0.02323 -0.00700
C 	C 	0.35883 0.45687 0.47540 0.39800
O 	O 	0.36977 0.48340 0.50702 -0.47100
C 	C 	0.28183 0.43757 0.45824 -0.11500
O 	O 	0.40797 0.44560 0.45740 -0.48200
C 	C 	0.26603 0.40697 0.42299 -0.00400
H 	H 	0.30313 0.39697 0.41147 0.04700
C 	C 	0.13843 0.37987 0.34537 -0.00900
C 	C 	0.10873 0.31637 0.35657 -0.00700
C 	C 	0.20980 0.23530 0.80873 0.39800
O 	O 	0.18327 0.21971 0.84035 -0.47100
C 	C 	0.22910 0.17760 0.79157 -0.11500
O 	O 	0.22107 0.29571 0.79073 -0.48300
C 	C 	0.25970 0.19240 0.75632 -0.00400
H 	H 	0.26970 0.23950 0.74480 0.04700
C 	C 	0.28680 0.09190 0.67870 -0.00900
C 	C 	0.35030 0.12570 0.68990 -0.00700
C 	C 	0.87647 0.56863 0.14206 0.39800
O 	O 	0.84994 0.55304 0.17368 -0.47100
C 	C 	0.89577 0.51093 0.12490 -0.11500
O 	O 	0.88774 0.62904 0.12406 -0.48200
C 	C 	0.92637 0.52573 0.08965 -0.00400
H 	H 	0.93637 0.57283 0.07813 0.04700
C 	C 	0.95347 0.42523 0.01203 -0.00900
C 	C 	0.01697 0.45903 0.02323 -0.00700
C 	C 	0.54313 0.90197 0.47540 0.39800
O 	O 	0.51660 0.88638 0.50702 -0.47100
C 	C 	0.56243 0.84427 0.45824 -0.11500
O 	O 	0.55440 0.96238 0.45740 -0.48300
C 	C 	0.59303 0.85907 0.42299 -0.00400
H 	H 	0.60303 0.90617 0.41147 0.04700
C 	C 	0.62013 0.75857 0.34537 -0.00900
C 	C 	0.68363 0.79237 0.35657 -0.00700
C 	C 	0.76470 0.97450 0.80873 0.39800
O 	O 	0.78029 0.96356 0.84035 -0.47100
C 	C 	0.82240 0.05150 0.79157 -0.11400
O 	O 	0.70429 0.92536 0.79073 -0.48200
C 	C 	0.80760 0.06730 0.75632 -0.00500
H 	H 	0.76050 0.03020 0.74480 0.04700
C 	C 	0.90810 0.19490 0.67870 -0.00900
C 	C 	0.87430 0.22460 0.68990 -0.00700
C 	C 	0.43137 0.30783 0.14206 0.39800
O 	O 	0.44696 0.29689 0.17368 -0.47100
C 	C 	0.48907 0.38483 0.12490 -0.11500
O 	O 	0.37096 0.25869 0.12406 -0.48300
C 	C 	0.47427 0.40063 0.08965 -0.00400
H 	H 	0.42717 0.36353 0.07813 0.04700
C 	C 	0.57477 0.52823 0.01203 -0.00900
C 	C 	0.54097 0.55793 0.02323 -0.00700
C 	C 	0.09803 0.64117 0.47540 0.39800
O 	O 	0.11362 0.63023 0.50702 -0.47100
C 	C 	0.15573 0.71817 0.45824 -0.11500
O 	O 	0.03762 0.59203 0.45740 -0.48200
C 	C 	0.14093 0.73397 0.42299 -0.00400
H 	H 	0.09383 0.69687 0.41147 0.04700
C 	C 	0.24143 0.86157 0.34537 -0.00900
C 	C 	0.20763 0.89127 0.35657 -0.00700
C 	C 	0.79020 0.02550 0.19127 0.39800
O 	O 	0.81673 0.03644 0.15965 -0.47100
C 	C 	0.77090 0.94850 0.20843 -0.11500
O 	O 	0.77893 0.07464 0.20927 -0.48200
C 	C 	0.74030 0.93270 0.24368 -0.00400
H 	H 	0.73030 0.96980 0.25520 0.04700
C 	C 	0.71320 0.80510 0.32130 -0.00900
C 	C 	0.64970 0.77540 0.31010 -0.00700
C 	C 	0.45687 0.35883 0.52460 0.39800
O 	O 	0.48340 0.36977 0.49298 -0.47100
C 	C 	0.43757 0.28183 0.54176 -0.11500
O 	O 	0.44560 0.40797 0.54260 -0.48200
C 	C 	0.40697 0.26603 0.57701 -0.00400
H 	H 	0.39697 0.30313 0.58853 0.04700
C 	C 	0.37987 0.13843 0.65463 -0.00900
C 	C 	0.31637 0.10873 0.64343 -0.00700
C 	C 	0.12353 0.69217 0.85794 0.39800
O 	O 	0.15006 0.70311 0.82632 -0.47100
C 	C 	0.10423 0.61517 0.87510 -0.11500
O 	O 	0.11226 0.74131 0.87594 -0.48300
C 	C 	0.07363 0.59937 0.91035 -0.00400
H 	H 	0.06363 0.63647 0.92187 0.04700
C 	C 	0.04653 0.47177 0.98797 -0.00900
C 	C 	0.98303 0.44207 0.97677 -0.00700
C 	C 	0.23530 0.20980 0.19127 0.39800
O 	O 	0.21971 0.18327 0.15965 -0.47100
C 	C 	0.17760 0.22910 0.20843 -0.11500
O 	O 	0.29571 0.22107 0.20927 -0.48300
C 	C 	0.19240 0.25970 0.24368 -0.00400
H 	H 	0.23950 0.26970 0.25520 0.04700
C 	C 	0.09190 0.28680 0.32130 -0.00900
C 	C 	0.12570 0.35030 0.31010 -0.00700
C 	C 	0.90197 0.54313 0.52460 0.39800
O 	O 	0.88638 0.51660 0.49298 -0.47100
C 	C 	0.84427 0.56243 0.54176 -0.11500
O 	O 	0.96238 0.55440 0.54260 -0.48300
C 	C 	0.85907 0.59303 0.57701 -0.00400
H 	H 	0.90617 0.60303 0.58853 0.04700
C 	C 	0.75857 0.62013 0.65463 -0.00900
C 	C 	0.79237 0.68363 0.64343 -0.00700
C 	C 	0.56863 0.87647 0.85794 0.39800
O 	O 	0.55304 0.84994 0.82632 -0.47100
C 	C 	0.51093 0.89577 0.87510 -0.11500
O 	O 	0.62904 0.88774 0.87594 -0.48200
C 	C 	0.52573 0.92637 0.91035 -0.00400
H 	H 	0.57283 0.93637 0.92187 0.04700
C 	C 	0.42523 0.95347 0.98797 -0.00900
C 	C 	0.45903 0.01697 0.97677 -0.00700
C 	C 	0.97450 0.76470 0.19127 0.39800
O 	O 	0.96356 0.78029 0.15965 -0.47100
C 	C 	0.05150 0.82240 0.20843 -0.11400
O 	O 	0.92536 0.70429 0.20927 -0.48200
C 	C 	0.06730 0.80760 0.24368 -0.00500
H 	H 	0.03020 0.76050 0.25520 0.04700
C 	C 	0.19490 0.90810 0.32130 -0.00900
C 	C 	0.22460 0.87430 0.31010 -0.00700
C 	C 	0.64117 0.09803 0.52460 0.39800
O 	O 	0.63023 0.11362 0.49298 -0.47100
C 	C 	0.71817 0.15573 0.54176 -0.11500
O 	O 	0.59203 0.03762 0.54260 -0.48200
C 	C 	0.73397 0.14093 0.57701 -0.00400
H 	H 	0.69687 0.09383 0.58853 0.04700
C 	C 	0.86157 0.24143 0.65463 -0.00900
C 	C 	0.89127 0.20763 0.64343 -0.00700
C 	C 	0.30783 0.43137 0.85794 0.39800
O 	O 	0.29689 0.44696 0.82632 -0.47100
C 	C 	0.38483 0.48907 0.87510 -0.11500
O 	O 	0.25869 0.37096 0.87594 -0.48300
C 	C 	0.40063 0.47427 0.91035 -0.00400
H 	H 	0.36353 0.42717 0.92187 0.04700
C 	C 	0.52823 0.57477 0.98797 -0.00900
C 	C 	0.55793 0.54097 0.97677 -0.00700
Zn	Zn	0.85752 0.14248 0.13313 1.19700
Zn	Zn	0.52419 0.47581 0.46647 1.19700
Zn	Zn	0.19086 0.80914 0.79980 1.19700
Zn	Zn	0.85752 0.71505 0.13313 1.19700
Zn	Zn	0.52419 0.04838 0.46647 1.19700
Zn	Zn	0.19086 0.38171 0.79980 1.19700
Zn	Zn	0.28495 0.14248 0.13313 1.19700
Zn	Zn	0.95162 0.47581 0.46647 1.19700
Zn	Zn	0.61829 0.80914 0.79980 1.19700
Zn	Zn	0.14248 0.85752 0.86687 1.19700
Zn	Zn	0.80914 0.19086 0.20020 1.19700
Zn	Zn	0.47581 0.52419 0.53353 1.19700
Zn	Zn	0.71505 0.85752 0.86687 1.19700
Zn	Zn	0.38171 0.19086 0.20020 1.19700
Zn	Zn	0.04838 0.52419 0.53353 1.19700
Zn	Zn	0.14248 0.28495 0.86687 1.19700
Zn	Zn	0.80914 0.61829 0.20020 1.19700
Zn	Zn	0.47581 0.95162 0.53353 1.19700
C 	C 	0.10760 0.21520 0.19145 0.05700
H 	H 	0.09800 0.19600 0.16810 0.03500
C 	C 	0.13755 0.27510 0.26173 -0.00500
C 	C 	0.15290 0.30580 0.29864 0.00300
C 	C 	0.77427 0.54853 0.52478 0.05700
H 	H 	0.76467 0.52933 0.50143 0.03500
C 	C 	0.80422 0.60843 0.59506 -0.00500
C 	C 	0.81957 0.63913 0.63197 0.00300
C 	C 	0.44093 0.88187 0.85812 0.05700
H 	H 	0.43133 0.86267 0.83477 0.03500
C 	C 	0.47088 0.94177 0.92840 -0.00500
C 	C 	0.48623 0.97247 0.96531 0.00300
C 	C 	0.78480 0.89240 0.19145 0.05700
H 	H 	0.80400 0.90200 0.16810 0.03500
C 	C 	0.72490 0.86245 0.26173 -0.00500
C 	C 	0.69420 0.84710 0.29864 0.00300
C 	C 	0.45147 0.22573 0.52478 0.05700
H 	H 	0.47067 0.23533 0.50143 0.03500
C 	C 	0.39157 0.19578 0.59506 -0.00500
C 	C 	0.36087 0.18043 0.63197 0.00300
C 	C 	0.11813 0.55907 0.85812 0.05700
H 	H 	0.13733 0.56867 0.83477 0.03500
C 	C 	0.05823 0.52912 0.92840 -0.00500
C 	C 	0.02753 0.51377 0.96531 0.00300
C 	C 	0.10760 0.89240 0.19145 0.05700
H 	H 	0.09800 0.90200 0.16810 0.03500
C 	C 	0.13755 0.86245 0.26173 -0.00500
C 	C 	0.15290 0.84710 0.29864 0.00300
C 	C 	0.77427 0.22573 0.52478 0.05700
H 	H 	0.76467 0.23533 0.50143 0.03500
C 	C 	0.80422 0.19578 0.59506 -0.00500
C 	C 	0.81957 0.18043 0.63197 0.00300
C 	C 	0.44093 0.55907 0.85812 0.05700
H 	H 	0.43133 0.56867 0.83477 0.03500
C 	C 	0.47088 0.52912 0.92840 -0.00500
C 	C 	0.48623 0.51377 0.96531 0.00300
C 	C 	0.21520 0.10760 0.80855 0.05700
H 	H 	0.19600 0.09800 0.83190 0.03500
C 	C 	0.27510 0.13755 0.73827 -0.00500
C 	C 	0.30580 0.15290 0.70136 0.00300
C 	C 	0.88187 0.44093 0.14188 0.05700
H 	H 	0.86267 0.43133 0.16523 0.03500
C 	C 	0.94177 0.47088 0.07160 -0.00500
C 	C 	0.97247 0.48623 0.03469 0.00300
C 	C 	0.54853 0.77427 0.47522 0.05700
H 	H 	0.52933 0.76467 0.49857 0.03500
C 	C 	0.60843 0.80422 0.40494 -0.00500
C 	C 	0.63913 0.81957 0.36803 0.00300
C 	C 	0.89240 0.78480 0.80855 0.05700
H 	H 	0.90200 0.80400 0.83190 0.03500
C 	C 	0.86245 0.72490 0.73827 -0.00500
C 	C 	0.84710 0.69420 0.70136 0.00300
C 	C 	0.55907 0.11813 0.14188 0.05700
H 	H 	0.56867 0.13733 0.16523 0.03500
C 	C 	0.52912 0.05823 0.07160 -0.00500
C 	C 	0.51377 0.02753 0.03469 0.00300
C 	C 	0.22573 0.45147 0.47522 0.05700
H 	H 	0.23533 0.47067 0.49857 0.03500
C 	C 	0.19578 0.39157 0.40494 -0.00500
C 	C 	0.18043 0.36087 0.36803 0.00300
C 	C 	0.89240 0.10760 0.80855 0.05700
H 	H 	0.90200 0.09800 0.83190 0.03500
C 	C 	0.86245 0.13755 0.73827 -0.00500
C 	C 	0.84710 0.15290 0.70136 0.00300
C 	C 	0.55907 0.44093 0.14188 0.05700
H 	H 	0.56867 0.43133 0.16523 0.03500
C 	C 	0.52912 0.47088 0.07160 -0.00500
C 	C 	0.51377 0.48623 0.03469 0.00300
C 	C 	0.22573 0.77427 0.47522 0.05700
H 	H 	0.23533 0.76467 0.49857 0.03500
C 	C 	0.19578 0.80422 0.40494 -0.00500
C 	C 	0.18043 0.81957 0.36803 0.00300
