data_crystal

_cell_length_a 19.15930
_cell_length_b 19.15930
_cell_length_c 37.39100
_cell_angle_alpha 90.00000
_cell_angle_beta  90.00000
_cell_angle_gamma 120.00000

_symmetry_space_group_name_	'P 1'
_symmetry_space_group_name_H-M	'P 1'

loop_
_symmetry_equiv_pos_as_xyz
  x,y,z

loop_
_atom_site_label
_atom_site_type_symbol
_atom_site_fract_x
_atom_site_fract_y
_atom_site_fract_z
_atom_site_charge
O 	O 	0.11349 0.62982 0.00677 -0.47300
O 	O 	0.03713 0.59152 0.95746 -0.48100
C 	C 	0.09820 0.64090 0.97540 0.40500
C 	C 	0.15550 0.71820 0.95804 -0.11800
C 	C 	0.14100 0.73450 0.92276 0.00800
H 	H 	0.09360 0.69770 0.91130 0.04700
C 	C 	0.24170 0.85570 0.84540 0.02600
C 	C 	0.20610 0.89140 0.85630 -0.02100
N 	N 	0.22473 0.87277 0.81037 -0.12200
O 	O 	0.78016 0.96315 0.34010 -0.47300
O 	O 	0.70380 0.92485 0.29079 -0.48200
C 	C 	0.76487 0.97423 0.30873 0.40300
C 	C 	0.82217 0.05153 0.29137 -0.11900
C 	C 	0.80767 0.06783 0.25609 0.00700
H 	H 	0.76027 0.03103 0.24463 0.04700
C 	C 	0.90837 0.18903 0.17873 0.02500
C 	C 	0.87277 0.22473 0.18963 -0.02200
N 	N 	0.89140 0.20610 0.14370 -0.12300
O 	O 	0.44682 0.29649 0.67344 -0.47400
O 	O 	0.37046 0.25819 0.62413 -0.48200
C 	C 	0.43153 0.30757 0.64207 0.40300
C 	C 	0.48883 0.38487 0.62471 -0.11900
C 	C 	0.47433 0.40117 0.58943 0.00700
H 	H 	0.42693 0.36437 0.57797 0.04600
C 	C 	0.57503 0.52237 0.51207 0.02500
C 	C 	0.53943 0.55807 0.52297 -0.02200
N 	N 	0.55807 0.53943 0.47703 -0.12300
O 	O 	0.37018 0.48367 0.00677 -0.47400
O 	O 	0.40848 0.44561 0.95746 -0.48200
C 	C 	0.35910 0.45730 0.97540 0.40300
C 	C 	0.28180 0.43730 0.95804 -0.11900
C 	C 	0.26550 0.40650 0.92276 0.00700
H 	H 	0.30230 0.39590 0.91130 0.04600
C 	C 	0.14430 0.38600 0.84540 0.02500
C 	C 	0.10860 0.31470 0.85630 -0.02200
N 	N 	0.12723 0.35197 0.81037 -0.12300
O 	O 	0.03685 0.81700 0.34010 -0.47400
O 	O 	0.07515 0.77894 0.29079 -0.48200
C 	C 	0.02577 0.79063 0.30873 0.40300
C 	C 	0.94847 0.77063 0.29137 -0.11900
C 	C 	0.93217 0.73983 0.25609 0.00700
H 	H 	0.96897 0.72923 0.24463 0.04600
C 	C 	0.81097 0.71933 0.17873 0.02500
C 	C 	0.77527 0.64803 0.18963 -0.02200
N 	N 	0.79390 0.68530 0.14370 -0.12300
O 	O 	0.70351 0.15034 0.67344 -0.47400
O 	O 	0.74181 0.11228 0.62413 -0.48200
C 	C 	0.69243 0.12397 0.64207 0.40300
C 	C 	0.61513 0.10397 0.62471 -0.11900
C 	C 	0.59883 0.07317 0.58943 0.00700
H 	H 	0.63563 0.06257 0.57797 0.04600
C 	C 	0.47763 0.05267 0.51207 0.02500
C 	C 	0.44193 0.98137 0.52297 -0.02200
N 	N 	0.46057 0.01863 0.47703 -0.12300
O 	O 	0.51633 0.88651 0.00677 -0.47400
O 	O 	0.55439 0.96287 0.95746 -0.48200
C 	C 	0.54270 0.90180 0.97540 0.40300
C 	C 	0.56270 0.84450 0.95804 -0.11900
C 	C 	0.59350 0.85900 0.92276 0.00700
H 	H 	0.60410 0.90640 0.91130 0.04600
C 	C 	0.61400 0.75830 0.84540 0.02500
C 	C 	0.68530 0.79390 0.85630 -0.02200
N 	N 	0.64803 0.77527 0.81037 -0.12300
O 	O 	0.18300 0.21984 0.34010 -0.47400
O 	O 	0.22106 0.29620 0.29079 -0.48200
C 	C 	0.20937 0.23513 0.30873 0.40300
C 	C 	0.22937 0.17783 0.29137 -0.11900
C 	C 	0.26017 0.19233 0.25609 0.00700
H 	H 	0.27077 0.23973 0.24463 0.04600
C 	C 	0.28067 0.09163 0.17873 0.02500
C 	C 	0.35197 0.12723 0.18963 -0.02200
N 	N 	0.31470 0.10860 0.14370 -0.12300
O 	O 	0.84966 0.55318 0.67344 -0.47400
O 	O 	0.88772 0.62954 0.62413 -0.48200
C 	C 	0.87603 0.56847 0.64207 0.40300
C 	C 	0.89603 0.51117 0.62471 -0.11900
C 	C 	0.92683 0.52567 0.58943 0.00700
H 	H 	0.93743 0.57307 0.57797 0.04600
C 	C 	0.94733 0.42497 0.51207 0.02500
C 	C 	0.01863 0.46057 0.52297 -0.02200
N 	N 	0.98137 0.44193 0.47703 -0.12300
O 	O 	0.62982 0.11349 0.99323 -0.47400
O 	O 	0.59152 0.03713 0.04254 -0.48200
C 	C 	0.64090 0.09820 0.02460 0.40300
C 	C 	0.71820 0.15550 0.04196 -0.11900
C 	C 	0.73450 0.14100 0.07724 0.00600
H 	H 	0.69770 0.09360 0.08870 0.04300
C 	C 	0.85570 0.24170 0.15460 0.04300
O 	O 	0.29649 0.44682 0.32656 -0.47400
O 	O 	0.25819 0.37046 0.37587 -0.48200
C 	C 	0.30757 0.43153 0.35793 0.40300
C 	C 	0.38487 0.48883 0.37529 -0.11900
C 	C 	0.40117 0.47433 0.41057 0.00500
H 	H 	0.36437 0.42693 0.42203 0.04300
C 	C 	0.52237 0.57503 0.48793 0.04300
O 	O 	0.96315 0.78016 0.65990 -0.47400
O 	O 	0.92485 0.70380 0.70921 -0.48200
C 	C 	0.97423 0.76487 0.69127 0.40300
C 	C 	0.05153 0.82217 0.70863 -0.11800
C 	C 	0.06783 0.80767 0.74391 0.00500
H 	H 	0.03103 0.76027 0.75537 0.04400
C 	C 	0.18903 0.90837 0.82127 0.04300
O 	O 	0.48367 0.37018 0.99323 -0.47400
O 	O 	0.44561 0.40848 0.04254 -0.48200
C 	C 	0.45730 0.35910 0.02460 0.40300
C 	C 	0.43730 0.28180 0.04196 -0.11900
C 	C 	0.40650 0.26550 0.07724 0.00500
H 	H 	0.39590 0.30230 0.08870 0.04300
C 	C 	0.38600 0.14430 0.15460 0.04300
O 	O 	0.15034 0.70351 0.32656 -0.47400
O 	O 	0.11228 0.74181 0.37587 -0.48200
C 	C 	0.12397 0.69243 0.35793 0.40300
C 	C 	0.10397 0.61513 0.37529 -0.11900
C 	C 	0.07317 0.59883 0.41057 0.00500
H 	H 	0.06257 0.63563 0.42203 0.04300
C 	C 	0.05267 0.47763 0.48793 0.04300
O 	O 	0.81700 0.03685 0.65990 -0.47400
O 	O 	0.77894 0.07515 0.70921 -0.48200
C 	C 	0.79063 0.02577 0.69127 0.40300
C 	C 	0.77063 0.94847 0.70863 -0.11800
C 	C 	0.73983 0.93217 0.74391 0.00500
H 	H 	0.72923 0.96897 0.75537 0.04400
C 	C 	0.71933 0.81097 0.82127 0.04300
O 	O 	0.88651 0.51633 0.99323 -0.47400
O 	O 	0.96287 0.55439 0.04254 -0.48200
C 	C 	0.90180 0.54270 0.02460 0.40300
C 	C 	0.84450 0.56270 0.04196 -0.11900
C 	C 	0.85900 0.59350 0.07724 0.00500
H 	H 	0.90640 0.60410 0.08870 0.04300
C 	C 	0.75830 0.61400 0.15460 0.04300
O 	O 	0.55318 0.84966 0.32656 -0.47400
O 	O 	0.62954 0.88772 0.37587 -0.48200
C 	C 	0.56847 0.87603 0.35793 0.40300
C 	C 	0.51117 0.89603 0.37529 -0.11900
C 	C 	0.52567 0.92683 0.41057 0.00500
H 	H 	0.57307 0.93743 0.42203 0.04300
C 	C 	0.42497 0.94733 0.48793 0.04300
O 	O 	0.21984 0.18300 0.65990 -0.47400
O 	O 	0.29620 0.22106 0.70921 -0.48200
C 	C 	0.23513 0.20937 0.69127 0.40300
C 	C 	0.17783 0.22937 0.70863 -0.11900
C 	C 	0.19233 0.26017 0.74391 0.00500
H 	H 	0.23973 0.27077 0.75537 0.04400
C 	C 	0.09163 0.28067 0.82127 0.04300
O 	O 	0.88651 0.37018 0.99323 -0.47400
O 	O 	0.96287 0.40848 0.04254 -0.48200
C 	C 	0.90180 0.35910 0.02460 0.40400
C 	C 	0.84450 0.28180 0.04196 -0.11900
C 	C 	0.85900 0.26550 0.07724 0.00700
H 	H 	0.90640 0.30230 0.08870 0.04600
C 	C 	0.75830 0.14430 0.15460 0.02500
C 	C 	0.79390 0.10860 0.14370 -0.02200
N 	N 	0.77527 0.12723 0.18963 -0.12300
O 	O 	0.55318 0.70351 0.32656 -0.47400
O 	O 	0.62954 0.74181 0.37587 -0.48200
C 	C 	0.56847 0.69243 0.35793 0.40300
C 	C 	0.51117 0.61513 0.37529 -0.11900
C 	C 	0.52567 0.59883 0.41057 0.00700
H 	H 	0.57307 0.63563 0.42203 0.04600
C 	C 	0.42497 0.47763 0.48793 0.02500
C 	C 	0.46057 0.44193 0.47703 -0.02200
N 	N 	0.44193 0.46057 0.52297 -0.12300
O 	O 	0.21984 0.03685 0.65990 -0.47400
O 	O 	0.29620 0.07515 0.70921 -0.48200
C 	C 	0.23513 0.02577 0.69127 0.40300
C 	C 	0.17783 0.94847 0.70863 -0.11900
C 	C 	0.19233 0.93217 0.74391 0.00700
H 	H 	0.23973 0.96897 0.75537 0.04700
C 	C 	0.09163 0.81097 0.82127 0.02500
C 	C 	0.12723 0.77527 0.81037 -0.02200
N 	N 	0.10860 0.79390 0.85630 -0.12300
O 	O 	0.62982 0.51633 0.99323 -0.47400
O 	O 	0.59152 0.55439 0.04254 -0.48200
C 	C 	0.64090 0.54270 0.02460 0.40300
C 	C 	0.71820 0.56270 0.04196 -0.11900
C 	C 	0.73450 0.59350 0.07724 0.00700
H 	H 	0.69770 0.60410 0.08870 0.04600
C 	C 	0.85570 0.61400 0.15460 0.02500
C 	C 	0.89140 0.68530 0.14370 -0.02200
N 	N 	0.87277 0.64803 0.18963 -0.12300
O 	O 	0.29649 0.84966 0.32656 -0.47400
O 	O 	0.25819 0.88772 0.37587 -0.48200
C 	C 	0.30757 0.87603 0.35793 0.40300
C 	C 	0.38487 0.89603 0.37529 -0.11900
C 	C 	0.40117 0.92683 0.41057 0.00700
H 	H 	0.36437 0.93743 0.42203 0.04600
C 	C 	0.52237 0.94733 0.48793 0.02500
C 	C 	0.55807 0.01863 0.47703 -0.02200
N 	N 	0.53943 0.98137 0.52297 -0.12300
O 	O 	0.96315 0.18300 0.65990 -0.47400
O 	O 	0.92485 0.22106 0.70921 -0.48200
C 	C 	0.97423 0.20937 0.69127 0.40300
C 	C 	0.05153 0.22937 0.70863 -0.11900
C 	C 	0.06783 0.26017 0.74391 0.00700
H 	H 	0.03103 0.27077 0.75537 0.04600
C 	C 	0.18903 0.28067 0.82127 0.02500
C 	C 	0.22473 0.35197 0.81037 -0.02200
N 	N 	0.20610 0.31470 0.85630 -0.12300
O 	O 	0.48367 0.11349 0.99323 -0.47400
O 	O 	0.44561 0.03713 0.04254 -0.48200
C 	C 	0.45730 0.09820 0.02460 0.40300
C 	C 	0.43730 0.15550 0.04196 -0.11900
C 	C 	0.40650 0.14100 0.07724 0.00700
H 	H 	0.39590 0.09360 0.08870 0.04600
C 	C 	0.38600 0.24170 0.15460 0.02500
C 	C 	0.31470 0.20610 0.14370 -0.02200
N 	N 	0.35197 0.22473 0.18963 -0.12300
O 	O 	0.15034 0.44682 0.32656 -0.47400
O 	O 	0.11228 0.37046 0.37587 -0.48200
C 	C 	0.12397 0.43153 0.35793 0.40300
C 	C 	0.10397 0.48883 0.37529 -0.11900
C 	C 	0.07317 0.47433 0.41057 0.00700
H 	H 	0.06257 0.42693 0.42203 0.04600
C 	C 	0.05267 0.57503 0.48793 0.02500
C 	C 	0.98137 0.53943 0.47703 -0.02200
N 	N 	0.01863 0.55807 0.52297 -0.12300
O 	O 	0.81700 0.78016 0.65990 -0.47400
O 	O 	0.77894 0.70380 0.70921 -0.48200
C 	C 	0.79063 0.76487 0.69127 0.40300
C 	C 	0.77063 0.82217 0.70863 -0.11900
C 	C 	0.73983 0.80767 0.74391 0.00700
H 	H 	0.72923 0.76027 0.75537 0.04600
C 	C 	0.71933 0.90837 0.82127 0.02500
C 	C 	0.64803 0.87277 0.81037 -0.02200
N 	N 	0.68530 0.89140 0.85630 -0.12300
O 	O 	0.37018 0.88651 0.00677 -0.47400
O 	O 	0.40848 0.96287 0.95746 -0.48200
C 	C 	0.35910 0.90180 0.97540 0.40300
C 	C 	0.28180 0.84450 0.95804 -0.11900
C 	C 	0.26550 0.85900 0.92276 0.00600
H 	H 	0.30230 0.90640 0.91130 0.04300
C 	C 	0.14430 0.75830 0.84540 0.04300
O 	O 	0.03685 0.21984 0.34010 -0.47400
O 	O 	0.07515 0.29620 0.29079 -0.48200
C 	C 	0.02577 0.23513 0.30873 0.40300
C 	C 	0.94847 0.17783 0.29137 -0.11800
C 	C 	0.93217 0.19233 0.25609 0.00500
H 	H 	0.96897 0.23973 0.24463 0.04400
C 	C 	0.81097 0.09163 0.17873 0.04300
O 	O 	0.70351 0.55318 0.67344 -0.47400
O 	O 	0.74181 0.62954 0.62413 -0.48200
C 	C 	0.69243 0.56847 0.64207 0.40300
C 	C 	0.61513 0.51117 0.62471 -0.11900
C 	C 	0.59883 0.52567 0.58943 0.00500
H 	H 	0.63563 0.57307 0.57797 0.04300
C 	C 	0.47763 0.42497 0.51207 0.04300
O 	O 	0.51633 0.62982 0.00677 -0.47400
O 	O 	0.55439 0.59152 0.95746 -0.48200
C 	C 	0.54270 0.64090 0.97540 0.40300
C 	C 	0.56270 0.71820 0.95804 -0.11900
C 	C 	0.59350 0.73450 0.92276 0.00500
H 	H 	0.60410 0.69770 0.91130 0.04300
C 	C 	0.61400 0.85570 0.84540 0.04300
O 	O 	0.18300 0.96315 0.34010 -0.47400
O 	O 	0.22106 0.92485 0.29079 -0.48200
C 	C 	0.20937 0.97423 0.30873 0.40300
C 	C 	0.22937 0.05153 0.29137 -0.11800
C 	C 	0.26017 0.06783 0.25609 0.00500
H 	H 	0.27077 0.03103 0.24463 0.04400
C 	C 	0.28067 0.18903 0.17873 0.04300
O 	O 	0.84966 0.29649 0.67344 -0.47400
O 	O 	0.88772 0.25819 0.62413 -0.48200
C 	C 	0.87603 0.30757 0.64207 0.40300
C 	C 	0.89603 0.38487 0.62471 -0.11900
C 	C 	0.92683 0.40117 0.58943 0.00500
H 	H 	0.93743 0.36437 0.57797 0.04300
C 	C 	0.94733 0.52237 0.51207 0.04300
O 	O 	0.11349 0.48367 0.00677 -0.47400
O 	O 	0.03713 0.44561 0.95746 -0.48200
C 	C 	0.09820 0.45730 0.97540 0.40300
C 	C 	0.15550 0.43730 0.95804 -0.11900
C 	C 	0.14100 0.40650 0.92276 0.00500
H 	H 	0.09360 0.39590 0.91130 0.04300
C 	C 	0.24170 0.38600 0.84540 0.04300
O 	O 	0.78016 0.81700 0.34010 -0.47400
O 	O 	0.70380 0.77894 0.29079 -0.48200
C 	C 	0.76487 0.79063 0.30873 0.40300
C 	C 	0.82217 0.77063 0.29137 -0.11900
C 	C 	0.80767 0.73983 0.25609 0.00500
H 	H 	0.76027 0.72923 0.24463 0.04400
C 	C 	0.90837 0.71933 0.17873 0.04300
O 	O 	0.44682 0.15034 0.67344 -0.47400
O 	O 	0.37046 0.11228 0.62413 -0.48200
C 	C 	0.43153 0.12397 0.64207 0.40300
C 	C 	0.48883 0.10397 0.62471 -0.11900
C 	C 	0.47433 0.07317 0.58943 0.00500
H 	H 	0.42693 0.06257 0.57797 0.04300
C 	C 	0.57503 0.05267 0.51207 0.04300
Zn	Zn	0.04867 0.52434 0.03353 1.19900
Zn	Zn	0.71534 0.85767 0.36686 1.19900
Zn	Zn	0.38200 0.19100 0.70019 1.19900
Zn	Zn	0.47567 0.52434 0.03353 1.19900
Zn	Zn	0.14233 0.85767 0.36686 1.19900
Zn	Zn	0.80900 0.19100 0.70019 1.19900
Zn	Zn	0.47566 0.95133 0.03353 1.19900
Zn	Zn	0.14233 0.28466 0.36686 1.19900
Zn	Zn	0.80900 0.61800 0.70019 1.19900
Zn	Zn	0.52434 0.04867 0.96647 1.19900
Zn	Zn	0.19100 0.38200 0.29981 1.19900
Zn	Zn	0.85767 0.71534 0.63314 1.19900
Zn	Zn	0.52434 0.47566 0.96647 1.19900
Zn	Zn	0.19100 0.80900 0.29981 1.19900
Zn	Zn	0.85767 0.14233 0.63314 1.19900
Zn	Zn	0.95133 0.47566 0.96647 1.19900
Zn	Zn	0.61800 0.80900 0.29981 1.19900
Zn	Zn	0.28466 0.14233 0.63314 1.19900
C 	C 	0.22526 0.77474 0.97530 0.06100
H 	H 	0.23430 0.76570 0.99890 0.03400
C 	C 	0.19590 0.80410 0.90478 -0.02000
C 	C 	0.18080 0.81920 0.86803 0.04400
C 	C 	0.89193 0.10807 0.30863 0.06000
H 	H 	0.90097 0.09903 0.33223 0.03500
C 	C 	0.86257 0.13743 0.23811 -0.01900
C 	C 	0.84747 0.15253 0.20136 0.04400
C 	C 	0.55859 0.44141 0.64197 0.06100
H 	H 	0.56763 0.43237 0.66557 0.03400
C 	C 	0.52923 0.47077 0.57145 -0.02000
C 	C 	0.51413 0.48587 0.53470 0.04400
C 	C 	0.22526 0.45052 0.97530 0.06100
H 	H 	0.23430 0.46860 0.99890 0.03400
C 	C 	0.19590 0.39180 0.90478 -0.02000
C 	C 	0.18080 0.36160 0.86803 0.04400
C 	C 	0.89193 0.78385 0.30863 0.06100
H 	H 	0.90097 0.80193 0.33223 0.03500
C 	C 	0.86257 0.72513 0.23811 -0.01900
C 	C 	0.84747 0.69493 0.20136 0.04400
C 	C 	0.55859 0.11719 0.64197 0.06100
H 	H 	0.56763 0.13527 0.66557 0.03400
C 	C 	0.52923 0.05847 0.57145 -0.02000
C 	C 	0.51413 0.02827 0.53470 0.04400
C 	C 	0.54948 0.77474 0.97530 0.06100
H 	H 	0.53140 0.76570 0.99890 0.03400
C 	C 	0.60820 0.80410 0.90478 -0.02000
C 	C 	0.63840 0.81920 0.86803 0.04400
C 	C 	0.21615 0.10807 0.30863 0.06100
H 	H 	0.19807 0.09903 0.33223 0.03500
C 	C 	0.27487 0.13743 0.23811 -0.01900
C 	C 	0.30507 0.15253 0.20136 0.04400
C 	C 	0.88281 0.44141 0.64197 0.06100
H 	H 	0.86473 0.43237 0.66557 0.03400
C 	C 	0.94153 0.47077 0.57145 -0.02000
C 	C 	0.97173 0.48587 0.53470 0.04400
C 	C 	0.77474 0.22526 0.02470 0.06100
H 	H 	0.76570 0.23430 0.00110 0.03400
C 	C 	0.80410 0.19590 0.09522 -0.02000
C 	C 	0.81920 0.18080 0.13197 0.04400
C 	C 	0.44141 0.55859 0.35803 0.06100
H 	H 	0.43237 0.56763 0.33443 0.03400
C 	C 	0.47077 0.52923 0.42855 -0.02000
C 	C 	0.48587 0.51413 0.46530 0.04400
C 	C 	0.10807 0.89193 0.69137 0.06000
H 	H 	0.09903 0.90097 0.66777 0.03500
C 	C 	0.13743 0.86257 0.76189 -0.01900
C 	C 	0.15253 0.84747 0.79864 0.04400
C 	C 	0.45052 0.22526 0.02470 0.06100
H 	H 	0.46860 0.23430 0.00110 0.03400
C 	C 	0.39180 0.19590 0.09522 -0.02000
C 	C 	0.36160 0.18080 0.13197 0.04400
C 	C 	0.11719 0.55859 0.35803 0.06100
H 	H 	0.13527 0.56763 0.33443 0.03400
C 	C 	0.05847 0.52923 0.42855 -0.02000
C 	C 	0.02827 0.51413 0.46530 0.04400
C 	C 	0.78385 0.89193 0.69137 0.06100
H 	H 	0.80193 0.90097 0.66777 0.03500
C 	C 	0.72513 0.86257 0.76189 -0.01900
C 	C 	0.69493 0.84747 0.79864 0.04400
C 	C 	0.77474 0.54948 0.02470 0.06100
H 	H 	0.76570 0.53140 0.00110 0.03400
C 	C 	0.80410 0.60820 0.09522 -0.02000
C 	C 	0.81920 0.63840 0.13197 0.04400
C 	C 	0.44141 0.88281 0.35803 0.06100
H 	H 	0.43237 0.86473 0.33443 0.03400
C 	C 	0.47077 0.94153 0.42855 -0.02000
C 	C 	0.48587 0.97173 0.46530 0.04400
C 	C 	0.10807 0.21615 0.69137 0.06100
H 	H 	0.09903 0.19807 0.66777 0.03500
C 	C 	0.13743 0.27487 0.76189 -0.01900
C 	C 	0.15253 0.30507 0.79864 0.04400
