data_crystal

_cell_length_a 24.03000
_cell_length_b 24.03000
_cell_length_c 12.81500
_cell_angle_alpha 90.00000
_cell_angle_beta  90.00000
_cell_angle_gamma 120.00000

_symmetry_space_group_name_	'P 1'
_symmetry_space_group_name_H-M	'P 1'

loop_
_symmetry_equiv_pos_as_xyz
  x,y,z

loop_
_atom_site_label
_atom_site_type_symbol
_atom_site_fract_x
_atom_site_fract_y
_atom_site_fract_z
_atom_site_charge
O 	O 	0.28000 0.58150 0.31270 -0.33000
N 	N 	0.21740 0.54420 0.29480 -0.08200
C 	C 	0.19230 0.48000 0.29130 0.12000
H 	H 	0.21850 0.46250 0.30370 0.00300
C 	C 	0.12770 0.43980 0.26930 -0.23600
H 	H 	0.11140 0.39580 0.26290 0.11500
C 	C 	0.08620 0.46570 0.25650 0.26400
C 	C 	0.11570 0.53210 0.26540 -0.23900
H 	H 	0.09000 0.55090 0.26060 0.11300
C 	C 	0.18150 0.57230 0.28100 0.11700
H 	H 	0.19980 0.61680 0.28190 -0.00400
C 	C 	0.02120 0.42860 0.20240 -0.21600
C 	C 	0.01850 0.42570 0.29990 -0.26400
O 	O 	0.94667 0.91483 0.64603 -0.29300
N 	N 	0.88407 0.87753 0.62813 -0.06300
C 	C 	0.85897 0.81333 0.62463 0.06500
H 	H 	0.88517 0.79583 0.63703 0.02500
C 	C 	0.79437 0.77313 0.60263 -0.13100
H 	H 	0.77807 0.72913 0.59623 0.07800
C 	C 	0.75287 0.79903 0.58983 0.08000
C 	C 	0.78237 0.86543 0.59873 -0.12700
H 	H 	0.75667 0.88423 0.59393 0.07900
C 	C 	0.84817 0.90563 0.61433 0.06200
H 	H 	0.86647 0.95013 0.61523 0.02800
C 	C 	0.68787 0.76193 0.53573 0.01200
C 	C 	0.68517 0.75903 0.63323 -0.04700
O 	O 	0.61333 0.24817 0.97937 -0.33300
N 	N 	0.55073 0.21087 0.96147 -0.06500
C 	C 	0.52563 0.14667 0.95797 0.07000
H 	H 	0.55183 0.12917 0.97037 0.01900
C 	C 	0.46103 0.10647 0.93597 -0.14300
H 	H 	0.44473 0.06247 0.92957 0.07700
C 	C 	0.41953 0.13237 0.92317 0.10400
C 	C 	0.44903 0.19877 0.93207 -0.14300
H 	H 	0.42333 0.21757 0.92727 0.08200
C 	C 	0.51483 0.23897 0.94767 0.06700
H 	H 	0.53313 0.28347 0.94857 0.01500
C 	C 	0.35453 0.09527 0.86907 -0.02300
C 	C 	0.35183 0.09237 0.96657 -0.07900
O 	O 	0.41850 0.69850 0.31270 -0.33300
N 	N 	0.45580 0.67320 0.29480 -0.06200
C 	C 	0.52000 0.71230 0.29130 0.06300
H 	H 	0.53750 0.75600 0.30370 0.02300
C 	C 	0.56020 0.68790 0.26930 -0.13000
H 	H 	0.60420 0.71560 0.26290 0.07800
C 	C 	0.53430 0.62050 0.25650 0.07900
C 	C 	0.46790 0.58360 0.26540 -0.12800
H 	H 	0.44910 0.53910 0.26060 0.07600
C 	C 	0.42770 0.60920 0.28100 0.05900
H 	H 	0.38320 0.58300 0.28190 0.01700
C 	C 	0.57140 0.59260 0.20240 0.01000
C 	C 	0.57430 0.59280 0.29990 -0.04600
O 	O 	0.08517 0.03183 0.64603 -0.32800
N 	N 	0.12247 0.00653 0.62813 -0.09500
C 	C 	0.18667 0.04563 0.62463 0.09900
H 	H 	0.20417 0.08933 0.63703 0.00900
C 	C 	0.22687 0.02123 0.60263 -0.21600
H 	H 	0.27087 0.04893 0.59623 0.10100
C 	C 	0.20097 0.95383 0.58983 0.16600
C 	C 	0.13457 0.91693 0.59873 -0.18700
H 	H 	0.11577 0.87243 0.59393 0.09400
C 	C 	0.09437 0.94253 0.61433 0.12700
H 	H 	0.04987 0.91633 0.61523 -0.00700
C 	C 	0.23807 0.92593 0.53573 -0.02600
C 	C 	0.24097 0.92613 0.63323 -0.07900
O 	O 	0.75183 0.36517 0.97937 -0.33200
N 	N 	0.78913 0.33987 0.96147 -0.05900
C 	C 	0.85333 0.37897 0.95797 0.05600
H 	H 	0.87083 0.42267 0.97037 0.02600
C 	C 	0.89353 0.35457 0.93597 -0.11600
H 	H 	0.93753 0.38227 0.92957 0.07800
C 	C 	0.86763 0.28717 0.92317 0.05300
C 	C 	0.80123 0.25027 0.93207 -0.11100
H 	H 	0.78243 0.20577 0.92727 0.06900
C 	C 	0.76103 0.27587 0.94767 0.05100
H 	H 	0.71653 0.24967 0.94857 0.02000
C 	C 	0.90473 0.25927 0.86907 0.04400
C 	C 	0.90763 0.25947 0.96657 -0.01100
O 	O 	0.30150 0.72000 0.31270 -0.33500
N 	N 	0.32680 0.78260 0.29480 -0.04000
C 	C 	0.28770 0.80770 0.29130 0.00600
H 	H 	0.24400 0.78150 0.30370 0.04200
C 	C 	0.31210 0.87230 0.26930 -0.02200
H 	H 	0.28440 0.88860 0.26290 0.03900
C 	C 	0.37950 0.91380 0.25650 -0.11000
C 	C 	0.41640 0.88430 0.26540 -0.01300
H 	H 	0.46090 0.91000 0.26060 0.03800
C 	C 	0.39080 0.81850 0.28100 0.00000
H 	H 	0.41700 0.80020 0.28190 0.03900
C 	C 	0.40740 0.97880 0.20240 0.23800
C 	C 	0.40720 0.98150 0.29990 0.18400
O 	O 	0.96817 0.05333 0.64603 -0.31300
N 	N 	0.99347 0.11593 0.62813 -0.03000
C 	C 	0.95437 0.14103 0.62463 0.02800
H 	H 	0.91067 0.11483 0.63703 0.03300
C 	C 	0.97877 0.20563 0.60263 -0.04400
H 	H 	0.95107 0.22193 0.59623 0.05500
C 	C 	0.04617 0.24713 0.58983 -0.00800
C 	C 	0.08307 0.21763 0.59873 -0.06900
H 	H 	0.12757 0.24333 0.59393 0.05600
C 	C 	0.05747 0.15183 0.61433 -0.00700
H 	H 	0.08367 0.13353 0.61523 0.03800
C 	C 	0.07407 0.31213 0.53573 0.04500
C 	C 	0.07387 0.31483 0.63323 -0.01200
O 	O 	0.63483 0.38667 0.97937 -0.33200
N 	N 	0.66013 0.44927 0.96147 -0.06200
C 	C 	0.62103 0.47437 0.95797 0.06400
H 	H 	0.57733 0.44817 0.97037 0.02300
C 	C 	0.64543 0.53897 0.93597 -0.13000
H 	H 	0.61773 0.55527 0.92957 0.07800
C 	C 	0.71283 0.58047 0.92317 0.08000
C 	C 	0.74973 0.55097 0.93207 -0.12800
H 	H 	0.79423 0.57667 0.92727 0.07700
C 	C 	0.72413 0.48517 0.94767 0.06000
H 	H 	0.75033 0.46687 0.94857 0.01800
C 	C 	0.74073 0.64547 0.86907 0.01200
C 	C 	0.74053 0.64817 0.96657 -0.04800
O 	O 	0.58150 0.28000 0.18730 -0.33000
N 	N 	0.54420 0.21740 0.20520 -0.08400
C 	C 	0.48000 0.19230 0.20870 0.12100
H 	H 	0.46250 0.21850 0.19630 0.00200
C 	C 	0.43980 0.12770 0.23070 -0.23900
H 	H 	0.39580 0.11140 0.23710 0.11600
C 	C 	0.46570 0.08620 0.24350 0.26900
C 	C 	0.53210 0.11570 0.23460 -0.24200
H 	H 	0.55090 0.09000 0.23940 0.11400
C 	C 	0.57230 0.18150 0.21900 0.11900
H 	H 	0.61680 0.19980 0.21810 -0.00400
C 	C 	0.42860 0.02120 0.29760 -0.22000
C 	C 	0.42570 0.01850 0.20010 -0.27300
O 	O 	0.24817 0.61333 0.52063 -0.33300
N 	N 	0.21087 0.55073 0.53853 -0.06500
C 	C 	0.14667 0.52563 0.54203 0.07000
H 	H 	0.12917 0.55183 0.52963 0.01900
C 	C 	0.10647 0.46103 0.56403 -0.14400
H 	H 	0.06247 0.44473 0.57043 0.07700
C 	C 	0.13237 0.41953 0.57683 0.10500
C 	C 	0.19877 0.44903 0.56793 -0.14300
H 	H 	0.21757 0.42333 0.57273 0.08200
C 	C 	0.23897 0.51483 0.55233 0.06800
H 	H 	0.28347 0.53313 0.55143 0.01400
C 	C 	0.09527 0.35453 0.63093 -0.02500
C 	C 	0.09237 0.35183 0.53343 -0.08000
O 	O 	0.91483 0.94667 0.85397 -0.29300
N 	N 	0.87753 0.88407 0.87187 -0.06300
C 	C 	0.81333 0.85897 0.87537 0.06500
H 	H 	0.79583 0.88517 0.86297 0.02500
C 	C 	0.77313 0.79437 0.89737 -0.13100
H 	H 	0.72913 0.77807 0.90377 0.07800
C 	C 	0.79903 0.75287 0.91017 0.08000
C 	C 	0.86543 0.78237 0.90127 -0.12700
H 	H 	0.88423 0.75667 0.90607 0.07900
C 	C 	0.90563 0.84817 0.88567 0.06200
H 	H 	0.95013 0.86647 0.88477 0.02800
C 	C 	0.76193 0.68787 0.96427 0.01200
C 	C 	0.75903 0.68517 0.86677 -0.04700
O 	O 	0.69850 0.41850 0.18730 -0.33300
N 	N 	0.67320 0.45580 0.20520 -0.06200
C 	C 	0.71230 0.52000 0.20870 0.06300
H 	H 	0.75600 0.53750 0.19630 0.02300
C 	C 	0.68790 0.56020 0.23070 -0.13000
H 	H 	0.71560 0.60420 0.23710 0.07800
C 	C 	0.62050 0.53430 0.24350 0.07900
C 	C 	0.58360 0.46790 0.23460 -0.12800
H 	H 	0.53910 0.44910 0.23940 0.07600
C 	C 	0.60920 0.42770 0.21900 0.05900
H 	H 	0.58300 0.38320 0.21810 0.01700
C 	C 	0.59260 0.57140 0.29760 0.01000
C 	C 	0.59280 0.57430 0.20010 -0.04600
O 	O 	0.36517 0.75183 0.52063 -0.33300
N 	N 	0.33987 0.78913 0.53853 -0.05900
C 	C 	0.37897 0.85333 0.54203 0.05600
H 	H 	0.42267 0.87083 0.52963 0.02600
C 	C 	0.35457 0.89353 0.56403 -0.11600
H 	H 	0.38227 0.93753 0.57043 0.07800
C 	C 	0.28717 0.86763 0.57683 0.05300
C 	C 	0.25027 0.80123 0.56793 -0.11200
H 	H 	0.20577 0.78243 0.57273 0.06900
C 	C 	0.27587 0.76103 0.55233 0.05100
H 	H 	0.24967 0.71653 0.55143 0.02000
C 	C 	0.25927 0.90473 0.63093 0.04400
C 	C 	0.25947 0.90763 0.53343 -0.01100
O 	O 	0.03183 0.08517 0.85397 -0.32800
N 	N 	0.00653 0.12247 0.87187 -0.09600
C 	C 	0.04563 0.18667 0.87537 0.10000
H 	H 	0.08933 0.20417 0.86297 0.00900
C 	C 	0.02123 0.22687 0.89737 -0.21800
H 	H 	0.04893 0.27087 0.90377 0.10100
C 	C 	0.95383 0.20097 0.91017 0.16800
C 	C 	0.91693 0.13457 0.90127 -0.18800
H 	H 	0.87243 0.11577 0.90607 0.09500
C 	C 	0.94253 0.09437 0.88567 0.12900
H 	H 	0.91633 0.04987 0.88477 -0.00700
C 	C 	0.92593 0.23807 0.96427 -0.02600
C 	C 	0.92613 0.24097 0.86677 -0.08000
O 	O 	0.72000 0.30150 0.18730 -0.33400
N 	N 	0.78260 0.32680 0.20520 -0.04100
C 	C 	0.80770 0.28770 0.20870 0.00800
H 	H 	0.78150 0.24400 0.19630 0.04100
C 	C 	0.87230 0.31210 0.23070 -0.02600
H 	H 	0.88860 0.28440 0.23710 0.04000
C 	C 	0.91380 0.37950 0.24350 -0.10500
C 	C 	0.88430 0.41640 0.23460 -0.01700
H 	H 	0.91000 0.46090 0.23940 0.03900
C 	C 	0.81850 0.39080 0.21900 0.00200
H 	H 	0.80020 0.41700 0.21810 0.03800
C 	C 	0.97880 0.40740 0.29760 0.22800
C 	C 	0.98150 0.40720 0.20010 0.18000
O 	O 	0.38667 0.63483 0.52063 -0.33300
N 	N 	0.44927 0.66013 0.53853 -0.06200
C 	C 	0.47437 0.62103 0.54203 0.06400
H 	H 	0.44817 0.57733 0.52963 0.02200
C 	C 	0.53897 0.64543 0.56403 -0.13000
H 	H 	0.55527 0.61773 0.57043 0.07800
C 	C 	0.58047 0.71283 0.57683 0.08000
C 	C 	0.55097 0.74973 0.56793 -0.12800
H 	H 	0.57667 0.79423 0.57273 0.07700
C 	C 	0.48517 0.72413 0.55233 0.06000
H 	H 	0.46687 0.75033 0.55143 0.01800
C 	C 	0.64547 0.74073 0.63093 0.01200
C 	C 	0.64817 0.74053 0.53343 -0.04700
O 	O 	0.05333 0.96817 0.85397 -0.31400
N 	N 	0.11593 0.99347 0.87187 -0.03100
C 	C 	0.14103 0.95437 0.87537 0.03000
H 	H 	0.11483 0.91067 0.86297 0.03200
C 	C 	0.20563 0.97877 0.89737 -0.04700
H 	H 	0.22193 0.95107 0.90377 0.05500
C 	C 	0.24713 0.04617 0.91017 -0.00400
C 	C 	0.21763 0.08307 0.90127 -0.07100
H 	H 	0.24333 0.12757 0.90607 0.05600
C 	C 	0.15183 0.05747 0.88567 -0.00500
H 	H 	0.13353 0.08367 0.88477 0.03700
C 	C 	0.31213 0.07407 0.96427 0.04400
C 	C 	0.31483 0.07387 0.86677 -0.01400
Er	Er	0.66667 0.33333 0.08333 1.75300
Er	Er	-0.00000 0.00000 0.75000 1.60400
Er	Er	0.33333 0.66667 0.41667 1.75500
O 	O 	0.72000 0.41850 0.68730 -0.33500
N 	N 	0.78260 0.45580 0.70520 -0.04100
C 	C 	0.80770 0.52000 0.70870 0.00800
H 	H 	0.78150 0.53750 0.69630 0.04200
C 	C 	0.87230 0.56020 0.73070 -0.02600
H 	H 	0.88860 0.60420 0.73710 0.04000
C 	C 	0.91380 0.53430 0.74350 -0.10300
C 	C 	0.88430 0.46790 0.73460 -0.01800
H 	H 	0.91000 0.44910 0.73940 0.04000
C 	C 	0.81850 0.42770 0.71900 0.00300
H 	H 	0.80020 0.38320 0.71810 0.03800
C 	C 	0.97880 0.57140 0.79760 0.22900
C 	C 	0.98150 0.57430 0.70010 0.17500
O 	O 	0.38667 0.75183 0.02063 -0.33200
N 	N 	0.44927 0.78913 0.03853 -0.05900
C 	C 	0.47437 0.85333 0.04203 0.05800
H 	H 	0.44817 0.87083 0.02963 0.02600
C 	C 	0.53897 0.89353 0.06403 -0.11800
H 	H 	0.55527 0.93753 0.07043 0.07900
C 	C 	0.58047 0.86763 0.07683 0.05700
C 	C 	0.55097 0.80123 0.06793 -0.11400
H 	H 	0.57667 0.78243 0.07273 0.07100
C 	C 	0.48517 0.76103 0.05233 0.05200
H 	H 	0.46687 0.71653 0.05143 0.02000
C 	C 	0.64547 0.90473 0.13093 0.04100
C 	C 	0.64817 0.90763 0.03343 -0.01700
O 	O 	0.05333 0.08517 0.35397 -0.33200
N 	N 	0.11593 0.12247 0.37187 -0.06300
C 	C 	0.14103 0.18667 0.37537 0.06300
H 	H 	0.11483 0.20417 0.36297 0.01900
C 	C 	0.20563 0.22687 0.39737 -0.13100
H 	H 	0.22193 0.27087 0.40377 0.07800
C 	C 	0.24713 0.20097 0.41017 0.08000
C 	C 	0.21763 0.13457 0.40127 -0.12900
H 	H 	0.24333 0.11577 0.40607 0.07400
C 	C 	0.15183 0.09437 0.38567 0.06000
H 	H 	0.13353 0.04987 0.38477 0.01000
C 	C 	0.31213 0.23807 0.46427 0.00800
C 	C 	0.31483 0.24097 0.36677 -0.04600
O 	O 	0.58150 0.30150 0.68730 -0.33200
N 	N 	0.54420 0.32680 0.70520 -0.06200
C 	C 	0.48000 0.28770 0.70870 0.06400
H 	H 	0.46250 0.24400 0.69630 0.02200
C 	C 	0.43980 0.31210 0.73070 -0.13100
H 	H 	0.39580 0.28440 0.73710 0.07800
C 	C 	0.46570 0.37950 0.74350 0.07900
C 	C 	0.53210 0.41640 0.73460 -0.12800
H 	H 	0.55090 0.46090 0.73940 0.07600
C 	C 	0.57230 0.39080 0.71900 0.06000
H 	H 	0.61680 0.41700 0.71810 0.01700
C 	C 	0.42860 0.40740 0.79760 0.01000
C 	C 	0.42570 0.40720 0.70010 -0.04600
O 	O 	0.24817 0.63483 0.02063 -0.33300
N 	N 	0.21087 0.66013 0.03853 -0.06400
C 	C 	0.14667 0.62103 0.04203 0.06900
H 	H 	0.12917 0.57733 0.02963 0.01900
C 	C 	0.10647 0.64543 0.06403 -0.14200
H 	H 	0.06247 0.61773 0.07043 0.07600
C 	C 	0.13237 0.71283 0.07683 0.10100
C 	C 	0.19877 0.74973 0.06793 -0.14100
H 	H 	0.21757 0.79423 0.07273 0.08300
C 	C 	0.23897 0.72413 0.05233 0.06700
H 	H 	0.28347 0.75033 0.05143 0.01600
C 	C 	0.09527 0.74073 0.13093 -0.01700
C 	C 	0.09237 0.74053 0.03343 -0.07500
O 	O 	0.91483 0.96817 0.35397 -0.29600
N 	N 	0.87753 0.99347 0.37187 -0.03500
C 	C 	0.81333 0.95437 0.37537 0.03400
H 	H 	0.79583 0.91067 0.36297 0.03400
C 	C 	0.77313 0.97877 0.39737 -0.05600
H 	H 	0.72913 0.95107 0.40377 0.05800
C 	C 	0.79903 0.04617 0.41017 0.00400
C 	C 	0.86543 0.08307 0.40127 -0.07600
H 	H 	0.88423 0.12757 0.40607 0.06100
C 	C 	0.90563 0.05747 0.38567 0.00400
H 	H 	0.95013 0.08367 0.38477 0.04500
C 	C 	0.76193 0.07407 0.46427 0.04200
C 	C 	0.75903 0.07387 0.36677 -0.01800
O 	O 	0.69850 0.28000 0.68730 -0.33100
N 	N 	0.67320 0.21740 0.70520 -0.08200
C 	C 	0.71230 0.19230 0.70870 0.11700
H 	H 	0.75600 0.21850 0.69630 0.00400
C 	C 	0.68790 0.12770 0.73070 -0.23100
H 	H 	0.71560 0.11140 0.73710 0.11400
C 	C 	0.62050 0.08620 0.74350 0.25600
C 	C 	0.58360 0.11570 0.73460 -0.23400
H 	H 	0.53910 0.09000 0.73940 0.11200
C 	C 	0.60920 0.18150 0.71900 0.11500
H 	H 	0.58300 0.19980 0.71810 -0.00300
C 	C 	0.59260 0.02120 0.79760 -0.20700
C 	C 	0.59280 0.01850 0.70010 -0.25500
O 	O 	0.36517 0.61333 0.02063 -0.33200
N 	N 	0.33987 0.55073 0.03853 -0.06200
C 	C 	0.37897 0.52563 0.04203 0.06300
H 	H 	0.42267 0.55183 0.02963 0.02300
C 	C 	0.35457 0.46103 0.06403 -0.13000
H 	H 	0.38227 0.44473 0.07043 0.07800
C 	C 	0.28717 0.41953 0.07683 0.07900
C 	C 	0.25027 0.44903 0.06793 -0.12700
H 	H 	0.20577 0.42333 0.07273 0.07500
C 	C 	0.27587 0.51483 0.05233 0.05900
H 	H 	0.24967 0.53313 0.05143 0.01700
C 	C 	0.25927 0.35453 0.13093 0.00900
C 	C 	0.25947 0.35183 0.03343 -0.04400
O 	O 	0.03183 0.94667 0.35397 -0.30500
N 	N 	0.00653 0.88407 0.37187 -0.09100
C 	C 	0.04563 0.85897 0.37537 0.09500
H 	H 	0.08933 0.88517 0.36297 0.01400
C 	C 	0.02123 0.79437 0.39737 -0.20500
H 	H 	0.04893 0.77807 0.40377 0.09700
C 	C 	0.95383 0.75287 0.41017 0.15400
C 	C 	0.91693 0.78237 0.40127 -0.17800
H 	H 	0.87243 0.75667 0.40607 0.09400
C 	C 	0.94253 0.84817 0.38567 0.11800
H 	H 	0.91633 0.86647 0.38477 0.00400
C 	C 	0.92593 0.68787 0.46427 -0.02000
C 	C 	0.92613 0.68517 0.36677 -0.07500
O 	O 	0.41850 0.72000 0.81270 -0.33500
N 	N 	0.45580 0.78260 0.79480 -0.04100
C 	C 	0.52000 0.80770 0.79130 0.01000
H 	H 	0.53750 0.78150 0.80370 0.04100
C 	C 	0.56020 0.87230 0.76930 -0.03000
H 	H 	0.60420 0.88860 0.76290 0.04200
C 	C 	0.53430 0.91380 0.75650 -0.09800
C 	C 	0.46790 0.88430 0.76540 -0.02100
H 	H 	0.44910 0.91000 0.76060 0.04100
C 	C 	0.42770 0.81850 0.78100 0.00400
H 	H 	0.38320 0.80020 0.78190 0.03700
C 	C 	0.57140 0.97880 0.70240 0.22000
C 	C 	0.57430 0.98150 0.79990 0.17100
O 	O 	0.08517 0.05333 0.14603 -0.33200
N 	N 	0.12247 0.11593 0.12813 -0.06300
C 	C 	0.18667 0.14103 0.12463 0.06400
H 	H 	0.20417 0.11483 0.13703 0.01900
C 	C 	0.22687 0.20563 0.10263 -0.13100
H 	H 	0.27087 0.22193 0.09623 0.07800
C 	C 	0.20097 0.24713 0.08983 0.08000
C 	C 	0.13457 0.21763 0.09873 -0.12900
H 	H 	0.11577 0.24333 0.09393 0.07400
C 	C 	0.09437 0.15183 0.11433 0.06000
H 	H 	0.04987 0.13353 0.11523 0.01000
C 	C 	0.23807 0.31213 0.03573 0.00800
C 	C 	0.24097 0.31483 0.13323 -0.04600
O 	O 	0.75183 0.38667 0.47937 -0.33200
N 	N 	0.78913 0.44927 0.46147 -0.05900
C 	C 	0.85333 0.47437 0.45797 0.05800
H 	H 	0.87083 0.44817 0.47037 0.02600
C 	C 	0.89353 0.53897 0.43597 -0.11900
H 	H 	0.93753 0.55527 0.42957 0.07900
C 	C 	0.86763 0.58047 0.42317 0.05700
C 	C 	0.80123 0.55097 0.43207 -0.11400
H 	H 	0.78243 0.57667 0.42727 0.07100
C 	C 	0.76103 0.48517 0.44767 0.05300
H 	H 	0.71653 0.46687 0.44857 0.02000
C 	C 	0.90473 0.64547 0.36907 0.04000
C 	C 	0.90763 0.64817 0.46657 -0.01700
O 	O 	0.30150 0.58150 0.81270 -0.33200
N 	N 	0.32680 0.54420 0.79480 -0.06200
C 	C 	0.28770 0.48000 0.79130 0.06400
H 	H 	0.24400 0.46250 0.80370 0.02200
C 	C 	0.31210 0.43980 0.76930 -0.13100
H 	H 	0.28440 0.39580 0.76290 0.07800
C 	C 	0.37950 0.46570 0.75650 0.07900
C 	C 	0.41640 0.53210 0.76540 -0.12800
H 	H 	0.46090 0.55090 0.76060 0.07600
C 	C 	0.39080 0.57230 0.78100 0.06000
H 	H 	0.41700 0.61680 0.78190 0.01700
C 	C 	0.40740 0.42860 0.70240 0.01000
C 	C 	0.40720 0.42570 0.79990 -0.04600
O 	O 	0.96817 0.91483 0.14603 -0.29600
N 	N 	0.99347 0.87753 0.12813 -0.03700
C 	C 	0.95437 0.81333 0.12463 0.03500
H 	H 	0.91067 0.79583 0.13703 0.03400
C 	C 	0.97877 0.77313 0.10263 -0.05900
H 	H 	0.95107 0.72913 0.09623 0.05900
C 	C 	0.04617 0.79903 0.08983 0.00800
C 	C 	0.08307 0.86543 0.09873 -0.07800
H 	H 	0.12757 0.88423 0.09393 0.06200
C 	C 	0.05747 0.90563 0.11433 0.00700
H 	H 	0.08367 0.95013 0.11523 0.04500
C 	C 	0.07407 0.76193 0.03573 0.04100
C 	C 	0.07387 0.75903 0.13323 -0.02000
O 	O 	0.63483 0.24817 0.47937 -0.33300
N 	N 	0.66013 0.21087 0.46147 -0.06400
C 	C 	0.62103 0.14667 0.45797 0.06900
H 	H 	0.57733 0.12917 0.47037 0.01900
C 	C 	0.64543 0.10647 0.43597 -0.14200
H 	H 	0.61773 0.06247 0.42957 0.07600
C 	C 	0.71283 0.13237 0.42317 0.10200
C 	C 	0.74973 0.19877 0.43207 -0.14100
H 	H 	0.79423 0.21757 0.42727 0.08300
C 	C 	0.72413 0.23897 0.44767 0.06700
H 	H 	0.75033 0.28347 0.44857 0.01500
C 	C 	0.74073 0.09527 0.36907 -0.01800
C 	C 	0.74053 0.09237 0.46657 -0.07700
O 	O 	0.28000 0.69850 0.81270 -0.33100
N 	N 	0.21740 0.67320 0.79480 -0.08300
C 	C 	0.19230 0.71230 0.79130 0.11800
H 	H 	0.21850 0.75600 0.80370 0.00400
C 	C 	0.12770 0.68790 0.76930 -0.23400
H 	H 	0.11140 0.71560 0.76290 0.11500
C 	C 	0.08620 0.62050 0.75650 0.26200
C 	C 	0.11570 0.58360 0.76540 -0.23700
H 	H 	0.09000 0.53910 0.76060 0.11300
C 	C 	0.18150 0.60920 0.78100 0.11600
H 	H 	0.19980 0.58300 0.78190 -0.00300
C 	C 	0.02120 0.59260 0.70240 -0.21100
C 	C 	0.01850 0.59280 0.79990 -0.26500
O 	O 	0.94667 0.03183 0.14603 -0.30600
N 	N 	0.88407 0.00653 0.12813 -0.09100
C 	C 	0.85897 0.04563 0.12463 0.09600
H 	H 	0.88517 0.08933 0.13703 0.01400
C 	C 	0.79437 0.02123 0.10263 -0.20700
H 	H 	0.77807 0.04893 0.09623 0.09800
C 	C 	0.75287 0.95383 0.08983 0.15600
C 	C 	0.78237 0.91693 0.09873 -0.17900
H 	H 	0.75667 0.87243 0.09393 0.09400
C 	C 	0.84817 0.94253 0.11433 0.11900
H 	H 	0.86647 0.91633 0.11523 0.00400
C 	C 	0.68787 0.92593 0.03573 -0.02000
C 	C 	0.68517 0.92613 0.13323 -0.07600
O 	O 	0.61333 0.36517 0.47937 -0.33300
N 	N 	0.55073 0.33987 0.46147 -0.06200
C 	C 	0.52563 0.37897 0.45797 0.06300
H 	H 	0.55183 0.42267 0.47037 0.02300
C 	C 	0.46103 0.35457 0.43597 -0.13000
H 	H 	0.44473 0.38227 0.42957 0.07800
C 	C 	0.41953 0.28717 0.42317 0.07900
C 	C 	0.44903 0.25027 0.43207 -0.12700
H 	H 	0.42333 0.20577 0.42727 0.07500
C 	C 	0.51483 0.27587 0.44767 0.05900
H 	H 	0.53313 0.24967 0.44857 0.01700
C 	C 	0.35453 0.25927 0.36907 0.01000
C 	C 	0.35183 0.25947 0.46657 -0.04500
Er	Er	0.33333 0.66667 0.91667 1.75300
Er	Er	-0.00000 -0.00000 0.25000 1.60400
Er	Er	0.66667 0.33333 0.58333 1.75500
