data_crystal

_cell_length_a 23.99370
_cell_length_b 23.99370
_cell_length_c 12.81010
_cell_angle_alpha 90.00000
_cell_angle_beta  90.00000
_cell_angle_gamma 120.00000

_symmetry_space_group_name_	'P 1'
_symmetry_space_group_name_H-M	'P 1'

loop_
_symmetry_equiv_pos_as_xyz
  x,y,z

loop_
_atom_site_label
_atom_site_type_symbol
_atom_site_fract_x
_atom_site_fract_y
_atom_site_fract_z
_atom_site_charge
O 	O 	0.28080 0.58220 0.31330 -0.29700
N 	N 	0.21820 0.54490 0.29440 -0.08500
C 	C 	0.19280 0.48080 0.29110 0.11000
H 	H 	0.21910 0.46310 0.30290 0.00700
C 	C 	0.12800 0.44050 0.27020 -0.22200
H 	H 	0.11160 0.39630 0.26520 0.11100
C 	C 	0.08650 0.46570 0.25660 0.24200
C 	C 	0.11650 0.53260 0.26610 -0.21400
H 	H 	0.09080 0.55140 0.26190 0.10600
C 	C 	0.18240 0.57300 0.28150 0.09600
H 	H 	0.20080 0.61750 0.28270 0.00700
C 	C 	0.02150 0.42890 0.20270 -0.19000
C 	C 	0.01860 0.42560 0.29980 -0.24500
O 	O 	0.94747 0.91553 0.64663 -0.27500
N 	N 	0.88487 0.87823 0.62773 -0.06500
C 	C 	0.85947 0.81413 0.62443 0.06000
H 	H 	0.88577 0.79643 0.63623 0.02900
C 	C 	0.79467 0.77383 0.60353 -0.12400
H 	H 	0.77827 0.72963 0.59853 0.07600
C 	C 	0.75317 0.79903 0.58993 0.07500
C 	C 	0.78317 0.86593 0.59943 -0.11400
H 	H 	0.75747 0.88473 0.59523 0.07500
C 	C 	0.84907 0.90633 0.61483 0.04500
H 	H 	0.86747 0.95083 0.61603 0.03500
C 	C 	0.68817 0.76223 0.53603 0.01700
C 	C 	0.68527 0.75893 0.63313 -0.05100
O 	O 	0.61413 0.24887 0.97997 -0.29800
N 	N 	0.55153 0.21157 0.96107 -0.06700
C 	C 	0.52613 0.14747 0.95777 0.06600
H 	H 	0.55243 0.12977 0.96957 0.02300
C 	C 	0.46133 0.10717 0.93687 -0.13700
H 	H 	0.44493 0.06297 0.93187 0.07500
C 	C 	0.41983 0.13237 0.92327 0.09800
C 	C 	0.44983 0.19927 0.93277 -0.12800
H 	H 	0.42413 0.21807 0.92857 0.07900
C 	C 	0.51573 0.23967 0.94817 0.05100
H 	H 	0.53413 0.28417 0.94937 0.02400
C 	C 	0.35483 0.09557 0.86937 -0.01800
C 	C 	0.35193 0.09227 0.96647 -0.07800
O 	O 	0.41780 0.69860 0.31330 -0.29800
N 	N 	0.45510 0.67330 0.29440 -0.06400
C 	C 	0.51920 0.71200 0.29110 0.05900
H 	H 	0.53690 0.75600 0.30290 0.02700
C 	C 	0.55950 0.68750 0.27020 -0.12300
H 	H 	0.60370 0.71530 0.26520 0.07600
C 	C 	0.53430 0.62080 0.25660 0.07400
C 	C 	0.46740 0.58390 0.26610 -0.11400
H 	H 	0.44860 0.53940 0.26190 0.07300
C 	C 	0.42700 0.60940 0.28150 0.04300
H 	H 	0.38250 0.58330 0.28270 0.02600
C 	C 	0.57110 0.59260 0.20270 0.01500
C 	C 	0.57440 0.59300 0.29980 -0.05000
O 	O 	0.08447 0.03193 0.64663 -0.30900
N 	N 	0.12177 0.00663 0.62773 -0.09600
C 	C 	0.18587 0.04533 0.62443 0.09400
H 	H 	0.20357 0.08933 0.63623 0.01300
C 	C 	0.22617 0.02083 0.60353 -0.20800
H 	H 	0.27037 0.04863 0.59853 0.09900
C 	C 	0.20097 0.95413 0.58993 0.15900
C 	C 	0.13407 0.91723 0.59943 -0.17100
H 	H 	0.11527 0.87273 0.59523 0.09000
C 	C 	0.09367 0.94273 0.61483 0.10800
H 	H 	0.04917 0.91663 0.61603 0.00000
C 	C 	0.23777 0.92593 0.53603 -0.01700
C 	C 	0.24107 0.92633 0.63313 -0.08300
O 	O 	0.75113 0.36527 0.97997 -0.29800
N 	N 	0.78843 0.33997 0.96107 -0.06100
C 	C 	0.85253 0.37867 0.95777 0.05200
H 	H 	0.87023 0.42267 0.96957 0.03000
C 	C 	0.89283 0.35417 0.93687 -0.11000
H 	H 	0.93703 0.38197 0.93187 0.07600
C 	C 	0.86763 0.28747 0.92327 0.04900
C 	C 	0.80073 0.25057 0.93277 -0.09900
H 	H 	0.78193 0.20607 0.92857 0.06600
C 	C 	0.76033 0.27607 0.94817 0.03500
H 	H 	0.71583 0.24997 0.94937 0.02900
C 	C 	0.90443 0.25927 0.86937 0.04900
C 	C 	0.90773 0.25967 0.96647 -0.01800
O 	O 	0.30140 0.71920 0.31330 -0.30000
N 	N 	0.32670 0.78180 0.29440 -0.04400
C 	C 	0.28800 0.80720 0.29110 0.00600
H 	H 	0.24400 0.78090 0.30290 0.04400
C 	C 	0.31250 0.87200 0.27020 -0.02300
H 	H 	0.28470 0.88840 0.26520 0.04100
C 	C 	0.37920 0.91350 0.25660 -0.09800
C 	C 	0.41610 0.88350 0.26610 -0.01100
H 	H 	0.46060 0.90920 0.26190 0.03900
C 	C 	0.39060 0.81760 0.28150 -0.01100
H 	H 	0.41670 0.79920 0.28270 0.04600
C 	C 	0.40740 0.97850 0.20270 0.22000
C 	C 	0.40700 0.98140 0.29980 0.15700
O 	O 	0.96807 0.05253 0.64663 -0.29500
N 	N 	0.99337 0.11513 0.62773 -0.03200
C 	C 	0.95467 0.14053 0.62443 0.02400
H 	H 	0.91067 0.11423 0.63623 0.03600
C 	C 	0.97917 0.20533 0.60353 -0.03900
H 	H 	0.95137 0.22173 0.59853 0.05300
C 	C 	0.04587 0.24683 0.58993 -0.01000
C 	C 	0.08277 0.21683 0.59943 -0.05800
H 	H 	0.12727 0.24253 0.59523 0.05300
C 	C 	0.05727 0.15093 0.61483 -0.02200
H 	H 	0.08337 0.13253 0.61603 0.04500
C 	C 	0.07407 0.31183 0.53603 0.04600
C 	C 	0.07367 0.31473 0.63313 -0.01500
O 	O 	0.63473 0.38587 0.97997 -0.29800
N 	N 	0.66003 0.44847 0.96107 -0.06400
C 	C 	0.62133 0.47387 0.95777 0.05900
H 	H 	0.57733 0.44757 0.96957 0.02600
C 	C 	0.64583 0.53867 0.93687 -0.12400
H 	H 	0.61803 0.55507 0.93187 0.07600
C 	C 	0.71253 0.58017 0.92327 0.07400
C 	C 	0.74943 0.55017 0.93277 -0.11400
H 	H 	0.79393 0.57587 0.92857 0.07400
C 	C 	0.72393 0.48427 0.94817 0.04300
H 	H 	0.75003 0.46587 0.94937 0.02700
C 	C 	0.74073 0.64517 0.86937 0.01700
C 	C 	0.74033 0.64807 0.96647 -0.05100
O 	O 	0.58220 0.28080 0.18670 -0.29600
N 	N 	0.54490 0.21820 0.20560 -0.08400
C 	C 	0.48080 0.19280 0.20890 0.11200
H 	H 	0.46310 0.21910 0.19710 0.00700
C 	C 	0.44050 0.12800 0.22980 -0.22400
H 	H 	0.39630 0.11160 0.23480 0.11200
C 	C 	0.46570 0.08650 0.24340 0.24700
C 	C 	0.53260 0.11650 0.23390 -0.21700
H 	H 	0.55140 0.09080 0.23810 0.10700
C 	C 	0.57300 0.18240 0.21850 0.09700
H 	H 	0.61750 0.20080 0.21730 0.00700
C 	C 	0.42890 0.02150 0.29730 -0.19200
C 	C 	0.42560 0.01860 0.20020 -0.25400
O 	O 	0.24887 0.61413 0.52003 -0.29800
N 	N 	0.21157 0.55153 0.53893 -0.06700
C 	C 	0.14747 0.52613 0.54223 0.06600
H 	H 	0.12977 0.55243 0.53043 0.02200
C 	C 	0.10717 0.46133 0.56313 -0.13700
H 	H 	0.06297 0.44493 0.56813 0.07500
C 	C 	0.13237 0.41983 0.57673 0.09900
C 	C 	0.19927 0.44983 0.56723 -0.12900
H 	H 	0.21807 0.42413 0.57143 0.07900
C 	C 	0.23967 0.51573 0.55183 0.05100
H 	H 	0.28417 0.53413 0.55063 0.02300
C 	C 	0.09557 0.35483 0.63063 -0.02000
C 	C 	0.09227 0.35193 0.53353 -0.07900
O 	O 	0.91553 0.94747 0.85337 -0.27500
N 	N 	0.87823 0.88487 0.87227 -0.06500
C 	C 	0.81413 0.85947 0.87557 0.06000
H 	H 	0.79643 0.88577 0.86377 0.02900
C 	C 	0.77383 0.79467 0.89647 -0.12400
H 	H 	0.72963 0.77827 0.90147 0.07600
C 	C 	0.79903 0.75317 0.91007 0.07500
C 	C 	0.86593 0.78317 0.90057 -0.11400
H 	H 	0.88473 0.75747 0.90477 0.07500
C 	C 	0.90633 0.84907 0.88517 0.04500
H 	H 	0.95083 0.86747 0.88397 0.03500
C 	C 	0.76223 0.68817 0.96397 0.01700
C 	C 	0.75893 0.68527 0.86687 -0.05100
O 	O 	0.69860 0.41780 0.18670 -0.29900
N 	N 	0.67330 0.45510 0.20560 -0.06400
C 	C 	0.71200 0.51920 0.20890 0.05900
H 	H 	0.75600 0.53690 0.19710 0.02700
C 	C 	0.68750 0.55950 0.22980 -0.12300
H 	H 	0.71530 0.60370 0.23480 0.07600
C 	C 	0.62080 0.53430 0.24340 0.07400
C 	C 	0.58390 0.46740 0.23390 -0.11400
H 	H 	0.53940 0.44860 0.23810 0.07300
C 	C 	0.60940 0.42700 0.21850 0.04300
H 	H 	0.58330 0.38250 0.21730 0.02600
C 	C 	0.59260 0.57110 0.29730 0.01500
C 	C 	0.59300 0.57440 0.20020 -0.05000
O 	O 	0.36527 0.75113 0.52003 -0.29800
N 	N 	0.33997 0.78843 0.53893 -0.06100
C 	C 	0.37867 0.85253 0.54223 0.05200
H 	H 	0.42267 0.87023 0.53043 0.03000
C 	C 	0.35417 0.89283 0.56313 -0.11000
H 	H 	0.38197 0.93703 0.56813 0.07600
C 	C 	0.28747 0.86763 0.57673 0.04900
C 	C 	0.25057 0.80073 0.56723 -0.09900
H 	H 	0.20607 0.78193 0.57143 0.06600
C 	C 	0.27607 0.76033 0.55183 0.03500
H 	H 	0.24997 0.71583 0.55063 0.02800
C 	C 	0.25927 0.90443 0.63063 0.04900
C 	C 	0.25967 0.90773 0.53353 -0.01900
O 	O 	0.03193 0.08447 0.85337 -0.30900
N 	N 	0.00663 0.12177 0.87227 -0.09600
C 	C 	0.04533 0.18587 0.87557 0.09400
H 	H 	0.08933 0.20357 0.86377 0.01300
C 	C 	0.02083 0.22617 0.89647 -0.20900
H 	H 	0.04863 0.27037 0.90147 0.09900
C 	C 	0.95413 0.20097 0.91007 0.16000
C 	C 	0.91723 0.13407 0.90057 -0.17200
H 	H 	0.87273 0.11527 0.90477 0.09100
C 	C 	0.94273 0.09367 0.88517 0.10900
H 	H 	0.91663 0.04917 0.88397 0.00100
C 	C 	0.92593 0.23777 0.96397 -0.01700
C 	C 	0.92633 0.24107 0.86687 -0.08300
O 	O 	0.71920 0.30140 0.18670 -0.30000
N 	N 	0.78180 0.32670 0.20560 -0.04400
C 	C 	0.80720 0.28800 0.20890 0.00700
H 	H 	0.78090 0.24400 0.19710 0.04400
C 	C 	0.87200 0.31250 0.22980 -0.02600
H 	H 	0.88840 0.28470 0.23480 0.04100
C 	C 	0.91350 0.37920 0.24340 -0.09400
C 	C 	0.88350 0.41610 0.23390 -0.01400
H 	H 	0.90920 0.46060 0.23810 0.03900
C 	C 	0.81760 0.39060 0.21850 -0.01000
H 	H 	0.79920 0.41670 0.21730 0.04500
C 	C 	0.97850 0.40740 0.29730 0.21200
C 	C 	0.98140 0.40700 0.20020 0.15500
O 	O 	0.38587 0.63473 0.52003 -0.29800
N 	N 	0.44847 0.66003 0.53893 -0.06400
C 	C 	0.47387 0.62133 0.54223 0.05900
H 	H 	0.44757 0.57733 0.53043 0.02600
C 	C 	0.53867 0.64583 0.56313 -0.12400
H 	H 	0.55507 0.61803 0.56813 0.07600
C 	C 	0.58017 0.71253 0.57673 0.07500
C 	C 	0.55017 0.74943 0.56723 -0.11400
H 	H 	0.57587 0.79393 0.57143 0.07400
C 	C 	0.48427 0.72393 0.55183 0.04300
H 	H 	0.46587 0.75003 0.55063 0.02700
C 	C 	0.64517 0.74073 0.63063 0.01700
C 	C 	0.64807 0.74033 0.53353 -0.05100
O 	O 	0.05253 0.96807 0.85337 -0.29600
N 	N 	0.11513 0.99337 0.87227 -0.03300
C 	C 	0.14053 0.95467 0.87557 0.02500
H 	H 	0.11423 0.91067 0.86377 0.03600
C 	C 	0.20533 0.97917 0.89647 -0.04100
H 	H 	0.22173 0.95137 0.90147 0.05400
C 	C 	0.24683 0.04587 0.91007 -0.00700
C 	C 	0.21683 0.08277 0.90057 -0.06000
H 	H 	0.24253 0.12727 0.90477 0.05400
C 	C 	0.15093 0.05727 0.88517 -0.02000
H 	H 	0.13253 0.08337 0.88397 0.04400
C 	C 	0.31183 0.07407 0.96397 0.04500
C 	C 	0.31473 0.07367 0.86687 -0.01700
Yb	Yb	0.66667 0.33333 0.08333 1.53800
Yb	Yb	-0.00000 0.00000 0.75000 1.50300
Yb	Yb	0.33333 0.66667 0.41667 1.53900
O 	O 	0.71920 0.41780 0.68670 -0.30000
N 	N 	0.78180 0.45510 0.70560 -0.04500
C 	C 	0.80720 0.51920 0.70890 0.00800
H 	H 	0.78090 0.53690 0.69710 0.04400
C 	C 	0.87200 0.55950 0.72980 -0.02700
H 	H 	0.88840 0.60370 0.73480 0.04200
C 	C 	0.91350 0.53430 0.74340 -0.09100
C 	C 	0.88350 0.46740 0.73390 -0.01500
H 	H 	0.90920 0.44860 0.73810 0.04000
C 	C 	0.81760 0.42700 0.71850 -0.00900
H 	H 	0.79920 0.38250 0.71730 0.04500
C 	C 	0.97850 0.57110 0.79730 0.21200
C 	C 	0.98140 0.57440 0.70020 0.14900
O 	O 	0.38587 0.75113 0.02003 -0.29800
N 	N 	0.44847 0.78843 0.03893 -0.06100
C 	C 	0.47387 0.85253 0.04223 0.05300
H 	H 	0.44757 0.87023 0.03043 0.03000
C 	C 	0.53867 0.89283 0.06313 -0.11200
H 	H 	0.55507 0.93703 0.06813 0.07700
C 	C 	0.58017 0.86763 0.07673 0.05300
C 	C 	0.55017 0.80073 0.06723 -0.10100
H 	H 	0.57587 0.78193 0.07143 0.06800
C 	C 	0.48427 0.76033 0.05183 0.03600
H 	H 	0.46587 0.71583 0.05063 0.02900
C 	C 	0.64517 0.90443 0.13063 0.04600
C 	C 	0.64807 0.90773 0.03353 -0.02400
O 	O 	0.05253 0.08447 0.35337 -0.31300
N 	N 	0.11513 0.12177 0.37227 -0.06400
C 	C 	0.14053 0.18587 0.37557 0.05800
H 	H 	0.11423 0.20357 0.36377 0.02300
C 	C 	0.20533 0.22617 0.39647 -0.12400
H 	H 	0.22173 0.27037 0.40147 0.07600
C 	C 	0.24683 0.20097 0.41007 0.07500
C 	C 	0.21683 0.13407 0.40057 -0.11500
H 	H 	0.24253 0.11527 0.40477 0.07000
C 	C 	0.15093 0.09367 0.38517 0.04300
H 	H 	0.13253 0.04917 0.38397 0.01700
C 	C 	0.31183 0.23777 0.46397 0.01300
C 	C 	0.31473 0.24107 0.36687 -0.04900
O 	O 	0.58220 0.30140 0.68670 -0.29800
N 	N 	0.54490 0.32670 0.70560 -0.06400
C 	C 	0.48080 0.28800 0.70890 0.05900
H 	H 	0.46310 0.24400 0.69710 0.02600
C 	C 	0.44050 0.31250 0.72980 -0.12400
H 	H 	0.39630 0.28470 0.73480 0.07600
C 	C 	0.46570 0.37920 0.74340 0.07400
C 	C 	0.53260 0.41610 0.73390 -0.11400
H 	H 	0.55140 0.46060 0.73810 0.07300
C 	C 	0.57300 0.39060 0.71850 0.04300
H 	H 	0.61750 0.41670 0.71730 0.02600
C 	C 	0.42890 0.40740 0.79730 0.01500
C 	C 	0.42560 0.40700 0.70020 -0.04900
O 	O 	0.24887 0.63473 0.02003 -0.29800
N 	N 	0.21157 0.66003 0.03893 -0.06700
C 	C 	0.14747 0.62133 0.04223 0.06500
H 	H 	0.12977 0.57733 0.03043 0.02300
C 	C 	0.10717 0.64583 0.06313 -0.13500
H 	H 	0.06297 0.61803 0.06813 0.07500
C 	C 	0.13237 0.71253 0.07673 0.09500
C 	C 	0.19927 0.74943 0.06723 -0.12600
H 	H 	0.21807 0.79393 0.07143 0.07900
C 	C 	0.23967 0.72393 0.05183 0.05000
H 	H 	0.28417 0.75003 0.05063 0.02400
C 	C 	0.09557 0.74073 0.13063 -0.01200
C 	C 	0.09227 0.74033 0.03353 -0.07500
O 	O 	0.91553 0.96807 0.35337 -0.27900
N 	N 	0.87823 0.99337 0.37227 -0.03700
C 	C 	0.81413 0.95467 0.37557 0.02900
H 	H 	0.79643 0.91067 0.36377 0.03800
C 	C 	0.77383 0.97917 0.39647 -0.05000
H 	H 	0.72963 0.95137 0.40147 0.05700
C 	C 	0.79903 0.04587 0.41007 0.00100
C 	C 	0.86593 0.08277 0.40057 -0.06500
H 	H 	0.88473 0.12727 0.40477 0.05900
C 	C 	0.90633 0.05727 0.38517 -0.01100
H 	H 	0.95083 0.08337 0.38397 0.05200
C 	C 	0.76223 0.07407 0.46397 0.04300
C 	C 	0.75893 0.07367 0.36687 -0.02100
O 	O 	0.69860 0.28080 0.68670 -0.29600
N 	N 	0.67330 0.21820 0.70560 -0.08300
C 	C 	0.71200 0.19280 0.70890 0.10900
H 	H 	0.75600 0.21910 0.69710 0.00900
C 	C 	0.68750 0.12800 0.72980 -0.21800
H 	H 	0.71530 0.11160 0.73480 0.10900
C 	C 	0.62080 0.08650 0.74340 0.23500
C 	C 	0.58390 0.11650 0.73390 -0.21000
H 	H 	0.53940 0.09080 0.73810 0.10500
C 	C 	0.60940 0.18240 0.71850 0.09400
H 	H 	0.58330 0.20080 0.71730 0.00800
C 	C 	0.59260 0.02150 0.79730 -0.18200
C 	C 	0.59300 0.01860 0.70020 -0.23800
O 	O 	0.36527 0.61413 0.02003 -0.29800
N 	N 	0.33997 0.55153 0.03893 -0.06400
C 	C 	0.37867 0.52613 0.04223 0.05900
H 	H 	0.42267 0.55243 0.03043 0.02600
C 	C 	0.35417 0.46133 0.06313 -0.12300
H 	H 	0.38197 0.44493 0.06813 0.07600
C 	C 	0.28747 0.41983 0.07673 0.07400
C 	C 	0.25057 0.44983 0.06723 -0.11300
H 	H 	0.20607 0.42413 0.07143 0.07200
C 	C 	0.27607 0.51573 0.05183 0.04300
H 	H 	0.24997 0.53413 0.05063 0.02600
C 	C 	0.25927 0.35483 0.13063 0.01400
C 	C 	0.25967 0.35193 0.03353 -0.04800
O 	O 	0.03193 0.94747 0.35337 -0.28700
N 	N 	0.00663 0.88487 0.37227 -0.09200
C 	C 	0.04533 0.85947 0.37557 0.09000
H 	H 	0.08933 0.88577 0.36377 0.01800
C 	C 	0.02083 0.79467 0.39647 -0.19700
H 	H 	0.04863 0.77827 0.40147 0.09500
C 	C 	0.95413 0.75317 0.41007 0.14700
C 	C 	0.91723 0.78317 0.40057 -0.16300
H 	H 	0.87273 0.75747 0.40477 0.09000
C 	C 	0.94273 0.84907 0.38517 0.09900
H 	H 	0.91663 0.86747 0.38397 0.01100
C 	C 	0.92593 0.68817 0.46397 -0.01100
C 	C 	0.92633 0.68527 0.36687 -0.07900
O 	O 	0.41780 0.71920 0.81330 -0.30000
N 	N 	0.45510 0.78180 0.79440 -0.04500
C 	C 	0.51920 0.80720 0.79110 0.00900
H 	H 	0.53690 0.78090 0.80290 0.04400
C 	C 	0.55950 0.87200 0.77020 -0.03000
H 	H 	0.60370 0.88840 0.76520 0.04200
C 	C 	0.53430 0.91350 0.75660 -0.08700
C 	C 	0.46740 0.88350 0.76610 -0.01800
H 	H 	0.44860 0.90920 0.76190 0.04100
C 	C 	0.42700 0.81760 0.78150 -0.00700
H 	H 	0.38250 0.79920 0.78270 0.04500
C 	C 	0.57110 0.97850 0.70270 0.20400
C 	C 	0.57440 0.98140 0.79980 0.14700
O 	O 	0.08447 0.05253 0.14663 -0.31300
N 	N 	0.12177 0.11513 0.12773 -0.06400
C 	C 	0.18587 0.14053 0.12443 0.05900
H 	H 	0.20357 0.11423 0.13623 0.02300
C 	C 	0.22617 0.20533 0.10353 -0.12400
H 	H 	0.27037 0.22173 0.09853 0.07600
C 	C 	0.20097 0.24683 0.08993 0.07500
C 	C 	0.13407 0.21683 0.09943 -0.11500
H 	H 	0.11527 0.24253 0.09523 0.07000
C 	C 	0.09367 0.15093 0.11483 0.04300
H 	H 	0.04917 0.13253 0.11603 0.01700
C 	C 	0.23777 0.31183 0.03603 0.01300
C 	C 	0.24107 0.31473 0.13313 -0.04900
O 	O 	0.75113 0.38587 0.47997 -0.29800
N 	N 	0.78843 0.44847 0.46107 -0.06200
C 	C 	0.85253 0.47387 0.45777 0.05300
H 	H 	0.87023 0.44757 0.46957 0.03000
C 	C 	0.89283 0.53867 0.43687 -0.11200
H 	H 	0.93703 0.55507 0.43187 0.07700
C 	C 	0.86763 0.58017 0.42327 0.05300
C 	C 	0.80073 0.55017 0.43277 -0.10100
H 	H 	0.78193 0.57587 0.42857 0.06800
C 	C 	0.76033 0.48427 0.44817 0.03600
H 	H 	0.71583 0.46587 0.44937 0.02900
C 	C 	0.90443 0.64517 0.36937 0.04500
C 	C 	0.90773 0.64807 0.46647 -0.02400
O 	O 	0.30140 0.58220 0.81330 -0.29800
N 	N 	0.32670 0.54490 0.79440 -0.06400
C 	C 	0.28800 0.48080 0.79110 0.05900
H 	H 	0.24400 0.46310 0.80290 0.02600
C 	C 	0.31250 0.44050 0.77020 -0.12400
H 	H 	0.28470 0.39630 0.76520 0.07600
C 	C 	0.37920 0.46570 0.75660 0.07400
C 	C 	0.41610 0.53260 0.76610 -0.11400
H 	H 	0.46060 0.55140 0.76190 0.07300
C 	C 	0.39060 0.57300 0.78150 0.04300
H 	H 	0.41670 0.61750 0.78270 0.02600
C 	C 	0.40740 0.42890 0.70270 0.01500
C 	C 	0.40700 0.42560 0.79980 -0.04900
O 	O 	0.96807 0.91553 0.14663 -0.27900
N 	N 	0.99337 0.87823 0.12773 -0.03800
C 	C 	0.95467 0.81413 0.12443 0.03000
H 	H 	0.91067 0.79643 0.13623 0.03700
C 	C 	0.97917 0.77383 0.10353 -0.05300
H 	H 	0.95137 0.72963 0.09853 0.05700
C 	C 	0.04587 0.79903 0.08993 0.00400
C 	C 	0.08277 0.86593 0.09943 -0.06600
H 	H 	0.12727 0.88473 0.09523 0.05900
C 	C 	0.05727 0.90633 0.11483 -0.00900
H 	H 	0.08337 0.95083 0.11603 0.05100
C 	C 	0.07407 0.76223 0.03603 0.04300
C 	C 	0.07367 0.75893 0.13313 -0.02300
O 	O 	0.63473 0.24887 0.47997 -0.29800
N 	N 	0.66003 0.21157 0.46107 -0.06700
C 	C 	0.62133 0.14747 0.45777 0.06500
H 	H 	0.57733 0.12977 0.46957 0.02300
C 	C 	0.64583 0.10717 0.43687 -0.13500
H 	H 	0.61803 0.06297 0.43187 0.07500
C 	C 	0.71253 0.13237 0.42327 0.09600
C 	C 	0.74943 0.19927 0.43277 -0.12700
H 	H 	0.79393 0.21807 0.42857 0.07900
C 	C 	0.72393 0.23967 0.44817 0.05000
H 	H 	0.75003 0.28417 0.44937 0.02400
C 	C 	0.74073 0.09557 0.36937 -0.01400
C 	C 	0.74033 0.09227 0.46647 -0.07600
O 	O 	0.28080 0.69860 0.81330 -0.29700
N 	N 	0.21820 0.67330 0.79440 -0.08300
C 	C 	0.19280 0.71200 0.79110 0.11000
H 	H 	0.21910 0.75600 0.80290 0.00900
C 	C 	0.12800 0.68750 0.77020 -0.22000
H 	H 	0.11160 0.71530 0.76520 0.11000
C 	C 	0.08650 0.62080 0.75660 0.24000
C 	C 	0.11650 0.58390 0.76610 -0.21300
H 	H 	0.09080 0.53940 0.76190 0.10600
C 	C 	0.18240 0.60940 0.78150 0.09500
H 	H 	0.20080 0.58330 0.78270 0.00700
C 	C 	0.02150 0.59260 0.70270 -0.18400
C 	C 	0.01860 0.59300 0.79980 -0.24600
O 	O 	0.94747 0.03193 0.14663 -0.28800
N 	N 	0.88487 0.00663 0.12773 -0.09200
C 	C 	0.85947 0.04533 0.12443 0.09000
H 	H 	0.88577 0.08933 0.13623 0.01800
C 	C 	0.79467 0.02083 0.10353 -0.19900
H 	H 	0.77827 0.04863 0.09853 0.09600
C 	C 	0.75317 0.95413 0.08993 0.14900
C 	C 	0.78317 0.91723 0.09943 -0.16300
H 	H 	0.75747 0.87273 0.09523 0.09000
C 	C 	0.84907 0.94273 0.11483 0.10000
H 	H 	0.86747 0.91663 0.11603 0.01100
C 	C 	0.68817 0.92593 0.03603 -0.01100
C 	C 	0.68527 0.92633 0.13313 -0.08000
O 	O 	0.61413 0.36527 0.47997 -0.29800
N 	N 	0.55153 0.33997 0.46107 -0.06400
C 	C 	0.52613 0.37867 0.45777 0.05900
H 	H 	0.55243 0.42267 0.46957 0.02600
C 	C 	0.46133 0.35417 0.43687 -0.12300
H 	H 	0.44493 0.38197 0.43187 0.07600
C 	C 	0.41983 0.28747 0.42327 0.07400
C 	C 	0.44983 0.25057 0.43277 -0.11300
H 	H 	0.42413 0.20607 0.42857 0.07200
C 	C 	0.51573 0.27607 0.44817 0.04300
H 	H 	0.53413 0.24997 0.44937 0.02600
C 	C 	0.35483 0.25927 0.36937 0.01400
C 	C 	0.35193 0.25967 0.46647 -0.04800
Yb	Yb	0.33333 0.66667 0.91667 1.53800
Yb	Yb	0.00000 0.00000 0.25000 1.50400
Yb	Yb	0.66667 0.33333 0.58333 1.53900
