data_crystal

_cell_length_a 14.89670
_cell_length_b 14.89670
_cell_length_c 10.05020
_cell_angle_alpha 90.00000
_cell_angle_beta  90.00000
_cell_angle_gamma 90.00000

_symmetry_space_group_name_	'P 1'
_symmetry_space_group_name_H-M	'P 1'

loop_
_symmetry_equiv_pos_as_xyz
  x,y,z

loop_
_atom_site_label
_atom_site_type_symbol
_atom_site_fract_x
_atom_site_fract_y
_atom_site_fract_z
_atom_site_charge
O 	O 	0.41410 0.10010 0.14460 -0.44300
C 	C 	0.42140 0.14470 0.25210 0.30900
O 	O 	0.43690 0.22580 0.25180 -0.34200
C 	C 	0.40820 0.09610 0.37880 -0.06900
C 	C 	0.38130 0.00640 0.38150 -0.08200
H 	H 	0.37300 0.97570 0.29960 0.07700
C 	C 	0.28240 0.83480 0.39810 -0.03000
C 	C 	0.24870 0.74980 0.40100 0.00400
C 	C 	0.31230 0.72270 0.39580 0.02900
H 	H 	0.71560 0.26740 0.09180 0.25300
H 	H 	0.70040 0.31300 0.94940 0.25500
H 	H 	0.73420 0.21120 0.95890 0.23300
C 	C 	0.34830 0.80840 0.39100 -0.00600
O 	O 	0.58590 0.89990 0.14460 -0.44200
C 	C 	0.57860 0.85530 0.25210 0.33500
O 	O 	0.56310 0.77420 0.25180 -0.34800
C 	C 	0.59180 0.90390 0.37880 -0.13400
C 	C 	0.61870 0.99360 0.38150 0.05700
H 	H 	0.62700 0.02430 0.29960 0.01700
C 	C 	0.71760 0.16520 0.39810 -0.04300
C 	C 	0.75130 0.25020 0.40100 0.01000
C 	C 	0.68770 0.27730 0.39580 0.02900
H 	H 	0.28440 0.73260 0.09180 0.24700
H 	H 	0.29960 0.68700 0.94940 0.24900
H 	H 	0.26580 0.78880 0.95890 0.22600
C 	C 	0.65170 0.19160 0.39100 -0.01300
O 	O 	0.89990 0.41410 0.64460 -0.44900
C 	C 	0.85530 0.42140 0.75210 0.34500
O 	O 	0.77420 0.43690 0.75180 -0.35400
C 	C 	0.90390 0.40820 0.87880 -0.16400
C 	C 	0.99360 0.38130 0.88150 0.03200
H 	H 	0.02430 0.37300 0.79960 0.02100
C 	C 	0.16520 0.28240 0.89810 -0.06900
C 	C 	0.25020 0.24870 0.90100 -0.00500
C 	C 	0.27730 0.31230 0.89580 0.01300
H 	H 	0.73260 0.71560 0.59180 0.32700
H 	H 	0.68700 0.70040 0.44940 0.34700
H 	H 	0.78880 0.73420 0.45890 0.33100
C 	C 	0.19160 0.34830 0.89100 -0.02700
O 	O 	0.10010 0.58590 0.64460 -0.45000
C 	C 	0.14470 0.57860 0.75210 0.31800
O 	O 	0.22580 0.56310 0.75180 -0.34700
C 	C 	0.09610 0.59180 0.87880 -0.09800
C 	C 	0.00640 0.61870 0.88150 -0.10800
H 	H 	0.97570 0.62700 0.79960 0.08100
C 	C 	0.83480 0.71760 0.89810 -0.05200
C 	C 	0.74980 0.75130 0.90100 -0.00800
C 	C 	0.72270 0.68770 0.89580 0.01100
H 	H 	0.26740 0.28440 0.59180 0.32400
H 	H 	0.31300 0.29960 0.44940 0.34400
H 	H 	0.21120 0.26580 0.45890 0.32700
C 	C 	0.80840 0.65170 0.89100 -0.02100
O 	O 	0.58590 0.89990 0.85540 -0.46500
C 	C 	0.57860 0.85530 0.74790 0.34000
O 	O 	0.56310 0.77420 0.74820 -0.35800
C 	C 	0.59180 0.90390 0.62120 -0.13800
C 	C 	0.61870 0.99360 0.61850 0.05600
H 	H 	0.62700 0.02430 0.70040 0.01400
C 	C 	0.71760 0.16520 0.60190 -0.04600
C 	C 	0.75130 0.25020 0.59900 0.00900
C 	C 	0.68770 0.27730 0.60420 0.02600
H 	H 	0.28440 0.73260 0.90820 0.26500
H 	H 	0.29960 0.68700 0.05060 0.29800
H 	H 	0.26580 0.78880 0.04110 0.29100
C 	C 	0.65170 0.19160 0.60900 -0.01400
O 	O 	0.41410 0.10010 0.85540 -0.46500
C 	C 	0.42140 0.14470 0.74790 0.31400
O 	O 	0.43690 0.22580 0.74820 -0.35100
C 	C 	0.40820 0.09610 0.62120 -0.07400
C 	C 	0.38130 0.00640 0.61850 -0.07800
H 	H 	0.37300 0.97570 0.70040 0.07000
C 	C 	0.28240 0.83480 0.60190 -0.03300
C 	C 	0.24870 0.74980 0.59900 0.00300
C 	C 	0.31230 0.72270 0.60420 0.02600
H 	H 	0.71560 0.26740 0.90820 0.27000
H 	H 	0.70040 0.31300 0.05060 0.30200
H 	H 	0.73420 0.21120 0.04110 0.29400
C 	C 	0.34830 0.80840 0.60900 -0.00800
O 	O 	0.10010 0.58590 0.35540 -0.44800
C 	C 	0.14470 0.57860 0.24790 0.31500
O 	O 	0.22580 0.56310 0.24820 -0.33800
C 	C 	0.09610 0.59180 0.12120 -0.07700
C 	C 	0.00640 0.61870 0.11850 -0.07800
H 	H 	0.97570 0.62700 0.20040 0.07500
C 	C 	0.83480 0.71760 0.10190 -0.03100
C 	C 	0.74980 0.75130 0.09900 0.00900
C 	C 	0.72270 0.68770 0.10420 0.02900
H 	H 	0.26740 0.28440 0.40820 0.32400
H 	H 	0.31300 0.29960 0.55060 0.34300
H 	H 	0.21120 0.26580 0.54110 0.32600
C 	C 	0.80840 0.65170 0.10900 -0.01000
O 	O 	0.89990 0.41410 0.35540 -0.44800
C 	C 	0.85530 0.42140 0.24790 0.34100
O 	O 	0.77420 0.43690 0.24820 -0.34500
C 	C 	0.90390 0.40820 0.12120 -0.14300
C 	C 	0.99360 0.38130 0.11850 0.05900
H 	H 	0.02430 0.37300 0.20040 0.01500
C 	C 	0.16520 0.28240 0.10190 -0.04800
C 	C 	0.25020 0.24870 0.09900 0.01100
C 	C 	0.27730 0.31230 0.10420 0.03100
H 	H 	0.73260 0.71560 0.40820 0.32700
H 	H 	0.68700 0.70040 0.55060 0.34600
H 	H 	0.78880 0.73420 0.54110 0.33000
C 	C 	0.19160 0.34830 0.10900 -0.01600
Co	Co	0.43244 0.19685 -0.00000 1.17100
O 	O 	0.58310 0.14390 -0.00000 -0.52200
O 	O 	0.53730 0.28460 -0.00000 -0.50000
N 	N 	0.30820 0.26220 -0.00000 -0.21000
C 	C 	0.59980 0.22510 -0.00000 0.75100
C 	C 	0.69590 0.25700 -0.00000 -1.53200
Co	Co	0.56756 0.80315 -0.00000 1.17200
O 	O 	0.41690 0.85610 -0.00000 -0.51600
O 	O 	0.46270 0.71540 -0.00000 -0.49800
N 	N 	0.69180 0.73780 -0.00000 -0.20700
C 	C 	0.40020 0.77490 -0.00000 0.74200
C 	C 	0.30410 0.74300 -0.00000 -1.50500
Co	Co	0.80315 0.43244 0.50000 1.16500
O 	O 	0.85610 0.58310 0.50000 -0.56500
O 	O 	0.71540 0.53730 0.50000 -0.54300
N 	N 	0.73780 0.30820 0.50000 -0.22700
C 	C 	0.77490 0.59980 0.50000 0.86000
C 	C 	0.74300 0.69590 0.50000 -1.91800
Co	Co	0.19685 0.56756 0.50000 1.16400
O 	O 	0.14390 0.41690 0.50000 -0.56700
O 	O 	0.28460 0.46270 0.50000 -0.54200
N 	N 	0.26220 0.69180 0.50000 -0.22500
C 	C 	0.22510 0.40020 0.50000 0.85600
C 	C 	0.25700 0.30410 0.50000 -1.90400
Na	Na	0.50000 0.00000 -0.00000 0.58900
Na	Na	0.00000 0.50000 0.50000 0.58700
C 	C 	0.42230 0.13930 0.50000 -0.01700
H 	H 	0.44220 0.19990 0.50000 0.03800
C 	C 	0.36630 0.96020 0.50000 0.05100
C 	C 	0.33300 0.86620 0.50000 0.00200
C 	C 	0.57770 0.86070 0.50000 0.04300
H 	H 	0.55780 0.80010 0.50000 0.01900
C 	C 	0.63370 0.03980 0.50000 -0.07300
C 	C 	0.66700 0.13380 0.50000 0.05000
C 	C 	0.86070 0.42230 -0.00000 0.08800
H 	H 	0.80010 0.44220 -0.00000 0.01900
C 	C 	0.03980 0.36630 -0.00000 -0.05200
C 	C 	0.13380 0.33300 -0.00000 0.08400
C 	C 	0.13930 0.57770 -0.00000 0.02800
H 	H 	0.19990 0.55780 -0.00000 0.03900
C 	C 	0.96020 0.63370 -0.00000 0.07600
C 	C 	0.86620 0.66700 -0.00000 0.03500
