data_crystal

_cell_length_a 21.12910
_cell_length_b 18.40060
_cell_length_c 21.88430
_cell_angle_alpha 90.00000
_cell_angle_beta  100.79600
_cell_angle_gamma 90.00000

_symmetry_space_group_name_	'P 1'
_symmetry_space_group_name_H-M	'P 1'

loop_
_symmetry_equiv_pos_as_xyz
  x,y,z

loop_
_atom_site_label
_atom_site_type_symbol
_atom_site_fract_x
_atom_site_fract_y
_atom_site_fract_z
_atom_site_charge
Mo	Mo	0.15039 0.74092 0.63006 1.08900
Mo	Mo	0.09947 0.68627 0.38585 1.08200
Mo	Mo	0.27499 0.61297 0.63386 1.08600
Mo	Mo	0.19183 0.59236 0.38995 1.08600
Mo	Mo	0.07497 0.76963 0.52488 1.07900
Mo	Mo	0.29190 0.54962 0.53296 1.08400
Na	Na	0.04930 0.58950 0.64550 0.57500
Na	Na	0.84467 0.57240 0.43202 0.58200
P 	P 	0.13524 0.59803 0.52748 0.50700
P 	P 	0.21679 0.42101 0.43929 0.56000
P 	P 	0.19123 0.62620 0.74496 0.56400
P 	P 	0.96296 0.67567 0.43454 0.60700
O 	O 	0.28699 0.65309 0.55307 -0.67600
O 	O 	0.17003 0.77370 0.54929 -0.66500
O 	O 	0.24906 0.71829 0.65769 -0.92300
O 	O 	0.09861 0.65923 0.48758 -0.44700
O 	O 	0.19242 0.69276 0.42070 -0.67700
O 	O 	0.06189 0.71465 0.59675 -0.55200
O 	O 	0.09923 0.58182 0.37580 -0.55200
O 	O 	0.28748 0.58561 0.44036 -0.75600
O 	O 	0.18596 0.56759 0.49072 -0.44200
O 	O 	0.17179 0.63217 0.58833 -0.44800
O 	O 	0.00189 0.67832 0.38190 -0.46800
O 	O 	0.08929 0.78361 0.43261 -0.73300
O 	O 	0.09157 0.53905 0.54296 -0.49700
O 	O 	0.19761 0.47935 0.38814 -0.42900
O 	O 	0.25802 0.51426 0.60313 -0.54400
O 	O 	0.96073 0.60186 0.46216 -0.43800
O 	O 	0.98533 0.73507 0.48296 -0.36600
O 	O 	0.14025 0.67030 0.70117 -0.43000
O 	O 	0.23197 0.58150 0.70674 -0.40600
O 	O 	0.89104 0.69520 0.40592 -0.47400
O 	O 	0.26760 0.45076 0.49264 -0.40700
O 	O 	0.14891 0.56930 0.77337 -0.59700
O 	O 	0.95880 0.53510 0.58330 -0.81400
O 	O 	0.25280 0.35990 0.41070 -0.47000
O 	O 	0.15920 0.39230 0.46210 -0.33200
O 	O 	0.23163 0.66920 0.79567 -0.31100
H 	H 	0.16300 0.55600 0.80600 0.35900
H 	H 	0.24200 0.35600 0.37300 0.30600
H 	H 	0.11900 0.80700 0.43200 0.28100
H 	H 	0.94400 0.50300 0.59800 0.41400
H 	H 	0.30300 0.62200 0.44300 0.31900
H 	H 	0.88000 0.71400 0.37000 0.24000
H 	H 	0.91700 0.56100 0.56800 0.24800
H 	H 	0.26600 0.73900 0.64100 0.46900
Mo	Mo	0.65039 0.24092 0.63006 1.08800
Mo	Mo	0.59947 0.18627 0.38585 1.08400
Mo	Mo	0.77499 0.11297 0.63386 1.08600
Mo	Mo	0.69183 0.09236 0.38995 1.07500
Mo	Mo	0.57497 0.26963 0.52488 1.08700
Mo	Mo	0.79190 0.04962 0.53296 1.07400
Na	Na	0.54930 0.08950 0.64550 0.57800
Na	Na	0.34467 0.07240 0.43202 0.57600
P 	P 	0.63524 0.09803 0.52748 0.50800
P 	P 	0.71679 0.92101 0.43929 0.56200
P 	P 	0.69123 0.12620 0.74496 0.56400
P 	P 	0.46296 0.17567 0.43454 0.57300
O 	O 	0.78699 0.15309 0.55307 -0.67500
O 	O 	0.67003 0.27370 0.54929 -0.66600
O 	O 	0.74906 0.21829 0.65769 -0.92400
O 	O 	0.59861 0.15923 0.48758 -0.44000
O 	O 	0.69242 0.19276 0.42070 -0.67800
O 	O 	0.56189 0.21465 0.59675 -0.54000
O 	O 	0.59923 0.08182 0.37580 -0.57000
O 	O 	0.78748 0.08561 0.44036 -0.77700
O 	O 	0.68596 0.06759 0.49072 -0.45800
O 	O 	0.67179 0.13217 0.58833 -0.44800
O 	O 	0.50189 0.17832 0.38190 -0.43800
O 	O 	0.58929 0.28361 0.43261 -0.72400
O 	O 	0.59157 0.03905 0.54296 -0.50800
O 	O 	0.69761 0.97935 0.38814 -0.40000
O 	O 	0.75802 0.01426 0.60313 -0.56200
O 	O 	0.46073 0.10186 0.46216 -0.46700
O 	O 	0.48533 0.23507 0.48296 -0.39300
O 	O 	0.64025 0.17030 0.70117 -0.42800
O 	O 	0.73197 0.08150 0.70674 -0.41200
O 	O 	0.39104 0.19520 0.40592 -0.47700
O 	O 	0.76760 0.95076 0.49264 -0.37200
O 	O 	0.64891 0.06930 0.77337 -0.59900
O 	O 	0.45880 0.03510 0.58330 -0.83700
O 	O 	0.75280 0.85990 0.41070 -0.45900
O 	O 	0.65920 0.89230 0.46210 -0.31900
O 	O 	0.73163 0.16920 0.79567 -0.31300
H 	H 	0.66300 0.05600 0.80600 0.35500
H 	H 	0.74200 0.85600 0.37300 0.30700
H 	H 	0.61900 0.30700 0.43200 0.27800
H 	H 	0.44400 0.00300 0.59800 0.39400
H 	H 	0.80300 0.12200 0.44300 0.32700
H 	H 	0.38000 0.21400 0.37000 0.22700
H 	H 	0.41700 0.06100 0.56800 0.24200
H 	H 	0.76600 0.23900 0.64100 0.46800
Mo	Mo	0.84961 0.25908 0.36994 1.08600
Mo	Mo	0.90053 0.31373 0.61415 1.08800
Mo	Mo	0.72501 0.38703 0.36614 1.08600
Mo	Mo	0.80817 0.40764 0.61005 1.08900
Mo	Mo	0.92503 0.23037 0.47512 1.09400
Mo	Mo	0.70810 0.45038 0.46704 1.08500
Na	Na	0.95070 0.41050 0.35450 0.58500
Na	Na	0.15533 0.42760 0.56798 0.58200
P 	P 	0.86476 0.40197 0.47252 0.50800
P 	P 	0.78321 0.57899 0.56071 0.56200
P 	P 	0.80877 0.37380 0.25504 0.56400
P 	P 	0.03704 0.32433 0.56546 0.53900
O 	O 	0.71301 0.34691 0.44693 -0.67600
O 	O 	0.82997 0.22630 0.45071 -0.66800
O 	O 	0.75094 0.28171 0.34231 -0.92900
O 	O 	0.90139 0.34077 0.51242 -0.43000
O 	O 	0.80758 0.30724 0.57930 -0.67600
O 	O 	0.93811 0.28535 0.40325 -0.52800
O 	O 	0.90077 0.41818 0.62420 -0.53700
O 	O 	0.71252 0.41439 0.55964 -0.75500
O 	O 	0.81404 0.43241 0.50928 -0.44200
O 	O 	0.82821 0.36783 0.41167 -0.44500
O 	O 	0.99811 0.32168 0.61810 -0.39500
O 	O 	0.91071 0.21639 0.56739 -0.71400
O 	O 	0.90843 0.46095 0.45704 -0.47400
O 	O 	0.80239 0.52065 0.61186 -0.42500
O 	O 	0.74198 0.48574 0.39687 -0.54400
O 	O 	0.03927 0.39814 0.53784 -0.46400
O 	O 	0.01467 0.26493 0.51704 -0.42000
O 	O 	0.85975 0.32970 0.29883 -0.42700
O 	O 	0.76803 0.41850 0.29326 -0.40600
O 	O 	0.10896 0.30480 0.59408 -0.47000
O 	O 	0.73240 0.54924 0.50736 -0.40600
O 	O 	0.85109 0.43070 0.22663 -0.58600
O 	O 	0.04120 0.46490 0.41670 -0.85800
O 	O 	0.74720 0.64010 0.58930 -0.46400
O 	O 	0.84080 0.60770 0.53790 -0.32300
O 	O 	0.76837 0.33080 0.20433 -0.32300
H 	H 	0.83700 0.44400 0.19400 0.35700
H 	H 	0.75800 0.64400 0.62700 0.30900
H 	H 	0.88100 0.19300 0.56800 0.27500
H 	H 	0.05600 0.49700 0.40200 0.41800
H 	H 	0.69700 0.37800 0.55700 0.32000
H 	H 	0.12000 0.28600 0.63000 0.22100
H 	H 	0.08300 0.43900 0.43200 0.24900
H 	H 	0.73400 0.26100 0.35900 0.46800
Mo	Mo	0.34961 0.75908 0.36994 1.08700
Mo	Mo	0.40053 0.81373 0.61415 1.08700
Mo	Mo	0.22501 0.88703 0.36614 1.08600
Mo	Mo	0.30817 0.90764 0.61005 1.10200
Mo	Mo	0.42503 0.73037 0.47512 1.08700
Mo	Mo	0.20810 0.95038 0.46704 1.09600
Na	Na	0.45070 0.91050 0.35450 0.58200
Na	Na	0.65533 0.92760 0.56798 0.58900
P 	P 	0.36476 0.90197 0.47252 0.50800
P 	P 	0.28321 0.07899 0.56071 0.56100
P 	P 	0.30877 0.87380 0.25504 0.56400
P 	P 	0.53704 0.82433 0.56546 0.57200
O 	O 	0.21301 0.84691 0.44693 -0.67700
O 	O 	0.32997 0.72630 0.45071 -0.66700
O 	O 	0.25094 0.78171 0.34231 -0.92800
O 	O 	0.40139 0.84077 0.51242 -0.43700
O 	O 	0.30758 0.80724 0.57930 -0.67600
O 	O 	0.43811 0.78535 0.40325 -0.54000
O 	O 	0.40077 0.91818 0.62420 -0.51900
O 	O 	0.21252 0.91439 0.55964 -0.73400
O 	O 	0.31404 0.93241 0.50928 -0.42700
O 	O 	0.32821 0.86783 0.41167 -0.44500
O 	O 	0.49811 0.82168 0.61810 -0.42400
O 	O 	0.41071 0.71639 0.56739 -0.72300
O 	O 	0.40843 0.96095 0.45704 -0.46200
O 	O 	0.30239 0.02065 0.61186 -0.45400
O 	O 	0.24198 0.98574 0.39687 -0.52600
O 	O 	0.53927 0.89814 0.53784 -0.43400
O 	O 	0.51467 0.76493 0.51704 -0.39200
O 	O 	0.35975 0.82970 0.29883 -0.42800
O 	O 	0.26803 0.91850 0.29326 -0.40000
O 	O 	0.60896 0.80480 0.59408 -0.46600
O 	O 	0.23240 0.04924 0.50736 -0.44100
O 	O 	0.35109 0.93070 0.22663 -0.58300
O 	O 	0.54120 0.96490 0.41670 -0.83300
O 	O 	0.24720 0.14010 0.58930 -0.47400
O 	O 	0.34080 0.10770 0.53790 -0.33600
O 	O 	0.26837 0.83080 0.20433 -0.32200
H 	H 	0.33700 0.94400 0.19400 0.36000
H 	H 	0.25800 0.14400 0.62700 0.30800
H 	H 	0.38100 0.69300 0.56800 0.27800
H 	H 	0.55600 0.99700 0.40200 0.43800
H 	H 	0.19700 0.87800 0.55700 0.31200
H 	H 	0.62000 0.78600 0.63000 0.23400
H 	H 	0.58300 0.93900 0.43200 0.25500
H 	H 	0.23400 0.76100 0.35900 0.46800
Mn	Mn	0.00000 0.50000 0.50000 1.30500
Mn	Mn	0.50000 0.00000 0.50000 1.30100
Mn	Mn	0.25000 0.75000 0.50000 1.30500
Mn	Mn	0.75000 0.25000 0.50000 1.30500
Mo	Mo	0.84961 0.74092 0.86994 1.09400
Mo	Mo	0.90053 0.68627 0.11415 1.08900
Mo	Mo	0.72501 0.61297 0.86614 1.08800
Mo	Mo	0.80817 0.59236 0.11005 1.08900
Mo	Mo	0.92503 0.76963 0.97512 1.13700
Mo	Mo	0.70810 0.54962 0.96704 1.12200
Na	Na	0.95070 0.58950 0.85450 0.58600
Na	Na	0.15533 0.57240 0.06798 0.57600
P 	P 	0.86476 0.59803 0.97252 0.60500
P 	P 	0.78321 0.42101 0.06071 0.56400
P 	P 	0.80877 0.62620 0.75504 0.56400
P 	P 	0.03704 0.67567 0.06546 0.53900
O 	O 	0.71301 0.65309 0.94693 -0.64500
O 	O 	0.82997 0.77370 0.95071 -0.63300
O 	O 	0.75094 0.71829 0.84231 -0.92200
O 	O 	0.90139 0.65923 0.01242 -0.49300
O 	O 	0.80758 0.69276 0.07930 -0.68400
O 	O 	0.93811 0.71465 0.90325 -0.50300
O 	O 	0.90077 0.58182 0.12420 -0.53900
O 	O 	0.71252 0.58561 0.05964 -0.77400
O 	O 	0.81404 0.56759 0.00928 -0.50500
O 	O 	0.82821 0.63217 0.91167 -0.45000
O 	O 	0.99811 0.67832 0.11810 -0.39200
O 	O 	0.91071 0.78361 0.06739 -0.72600
O 	O 	0.90843 0.53905 0.95704 -0.45600
O 	O 	0.80239 0.47935 0.11186 -0.42800
O 	O 	0.74198 0.51426 0.89687 -0.52600
O 	O 	0.03927 0.60186 0.03784 -0.48900
O 	O 	0.01467 0.73507 0.01704 -0.44900
O 	O 	0.85975 0.67030 0.79883 -0.41800
O 	O 	0.76803 0.58150 0.79326 -0.40300
O 	O 	0.10896 0.69520 0.09408 -0.48200
O 	O 	0.73240 0.45076 0.00736 -0.44500
O 	O 	0.85109 0.56930 0.72663 -0.58200
O 	O 	0.04120 0.53510 0.91670 -0.83300
O 	O 	0.74720 0.35990 0.08930 -0.48300
O 	O 	0.84080 0.39230 0.03790 -0.35300
O 	O 	0.76837 0.66920 0.70433 -0.31100
H 	H 	0.83700 0.55600 0.69400 0.35700
H 	H 	0.75800 0.35600 0.12700 0.31000
H 	H 	0.88100 0.80700 0.06800 0.27400
H 	H 	0.05600 0.50300 0.90200 0.41300
H 	H 	0.69700 0.62200 0.05700 0.31500
H 	H 	0.12000 0.71400 0.13000 0.22400
H 	H 	0.08300 0.56100 0.93200 0.25900
H 	H 	0.73400 0.73900 0.85900 0.47000
Mo	Mo	0.34961 0.24092 0.86994 1.08900
Mo	Mo	0.40053 0.18627 0.11415 1.08400
Mo	Mo	0.22501 0.11297 0.86614 1.08300
Mo	Mo	0.30817 0.09236 0.11005 1.07400
Mo	Mo	0.42503 0.26963 0.97512 1.12600
Mo	Mo	0.20810 0.04962 0.96704 1.10800
Na	Na	0.45070 0.08950 0.85450 0.57900
Na	Na	0.65533 0.07240 0.06798 0.57100
P 	P 	0.36476 0.09803 0.97252 0.61200
P 	P 	0.28321 0.92101 0.06071 0.56500
P 	P 	0.30877 0.12620 0.75504 0.56400
P 	P 	0.53704 0.17567 0.06546 0.57500
O 	O 	0.21301 0.15309 0.94693 -0.64600
O 	O 	0.32997 0.27370 0.95071 -0.63400
O 	O 	0.25094 0.21829 0.84231 -0.92700
O 	O 	0.40139 0.15923 0.01242 -0.50700
O 	O 	0.30758 0.19276 0.07930 -0.68600
O 	O 	0.43811 0.21465 0.90325 -0.52300
O 	O 	0.40077 0.08182 0.12420 -0.57300
O 	O 	0.21252 0.08561 0.05964 -0.80200
O 	O 	0.31404 0.06759 0.00928 -0.52400
O 	O 	0.32821 0.13217 0.91167 -0.45200
O 	O 	0.49811 0.17832 0.11810 -0.44000
O 	O 	0.41071 0.28361 0.06739 -0.74300
O 	O 	0.40843 0.03905 0.95704 -0.48800
O 	O 	0.30239 0.97935 0.11186 -0.40300
O 	O 	0.24198 0.01426 0.89687 -0.55000
O 	O 	0.53927 0.10186 0.03784 -0.49200
O 	O 	0.51467 0.23507 0.01704 -0.43100
O 	O 	0.35975 0.17030 0.79883 -0.42900
O 	O 	0.26803 0.08150 0.79326 -0.41600
O 	O 	0.60896 0.19520 0.09408 -0.49100
O 	O 	0.23240 0.95076 0.00736 -0.41700
O 	O 	0.35109 0.06930 0.72663 -0.59900
O 	O 	0.54120 0.03510 0.91670 -0.81500
O 	O 	0.24720 0.85990 0.08930 -0.48100
O 	O 	0.34080 0.89230 0.03790 -0.34800
O 	O 	0.26837 0.16920 0.70433 -0.32100
H 	H 	0.33700 0.05600 0.69400 0.35400
H 	H 	0.25800 0.85600 0.12700 0.31000
H 	H 	0.38100 0.30700 0.06800 0.27400
H 	H 	0.55600 0.00300 0.90200 0.39000
H 	H 	0.19700 0.12200 0.05700 0.32000
H 	H 	0.62000 0.21400 0.13000 0.22800
H 	H 	0.58300 0.06100 0.93200 0.25100
H 	H 	0.23400 0.23900 0.85900 0.46900
Mo	Mo	0.15039 0.25908 0.13006 1.08200
Mo	Mo	0.09947 0.31373 0.88585 1.08200
Mo	Mo	0.27499 0.38703 0.13386 1.08500
Mo	Mo	0.19183 0.40764 0.88995 1.08800
Mo	Mo	0.07497 0.23037 0.02488 1.03400
Mo	Mo	0.29190 0.45038 0.03296 1.04600
Na	Na	0.04930 0.41050 0.14550 0.57400
Na	Na	0.84467 0.42760 0.93202 0.58900
P 	P 	0.13524 0.40197 0.02748 0.40400
P 	P 	0.21679 0.57899 0.93929 0.55800
P 	P 	0.19123 0.37380 0.24496 0.56400
P 	P 	0.96296 0.32433 0.93454 0.60100
O 	O 	0.28699 0.34691 0.05307 -0.70000
O 	O 	0.17003 0.22630 0.04929 -0.69400
O 	O 	0.24906 0.28171 0.15769 -0.93000
O 	O 	0.09861 0.34077 0.98758 -0.37600
O 	O 	0.19242 0.30724 0.92070 -0.66100
O 	O 	0.06189 0.28535 0.09675 -0.57900
O 	O 	0.09923 0.41818 0.87580 -0.54800
O 	O 	0.28748 0.41439 0.94036 -0.73600
O 	O 	0.18596 0.43241 0.99072 -0.37400
O 	O 	0.17179 0.36783 0.08833 -0.44100
O 	O 	0.00189 0.32168 0.88190 -0.46500
O 	O 	0.08929 0.21639 0.93261 -0.71800
O 	O 	0.09157 0.46095 0.04296 -0.50700
O 	O 	0.19761 0.52065 0.88814 -0.42600
O 	O 	0.25802 0.48574 0.10313 -0.56300
O 	O 	0.96073 0.39814 0.96216 -0.40600
O 	O 	0.98533 0.26493 0.98296 -0.33800
O 	O 	0.14025 0.32970 0.20117 -0.43900
O 	O 	0.23197 0.41850 0.20674 -0.40900
O 	O 	0.89104 0.30480 0.90592 -0.46200
O 	O 	0.26760 0.54924 0.99264 -0.36800
O 	O 	0.14891 0.43070 0.27337 -0.60100
O 	O 	0.95880 0.46490 0.08330 -0.82500
O 	O 	0.25280 0.64010 0.91070 -0.45000
O 	O 	0.15920 0.60770 0.96210 -0.29900
O 	O 	0.23163 0.33080 0.29567 -0.32300
H 	H 	0.16300 0.44400 0.30600 0.35900
H 	H 	0.24200 0.64400 0.87300 0.30500
H 	H 	0.11900 0.19300 0.93200 0.28300
H 	H 	0.94400 0.49700 0.09800 0.41600
H 	H 	0.30300 0.37800 0.94300 0.32600
H 	H 	0.88000 0.28600 0.87000 0.23600
H 	H 	0.91700 0.43900 0.06800 0.23800
H 	H 	0.26600 0.26100 0.14100 0.46800
Mo	Mo	0.65039 0.75908 0.13006 1.08700
Mo	Mo	0.59947 0.81373 0.88585 1.08600
Mo	Mo	0.77499 0.88703 0.13386 1.09000
Mo	Mo	0.69183 0.90764 0.88995 1.10200
Mo	Mo	0.57497 0.73037 0.02488 1.04900
Mo	Mo	0.79190 0.95038 0.03296 1.06500
Na	Na	0.54930 0.91050 0.14550 0.58100
Na	Na	0.34467 0.92760 0.93202 0.59500
P 	P 	0.63524 0.90197 0.02748 0.40900
P 	P 	0.71679 0.07899 0.93929 0.55800
P 	P 	0.69123 0.87380 0.24496 0.56500
P 	P 	0.46296 0.82433 0.93454 0.56900
O 	O 	0.78699 0.84691 0.05307 -0.69600
O 	O 	0.67003 0.72630 0.04929 -0.69000
O 	O 	0.74906 0.78171 0.15769 -0.92500
O 	O 	0.59861 0.84077 0.98758 -0.37200
O 	O 	0.69242 0.80724 0.92070 -0.66000
O 	O 	0.56189 0.78535 0.09675 -0.55700
O 	O 	0.59923 0.91818 0.87580 -0.51600
O 	O 	0.78748 0.91439 0.94036 -0.71200
O 	O 	0.68596 0.93241 0.99072 -0.36400
O 	O 	0.67179 0.86783 0.08833 -0.44000
O 	O 	0.50189 0.82168 0.88190 -0.42200
O 	O 	0.58929 0.71639 0.93261 -0.70400
O 	O 	0.59157 0.96095 0.04296 -0.47200
O 	O 	0.69761 0.02065 0.88814 -0.45000
O 	O 	0.75802 0.98574 0.10313 -0.53600
O 	O 	0.46073 0.89814 0.96216 -0.40100
O 	O 	0.48533 0.76493 0.98296 -0.35500
O 	O 	0.64025 0.82970 0.20117 -0.42800
O 	O 	0.73197 0.91850 0.20674 -0.39500
O 	O 	0.39104 0.80480 0.90592 -0.45300
O 	O 	0.76760 0.04924 0.99264 -0.39600
O 	O 	0.64891 0.93070 0.27337 -0.58300
O 	O 	0.45880 0.96490 0.08330 -0.84400
O 	O 	0.75280 0.14010 0.91070 -0.45300
O 	O 	0.65920 0.10770 0.96210 -0.30600
O 	O 	0.73163 0.83080 0.29567 -0.31300
H 	H 	0.66300 0.94400 0.30600 0.36100
H 	H 	0.74200 0.14400 0.87300 0.30500
H 	H 	0.61900 0.69300 0.93200 0.28300
H 	H 	0.44400 0.99700 0.09800 0.44000
H 	H 	0.80300 0.87800 0.94300 0.32000
H 	H 	0.38000 0.78600 0.87000 0.23300
H 	H 	0.41700 0.93900 0.06800 0.24600
H 	H 	0.76600 0.76100 0.14100 0.46900
Mn	Mn	-0.00000 0.50000 -0.00000 1.27500
Mn	Mn	0.50000 0.00000 -0.00000 1.27100
Mn	Mn	0.75000 0.75000 -0.00000 1.27600
Mn	Mn	0.25000 0.25000 -0.00000 1.27500
