data_crystal

_cell_length_a 9.43700
_cell_length_b 15.37800
_cell_length_c 13.31900
_cell_angle_alpha 90.00000
_cell_angle_beta  106.38300
_cell_angle_gamma 90.00000

_symmetry_space_group_name_	'P 1'
_symmetry_space_group_name_H-M	'P 1'

loop_
_symmetry_equiv_pos_as_xyz
  x,y,z

loop_
_atom_site_label
_atom_site_type_symbol
_atom_site_fract_x
_atom_site_fract_y
_atom_site_fract_z
_atom_site_charge
C 	C 	0.06360 0.18910 0.13570 0.32400
C 	C 	0.06240 0.25590 0.21820 -0.08800
C 	C 	0.93590 0.26490 0.25160 0.03500
H 	H 	0.85490 0.22910 0.22400 0.05900
C 	C 	0.93040 0.32750 0.32620 -0.08600
C 	C 	0.79220 0.33440 0.36350 0.34100
C 	C 	0.05180 0.38010 0.36760 0.05400
H 	H 	0.04750 0.42280 0.41620 0.05400
C 	C 	0.18000 0.36950 0.33730 -0.12100
C 	C 	0.18390 0.30810 0.26250 0.05500
H 	H 	0.26930 0.30160 0.24150 0.05500
C 	C 	0.31280 0.42390 0.38820 0.42700
O 	O 	0.96460 0.13360 0.11180 -0.32000
O 	O 	0.16820 0.19220 0.09360 -0.40500
O 	O 	0.43630 0.39650 0.38220 -0.46600
O 	O 	0.29140 0.49040 0.43560 -0.47500
O 	O 	0.78550 0.39940 0.42000 -0.41200
O 	O 	0.69520 0.27840 0.33650 -0.26700
Zn	Zn	0.12617 0.09632 0.98868 1.23800
C 	C 	0.43640 0.68910 0.36430 0.32600
C 	C 	0.43760 0.75590 0.28180 -0.08800
C 	C 	0.56410 0.76490 0.24840 0.03500
H 	H 	0.64510 0.72910 0.27600 0.05800
C 	C 	0.56960 0.82750 0.17380 -0.08800
C 	C 	0.70780 0.83440 0.13650 0.34100
C 	C 	0.44820 0.88010 0.13240 0.05600
H 	H 	0.45250 0.92280 0.08380 0.05300
C 	C 	0.32000 0.86950 0.16270 -0.12100
C 	C 	0.31610 0.80810 0.23750 0.05500
H 	H 	0.23070 0.80160 0.25850 0.05500
C 	C 	0.18720 0.92390 0.11180 0.42600
O 	O 	0.53540 0.63360 0.38820 -0.32200
O 	O 	0.33180 0.69220 0.40640 -0.40800
O 	O 	0.06370 0.89650 0.11780 -0.46300
O 	O 	0.20860 0.99040 0.06440 -0.47300
O 	O 	0.71450 0.89940 0.08000 -0.41500
O 	O 	0.80480 0.77840 0.16350 -0.27100
Zn	Zn	0.37383 0.59632 0.51132 1.24100
C 	C 	0.93640 0.81090 0.86430 0.32500
C 	C 	0.93760 0.74410 0.78180 -0.08700
C 	C 	0.06410 0.73510 0.74840 0.03500
H 	H 	0.14510 0.77090 0.77600 0.05900
C 	C 	0.06960 0.67250 0.67380 -0.08600
C 	C 	0.20780 0.66560 0.63650 0.34100
C 	C 	0.94820 0.61990 0.63240 0.05400
H 	H 	0.95250 0.57720 0.58380 0.05400
C 	C 	0.82000 0.63050 0.66270 -0.12100
C 	C 	0.81610 0.69190 0.73750 0.05500
H 	H 	0.73070 0.69840 0.75850 0.05500
C 	C 	0.68720 0.57610 0.61180 0.42700
O 	O 	0.03540 0.86640 0.88820 -0.32000
O 	O 	0.83180 0.80780 0.90640 -0.40500
O 	O 	0.56370 0.60350 0.61780 -0.46600
O 	O 	0.70860 0.50960 0.56440 -0.47500
O 	O 	0.21450 0.60060 0.58000 -0.41200
O 	O 	0.30480 0.72160 0.66350 -0.26700
Zn	Zn	0.87383 0.90368 0.01132 1.23800
C 	C 	0.56360 0.31090 0.63570 0.32600
C 	C 	0.56240 0.24410 0.71820 -0.08800
C 	C 	0.43590 0.23510 0.75160 0.03500
H 	H 	0.35490 0.27090 0.72400 0.05800
C 	C 	0.43040 0.17250 0.82620 -0.08800
C 	C 	0.29220 0.16560 0.86350 0.34100
C 	C 	0.55180 0.11990 0.86760 0.05600
H 	H 	0.54750 0.07720 0.91620 0.05300
C 	C 	0.68000 0.13050 0.83730 -0.12100
C 	C 	0.68390 0.19190 0.76250 0.05500
H 	H 	0.76930 0.19840 0.74150 0.05500
C 	C 	0.81280 0.07610 0.88820 0.42600
O 	O 	0.46460 0.36640 0.61180 -0.32200
O 	O 	0.66820 0.30780 0.59360 -0.40800
O 	O 	0.93630 0.10350 0.88220 -0.46300
O 	O 	0.79140 0.00960 0.93560 -0.47300
O 	O 	0.28550 0.10060 0.92000 -0.41500
O 	O 	0.19520 0.22160 0.83650 -0.27100
Zn	Zn	0.62617 0.40368 0.48868 1.24100
