data_crystal

_cell_length_a 15.90500
_cell_length_b 15.90500
_cell_length_c 21.54800
_cell_angle_alpha 90.00000
_cell_angle_beta  90.00000
_cell_angle_gamma 90.00000

_symmetry_space_group_name_	'P 1'
_symmetry_space_group_name_H-M	'P 1'

loop_
_symmetry_equiv_pos_as_xyz
  x,y,z

loop_
_atom_site_label
_atom_site_type_symbol
_atom_site_fract_x
_atom_site_fract_y
_atom_site_fract_z
_atom_site_charge
C 	C 	0.03700 0.75640 0.53600 0.07400
H 	H 	0.00500 0.76070 0.57310 -0.00900
C 	C 	0.09430 0.69000 0.53090 -0.13000
H 	H 	0.10070 0.65080 0.56380 0.07200
C 	C 	0.14220 0.68190 0.47660 0.06300
C 	C 	0.12650 0.74060 0.43050 -0.12400
H 	H 	0.15530 0.73650 0.39190 0.06800
C 	C 	0.06930 0.80480 0.43980 0.06500
H 	H 	0.06120 0.84480 0.40760 -0.00900
C 	C 	0.20780 0.61680 0.47080 0.01500
C 	C 	0.20660 0.54390 0.50670 -0.07400
H 	H 	0.16160 0.53510 0.53490 0.05300
C 	C 	0.26930 0.48440 0.50200 -0.00200
H 	H 	0.26720 0.43530 0.52710 0.02500
C 	C 	0.33450 0.49560 0.46160 -0.07600
H 	H 	0.37710 0.45400 0.45820 0.05600
C 	C 	0.33850 0.56790 0.42540 0.01600
C 	C 	0.27500 0.62680 0.43040 -0.07800
H 	H 	0.27740 0.67590 0.40530 0.06000
C 	C 	0.40830 0.57660 0.38170 0.09500
C 	C 	0.12630 0.99510 0.56980 0.10000
C 	C 	0.18840 0.93980 0.53980 -0.01200
C 	C 	0.21870 0.95640 0.47950 -0.06200
H 	H 	0.20000 0.00430 0.45710 0.05000
C 	C 	0.27670 0.90080 0.45360 -0.01300
H 	H 	0.29590 0.90980 0.41240 0.03200
C 	C 	0.30670 0.83240 0.48700 -0.07000
H 	H 	0.34720 0.79600 0.46880 0.05500
C 	C 	0.27810 0.81670 0.54680 0.00900
C 	C 	0.21800 0.87110 0.57230 -0.06700
H 	H 	0.19720 0.86040 0.61290 0.04900
C 	C 	0.30800 0.74420 0.58350 0.06600
C 	C 	0.26530 0.71680 0.63650 -0.13100
H 	H 	0.21190 0.74000 0.64650 0.07000
C 	C 	0.30040 0.65660 0.67400 0.06500
H 	H 	0.27030 0.63990 0.71000 -0.01600
C 	C 	0.41280 0.64050 0.61020 0.07500
H 	H 	0.46330 0.61200 0.59970 -0.00400
C 	C 	0.38310 0.70130 0.56980 -0.13100
H 	H 	0.41330 0.71390 0.53290 0.07600
N 	N 	0.02460 0.81330 0.49240 -0.22700
N 	N 	0.44600 0.51220 0.35530 -0.12100
N 	N 	0.04460 0.99310 0.56640 -0.20400
N 	N 	0.44360 0.64900 0.36030 -0.10900
N 	N 	0.42500 0.73110 0.38100 -0.20900
H 	H 	0.47350 0.75860 0.39030 0.11100
H 	H 	0.39740 0.75920 0.35020 0.10900
N 	N 	0.88000 0.87460 0.41270 -0.23700
C 	C 	0.96300 0.24360 0.03600 0.06200
H 	H 	0.99500 0.23930 0.07310 -0.00700
C 	C 	0.90570 0.31000 0.03090 -0.15400
H 	H 	0.89930 0.34920 0.06380 0.07700
C 	C 	0.85780 0.31810 0.97660 0.08700
C 	C 	0.87350 0.25940 0.93050 -0.13100
H 	H 	0.84470 0.26350 0.89190 0.07000
C 	C 	0.93070 0.19520 0.93980 0.07200
H 	H 	0.93880 0.15520 0.90760 -0.01000
C 	C 	0.79220 0.38320 0.97080 0.02400
C 	C 	0.79340 0.45610 0.00670 -0.08300
H 	H 	0.83840 0.46490 0.03490 0.05100
C 	C 	0.73070 0.51560 0.00200 -0.03800
H 	H 	0.73280 0.56470 0.02710 0.03200
C 	C 	0.66550 0.50440 0.96160 -0.03600
H 	H 	0.62290 0.54600 0.95820 0.04800
C 	C 	0.66150 0.43210 0.92540 0.00500
C 	C 	0.72500 0.37320 0.93040 -0.06900
H 	H 	0.72260 0.32410 0.90530 0.05800
C 	C 	0.59170 0.42340 0.88170 0.10100
C 	C 	0.87370 0.00490 0.06980 0.11100
C 	C 	0.81160 0.06020 0.03980 -0.06800
C 	C 	0.78130 0.04360 0.97950 0.00600
H 	H 	0.80000 0.99570 0.95710 0.03100
C 	C 	0.72330 0.09920 0.95360 -0.06800
H 	H 	0.70410 0.09020 0.91240 0.05200
C 	C 	0.69330 0.16760 0.98700 0.00000
H 	H 	0.65280 0.20400 0.96880 0.03700
C 	C 	0.72190 0.18330 0.04680 -0.05000
C 	C 	0.78200 0.12890 0.07230 -0.02400
H 	H 	0.80280 0.13960 0.11290 0.03400
C 	C 	0.69200 0.25580 0.08350 0.08600
C 	C 	0.73470 0.28320 0.13650 -0.14500
H 	H 	0.78810 0.26000 0.14650 0.07500
C 	C 	0.69960 0.34340 0.17400 0.07100
H 	H 	0.72970 0.36010 0.21000 -0.01800
C 	C 	0.58720 0.35950 0.11020 0.08000
H 	H 	0.53670 0.38800 0.09970 -0.00900
C 	C 	0.61690 0.29870 0.06980 -0.14700
H 	H 	0.58670 0.28610 0.03290 0.07400
N 	N 	0.97540 0.18670 0.99240 -0.21500
N 	N 	0.55400 0.48780 0.85530 -0.12200
N 	N 	0.95540 0.00690 0.06640 -0.21100
N 	N 	0.55640 0.35100 0.86030 -0.10900
N 	N 	0.57500 0.26890 0.88100 -0.20800
H 	H 	0.52650 0.24140 0.89030 0.11400
H 	H 	0.60260 0.24080 0.85020 0.10900
N 	N 	0.12000 0.12540 0.91270 -0.23300
C 	C 	0.74360 0.53700 0.28600 0.07500
H 	H 	0.73930 0.50500 0.32310 -0.00900
C 	C 	0.81000 0.59430 0.28090 -0.13000
H 	H 	0.84920 0.60070 0.31380 0.07100
C 	C 	0.81810 0.64220 0.22660 0.06200
C 	C 	0.75940 0.62650 0.18050 -0.12400
H 	H 	0.76350 0.65530 0.14190 0.06600
C 	C 	0.69520 0.56930 0.18980 0.06400
H 	H 	0.65520 0.56120 0.15760 -0.01000
C 	C 	0.88320 0.70780 0.22080 0.01500
C 	C 	0.95610 0.70660 0.25670 -0.07700
H 	H 	0.96490 0.66160 0.28490 0.05300
C 	C 	0.01560 0.76930 0.25200 0.00000
H 	H 	0.06470 0.76720 0.27710 0.02500
C 	C 	0.00440 0.83450 0.21160 -0.07200
H 	H 	0.04600 0.87710 0.20820 0.05600
C 	C 	0.93210 0.83850 0.17540 0.01200
C 	C 	0.87320 0.77500 0.18040 -0.07700
H 	H 	0.82410 0.77740 0.15530 0.05900
C 	C 	0.92340 0.90830 0.13170 0.09500
C 	C 	0.50490 0.62630 0.31980 0.09600
C 	C 	0.56020 0.68840 0.28980 -0.00800
C 	C 	0.54360 0.71870 0.22950 -0.07100
H 	H 	0.49570 0.70000 0.20710 0.05500
C 	C 	0.59920 0.77670 0.20360 -0.00700
H 	H 	0.59020 0.79590 0.16240 0.02800
C 	C 	0.66760 0.80670 0.23700 -0.07500
H 	H 	0.70400 0.84720 0.21880 0.05600
C 	C 	0.68330 0.77810 0.29680 0.01200
C 	C 	0.62890 0.71800 0.32230 -0.07000
H 	H 	0.63960 0.69720 0.36290 0.05000
C 	C 	0.75580 0.80800 0.33350 0.06400
C 	C 	0.78320 0.76530 0.38650 -0.13000
H 	H 	0.76000 0.71190 0.39650 0.06900
C 	C 	0.84340 0.80040 0.42400 0.06400
H 	H 	0.86010 0.77030 0.46000 -0.01600
C 	C 	0.85950 0.91280 0.36020 0.07400
H 	H 	0.88800 0.96330 0.34970 -0.00500
C 	C 	0.79870 0.88310 0.31980 -0.13100
H 	H 	0.78610 0.91330 0.28290 0.07500
N 	N 	0.68670 0.52460 0.24240 -0.22800
N 	N 	0.98780 0.94600 0.10530 -0.12400
N 	N 	0.50690 0.54460 0.31640 -0.20600
N 	N 	0.85100 0.94360 0.11030 -0.11300
N 	N 	0.76890 0.92500 0.13100 -0.20800
H 	H 	0.74140 0.97350 0.14030 0.11000
H 	H 	0.74080 0.89740 0.10020 0.10500
N 	N 	0.62540 0.38000 0.16270 -0.23900
C 	C 	0.25640 0.46300 0.78600 0.07600
H 	H 	0.26070 0.49500 0.82310 -0.00800
C 	C 	0.19000 0.40570 0.78090 -0.13100
H 	H 	0.15080 0.39930 0.81380 0.07300
C 	C 	0.18190 0.35780 0.72660 0.06400
C 	C 	0.24060 0.37350 0.68050 -0.12400
H 	H 	0.23650 0.34470 0.64190 0.06800
C 	C 	0.30480 0.43070 0.68980 0.06500
H 	H 	0.34480 0.43880 0.65760 -0.01000
C 	C 	0.11680 0.29220 0.72080 0.01400
C 	C 	0.04390 0.29340 0.75670 -0.07400
H 	H 	0.03510 0.33840 0.78490 0.05300
C 	C 	0.98440 0.23070 0.75200 -0.00300
H 	H 	0.93530 0.23280 0.77710 0.02500
C 	C 	0.99560 0.16550 0.71160 -0.07400
H 	H 	0.95400 0.12290 0.70820 0.05600
C 	C 	0.06790 0.16150 0.67540 0.01500
C 	C 	0.12680 0.22500 0.68040 -0.07700
H 	H 	0.17590 0.22260 0.65530 0.06000
C 	C 	0.07660 0.09170 0.63170 0.09600
C 	C 	0.49510 0.37370 0.81980 0.09700
C 	C 	0.43980 0.31160 0.78980 -0.00800
C 	C 	0.45640 0.28130 0.72950 -0.07100
H 	H 	0.50430 0.30000 0.70710 0.05500
C 	C 	0.40080 0.22330 0.70360 -0.00800
H 	H 	0.40980 0.20410 0.66240 0.03000
C 	C 	0.33240 0.19330 0.73700 -0.07400
H 	H 	0.29600 0.15280 0.71880 0.05700
C 	C 	0.31670 0.22190 0.79680 0.01200
C 	C 	0.37110 0.28200 0.82230 -0.07000
H 	H 	0.36040 0.30280 0.86290 0.05200
C 	C 	0.24420 0.19200 0.83350 0.06500
C 	C 	0.21680 0.23470 0.88650 -0.12800
H 	H 	0.24000 0.28810 0.89650 0.07100
C 	C 	0.15660 0.19960 0.92400 0.06600
H 	H 	0.13990 0.22970 0.96000 -0.00900
C 	C 	0.14050 0.08720 0.86020 0.07500
H 	H 	0.11200 0.03670 0.84970 -0.00400
C 	C 	0.20130 0.11690 0.81980 -0.13000
H 	H 	0.21390 0.08670 0.78290 0.07500
N 	N 	0.31330 0.47540 0.74240 -0.22800
N 	N 	0.01220 0.05400 0.60530 -0.12300
N 	N 	0.49310 0.45540 0.81640 -0.20600
N 	N 	0.14900 0.05640 0.61030 -0.11100
N 	N 	0.23110 0.07500 0.63100 -0.20900
H 	H 	0.25860 0.02650 0.64030 0.11100
H 	H 	0.25920 0.10260 0.60020 0.10800
N 	N 	0.37460 0.62000 0.66270 -0.23600
C 	C 	0.46300 0.25640 0.21400 0.07500
H 	H 	0.49500 0.26070 0.17690 -0.01000
C 	C 	0.40570 0.19000 0.21910 -0.13000
H 	H 	0.39930 0.15080 0.18620 0.07000
C 	C 	0.35780 0.18190 0.27340 0.06300
C 	C 	0.37350 0.24060 0.31950 -0.12400
H 	H 	0.34470 0.23650 0.35810 0.06800
C 	C 	0.43070 0.30480 0.31020 0.06400
H 	H 	0.43880 0.34480 0.34240 -0.00900
C 	C 	0.29220 0.11680 0.27920 0.01500
C 	C 	0.29340 0.04390 0.24330 -0.07800
H 	H 	0.33840 0.03510 0.21510 0.05200
C 	C 	0.23070 0.98440 0.24800 0.00100
H 	H 	0.23280 0.93530 0.22290 0.02400
C 	C 	0.16550 0.99560 0.28840 -0.07200
H 	H 	0.12290 0.95400 0.29180 0.05600
C 	C 	0.16150 0.06790 0.32460 0.01200
C 	C 	0.22500 0.12680 0.31960 -0.07700
H 	H 	0.22260 0.17590 0.34470 0.06000
C 	C 	0.09170 0.07660 0.36830 0.09600
C 	C 	0.37370 0.49510 0.18020 0.09600
C 	C 	0.31160 0.43980 0.21020 -0.01000
C 	C 	0.28130 0.45640 0.27050 -0.07000
H 	H 	0.30000 0.50430 0.29290 0.05500
C 	C 	0.22330 0.40080 0.29640 -0.00900
H 	H 	0.20410 0.40980 0.33760 0.03000
C 	C 	0.19330 0.33240 0.26300 -0.07300
H 	H 	0.15280 0.29600 0.28120 0.05600
C 	C 	0.22190 0.31670 0.20320 0.01000
C 	C 	0.28200 0.37110 0.17770 -0.06900
H 	H 	0.30280 0.36040 0.13710 0.04700
C 	C 	0.19200 0.24420 0.16650 0.06400
C 	C 	0.23470 0.21680 0.11350 -0.13200
H 	H 	0.28810 0.24000 0.10350 0.06700
C 	C 	0.19960 0.15660 0.07600 0.06300
H 	H 	0.22970 0.13990 0.04000 -0.02200
C 	C 	0.08720 0.14050 0.13980 0.07300
H 	H 	0.03670 0.11200 0.15030 -0.00500
C 	C 	0.11690 0.20130 0.18020 -0.13200
H 	H 	0.08670 0.21390 0.21710 0.07500
N 	N 	0.47540 0.31330 0.25760 -0.22800
N 	N 	0.05400 0.01220 0.39470 -0.12300
N 	N 	0.45540 0.49310 0.18360 -0.20600
N 	N 	0.05640 0.14900 0.38970 -0.11000
N 	N 	0.07500 0.23110 0.36900 -0.20900
H 	H 	0.02650 0.25860 0.35970 0.11100
H 	H 	0.10260 0.25920 0.39980 0.10900
N 	N 	0.62000 0.37460 0.33730 -0.23600
C 	C 	0.53700 0.74360 0.71400 0.07600
H 	H 	0.50500 0.73930 0.67690 -0.00900
C 	C 	0.59430 0.81000 0.71910 -0.13100
H 	H 	0.60070 0.84920 0.68620 0.07100
C 	C 	0.64220 0.81810 0.77340 0.06300
C 	C 	0.62650 0.75940 0.81950 -0.12400
H 	H 	0.65530 0.76350 0.85810 0.06900
C 	C 	0.56930 0.69520 0.81020 0.06500
H 	H 	0.56120 0.65520 0.84240 -0.00900
C 	C 	0.70780 0.88320 0.77920 0.01500
C 	C 	0.70660 0.95610 0.74330 -0.07700
H 	H 	0.66160 0.96490 0.71510 0.05300
C 	C 	0.76930 0.01560 0.74800 -0.00000
H 	H 	0.76720 0.06470 0.72290 0.02500
C 	C 	0.83450 0.00440 0.78840 -0.07200
H 	H 	0.87710 0.04600 0.79180 0.05600
C 	C 	0.83850 0.93210 0.82460 0.01300
C 	C 	0.77500 0.87320 0.81960 -0.07700
H 	H 	0.77740 0.82410 0.84470 0.06100
C 	C 	0.90830 0.92340 0.86830 0.09700
C 	C 	0.62630 0.50490 0.68020 0.09700
C 	C 	0.68840 0.56020 0.71020 -0.00900
C 	C 	0.71870 0.54360 0.77050 -0.06900
H 	H 	0.70000 0.49570 0.79290 0.05500
C 	C 	0.77670 0.59920 0.79640 -0.00900
H 	H 	0.79590 0.59020 0.83760 0.03200
C 	C 	0.80670 0.66760 0.76300 -0.07300
H 	H 	0.84720 0.70400 0.78120 0.05600
C 	C 	0.77810 0.68330 0.70320 0.01000
C 	C 	0.71800 0.62890 0.67770 -0.06900
H 	H 	0.69720 0.63960 0.63710 0.04900
C 	C 	0.80800 0.75580 0.66650 0.06500
C 	C 	0.76530 0.78320 0.61350 -0.13100
H 	H 	0.71190 0.76000 0.60350 0.06900
C 	C 	0.80040 0.84340 0.57600 0.06400
H 	H 	0.77030 0.86010 0.54000 -0.01600
C 	C 	0.91280 0.85950 0.63980 0.07400
H 	H 	0.96330 0.88800 0.65030 -0.00600
C 	C 	0.88310 0.79870 0.68020 -0.13100
H 	H 	0.91330 0.78610 0.71710 0.07500
N 	N 	0.52460 0.68670 0.75760 -0.22800
N 	N 	0.94600 0.98780 0.89470 -0.12300
N 	N 	0.54460 0.50690 0.68360 -0.20600
N 	N 	0.94360 0.85100 0.88970 -0.10900
N 	N 	0.92500 0.76890 0.86900 -0.21000
H 	H 	0.97350 0.74140 0.85970 0.11100
H 	H 	0.89740 0.74080 0.89980 0.11200
N 	N 	0.38000 0.62540 0.83730 -0.23300
C 	C 	0.75640 0.03700 0.46400 0.07500
H 	H 	0.76070 0.00500 0.42690 -0.00900
C 	C 	0.69000 0.09430 0.46910 -0.13000
H 	H 	0.65080 0.10070 0.43620 0.07100
C 	C 	0.68190 0.14220 0.52340 0.06300
C 	C 	0.74060 0.12650 0.56950 -0.12400
H 	H 	0.73650 0.15530 0.60810 0.06800
C 	C 	0.80480 0.06930 0.56020 0.06500
H 	H 	0.84480 0.06120 0.59240 -0.00900
C 	C 	0.61680 0.20780 0.52920 0.01500
C 	C 	0.54390 0.20660 0.49330 -0.07400
H 	H 	0.53510 0.16160 0.46510 0.05200
C 	C 	0.48440 0.26930 0.49800 -0.00200
H 	H 	0.43530 0.26720 0.47290 0.02500
C 	C 	0.49560 0.33450 0.53840 -0.07600
H 	H 	0.45400 0.37710 0.54180 0.05600
C 	C 	0.56790 0.33850 0.57460 0.01600
C 	C 	0.62680 0.27500 0.56960 -0.07800
H 	H 	0.67590 0.27740 0.59470 0.06000
C 	C 	0.57660 0.40830 0.61830 0.09500
C 	C 	0.99510 0.12630 0.43020 0.09900
C 	C 	0.93980 0.18840 0.46020 -0.01000
C 	C 	0.95640 0.21870 0.52050 -0.06700
H 	H 	0.00430 0.20000 0.54290 0.05300
C 	C 	0.90080 0.27670 0.54640 -0.01000
H 	H 	0.90980 0.29590 0.58760 0.03100
C 	C 	0.83240 0.30670 0.51300 -0.07200
H 	H 	0.79600 0.34720 0.53120 0.05600
C 	C 	0.81670 0.27810 0.45320 0.01000
C 	C 	0.87110 0.21800 0.42770 -0.06800
H 	H 	0.86040 0.19720 0.38710 0.04900
C 	C 	0.74420 0.30800 0.41650 0.06500
C 	C 	0.71680 0.26530 0.36350 -0.13100
H 	H 	0.74000 0.21190 0.35350 0.06900
C 	C 	0.65660 0.30040 0.32600 0.06500
H 	H 	0.63990 0.27030 0.29000 -0.01600
C 	C 	0.64050 0.41280 0.38980 0.07400
H 	H 	0.61200 0.46330 0.40030 -0.00400
C 	C 	0.70130 0.38310 0.43020 -0.13100
H 	H 	0.71390 0.41330 0.46710 0.07500
N 	N 	0.81330 0.02460 0.50760 -0.22700
N 	N 	0.51220 0.44600 0.64470 -0.12100
N 	N 	0.99310 0.04460 0.43360 -0.20500
N 	N 	0.64900 0.44360 0.63970 -0.10900
N 	N 	0.73110 0.42500 0.61900 -0.20900
H 	H 	0.75860 0.47350 0.60970 0.11100
H 	H 	0.75920 0.39740 0.64980 0.10900
N 	N 	0.87460 0.88000 0.58730 -0.23700
C 	C 	0.24360 0.96300 0.96400 0.08800
H 	H 	0.23930 0.99500 0.92690 -0.01000
C 	C 	0.31000 0.90570 0.96910 -0.10700
H 	H 	0.34920 0.89930 0.93620 0.06600
C 	C 	0.31810 0.85780 0.02340 0.04000
C 	C 	0.25940 0.87350 0.06950 -0.11600
H 	H 	0.26350 0.84470 0.10810 0.06500
C 	C 	0.19520 0.93070 0.06020 0.05700
H 	H 	0.15520 0.93880 0.09240 -0.00700
C 	C 	0.38320 0.79220 0.02920 0.00600
C 	C 	0.45610 0.79340 0.99330 -0.06600
H 	H 	0.46490 0.83840 0.96510 0.05400
C 	C 	0.51560 0.73070 0.99800 0.03400
H 	H 	0.56470 0.73280 0.97290 0.01800
C 	C 	0.50440 0.66550 0.03840 -0.11500
H 	H 	0.54600 0.62290 0.04180 0.06400
C 	C 	0.43210 0.66150 0.07460 0.02700
C 	C 	0.37320 0.72500 0.06960 -0.08600
H 	H 	0.32410 0.72260 0.09470 0.06200
C 	C 	0.42340 0.59170 0.11830 0.08900
C 	C 	0.00490 0.87370 0.93020 0.09000
C 	C 	0.06020 0.81160 0.96020 0.04200
C 	C 	0.04360 0.78130 0.02050 -0.12800
H 	H 	0.99570 0.80000 0.04290 0.06900
C 	C 	0.09920 0.72330 0.04640 0.04000
H 	H 	0.09020 0.70410 0.08760 0.01300
C 	C 	0.16760 0.69330 0.01300 -0.13900
H 	H 	0.20400 0.65280 0.03120 0.07300
C 	C 	0.18330 0.72190 0.95320 0.06600
C 	C 	0.12890 0.78200 0.92770 -0.10800
H 	H 	0.13960 0.80280 0.88710 0.06300
C 	C 	0.25580 0.69200 0.91650 0.04600
C 	C 	0.28320 0.73470 0.86350 -0.11700
H 	H 	0.26000 0.78810 0.85350 0.06500
C 	C 	0.34340 0.69960 0.82600 0.05900
H 	H 	0.36010 0.72970 0.79000 -0.01400
C 	C 	0.35950 0.58720 0.88980 0.06900
H 	H 	0.38800 0.53670 0.90030 0.00000
C 	C 	0.29870 0.61690 0.93020 -0.11700
H 	H 	0.28610 0.58670 0.96710 0.07800
N 	N 	0.18670 0.97540 0.00760 -0.23800
N 	N 	0.48780 0.55400 0.14470 -0.12100
N 	N 	0.00690 0.95540 0.93360 -0.19700
N 	N 	0.35100 0.55640 0.13970 -0.10900
N 	N 	0.26890 0.57500 0.11900 -0.21000
H 	H 	0.24140 0.52650 0.10970 0.10900
H 	H 	0.24080 0.60260 0.14980 0.10900
N 	N 	0.12540 0.12000 0.08730 -0.23900
Cd	Cd	0.94113 0.94113 0.50000 1.19000
Cd	Cd	0.05887 0.05887 -0.00000 1.18300
Cd	Cd	0.55887 0.44113 0.25000 1.19100
Cd	Cd	0.44113 0.55887 0.75000 1.19100
