data_crystal

_cell_length_a 15.87740
_cell_length_b 15.87740
_cell_length_c 21.47400
_cell_angle_alpha 90.00000
_cell_angle_beta  90.00000
_cell_angle_gamma 90.00000

_symmetry_space_group_name_	'P 1'
_symmetry_space_group_name_H-M	'P 1'

loop_
_symmetry_equiv_pos_as_xyz
  x,y,z

loop_
_atom_site_label
_atom_site_type_symbol
_atom_site_fract_x
_atom_site_fract_y
_atom_site_fract_z
_atom_site_charge
C 	C 	0.03810 0.24360 0.71310 0.07900
H 	H 	0.00800 0.23780 0.67510 -0.01100
C 	C 	0.09390 0.31010 0.71860 -0.14000
H 	H 	0.10040 0.34900 0.68530 0.07300
C 	C 	0.13990 0.32000 0.77240 0.07000
C 	C 	0.12460 0.26260 0.81960 -0.13200
H 	H 	0.15310 0.26760 0.85830 0.07300
C 	C 	0.06760 0.19790 0.81010 0.07300
H 	H 	0.05890 0.15870 0.84300 -0.01000
C 	C 	0.20660 0.38640 0.77890 0.01400
C 	C 	0.20430 0.45970 0.74230 -0.07400
H 	H 	0.15910 0.46850 0.71410 0.05200
C 	C 	0.26720 0.51870 0.74730 -0.00200
H 	H 	0.26490 0.56820 0.72250 0.02500
C 	C 	0.33400 0.50700 0.78780 -0.07700
H 	H 	0.37690 0.54840 0.79130 0.05700
C 	C 	0.33740 0.43400 0.82330 0.01900
C 	C 	0.27340 0.37540 0.81940 -0.07900
H 	H 	0.27520 0.32670 0.84500 0.06200
C 	C 	0.40740 0.42580 0.86720 0.09500
C 	C 	0.50380 0.37470 0.93020 0.08100
C 	C 	0.55920 0.31240 0.96040 0.05300
C 	C 	0.54080 0.28100 0.01940 -0.14400
H 	H 	0.49220 0.29920 0.04140 0.07500
C 	C 	0.59560 0.22240 0.04530 0.05200
H 	H 	0.58550 0.20230 0.08630 0.00900
C 	C 	0.66390 0.19290 0.01310 -0.14500
H 	H 	0.69940 0.15170 0.03150 0.07500
C 	C 	0.68180 0.22280 0.95300 0.06900
C 	C 	0.62760 0.28340 0.92830 -0.11600
H 	H 	0.63870 0.30520 0.88790 0.06500
C 	C 	0.75390 0.19250 0.91610 0.04400
C 	C 	0.79820 0.11850 0.93040 -0.11900
H 	H 	0.78580 0.08850 0.96750 0.07700
C 	C 	0.85970 0.08930 0.89060 0.07100
H 	H 	0.88920 0.03960 0.90200 -0.00200
C 	C 	0.84330 0.20120 0.82620 0.05600
H 	H 	0.86060 0.23170 0.79040 -0.01300
C 	C 	0.78240 0.23560 0.86350 -0.11600
H 	H 	0.75930 0.28910 0.85350 0.06400
N 	N 	0.02410 0.18740 0.75760 -0.23000
N 	N 	0.44530 0.48990 0.89415 -0.12000
N 	N 	0.50650 0.45690 0.93350 -0.19900
N 	N 	0.44300 0.35250 0.88863 -0.10400
N 	N 	0.42350 0.27110 0.86760 -0.21000
H 	H 	0.47210 0.24390 0.85730 0.11200
H 	H 	0.39680 0.24230 0.89850 0.11300
N 	N 	0.88000 0.12640 0.83760 -0.23400
C 	C 	0.96190 0.75640 0.21310 0.08000
H 	H 	0.99200 0.76220 0.17510 -0.01100
C 	C 	0.90610 0.68990 0.21860 -0.13900
H 	H 	0.89960 0.65100 0.18530 0.07300
C 	C 	0.86010 0.68000 0.27240 0.07100
C 	C 	0.87540 0.73740 0.31960 -0.13200
H 	H 	0.84690 0.73240 0.35830 0.07100
C 	C 	0.93240 0.80210 0.31010 0.07200
H 	H 	0.94110 0.84130 0.34300 -0.01000
C 	C 	0.79340 0.61360 0.27890 0.01300
C 	C 	0.79570 0.54030 0.24230 -0.07400
H 	H 	0.84090 0.53150 0.21410 0.05100
C 	C 	0.73280 0.48130 0.24730 -0.00200
H 	H 	0.73510 0.43180 0.22250 0.02500
C 	C 	0.66600 0.49300 0.28780 -0.07700
H 	H 	0.62310 0.45160 0.29130 0.05700
C 	C 	0.66260 0.56600 0.32330 0.01800
C 	C 	0.72660 0.62460 0.31940 -0.07900
H 	H 	0.72480 0.67330 0.34500 0.06000
C 	C 	0.59260 0.57420 0.36720 0.09400
C 	C 	0.49620 0.62530 0.43020 0.09400
C 	C 	0.44080 0.68760 0.46040 -0.00600
C 	C 	0.45920 0.71900 0.51940 -0.07300
H 	H 	0.50780 0.70080 0.54140 0.05600
C 	C 	0.40440 0.77760 0.54530 -0.00500
H 	H 	0.41450 0.79770 0.58630 0.02900
C 	C 	0.33610 0.80710 0.51310 -0.07500
H 	H 	0.30060 0.84830 0.53150 0.05600
C 	C 	0.31820 0.77720 0.45300 0.01100
C 	C 	0.37240 0.71660 0.42830 -0.07100
H 	H 	0.36130 0.69480 0.38790 0.05000
C 	C 	0.24610 0.80750 0.41610 0.06600
C 	C 	0.20180 0.88150 0.43040 -0.13400
H 	H 	0.21420 0.91150 0.46750 0.07600
C 	C 	0.14030 0.91070 0.39060 0.07700
H 	H 	0.11080 0.96040 0.40200 -0.00600
C 	C 	0.15670 0.79880 0.32620 0.06300
H 	H 	0.13940 0.76830 0.29040 -0.01500
C 	C 	0.21760 0.76440 0.36350 -0.13100
H 	H 	0.24070 0.71090 0.35350 0.06900
N 	N 	0.97590 0.81260 0.25760 -0.23000
N 	N 	0.55470 0.51010 0.39415 -0.12100
N 	N 	0.49350 0.54310 0.43350 -0.20700
N 	N 	0.55700 0.64750 0.38863 -0.10700
N 	N 	0.57650 0.72890 0.36760 -0.20900
H 	H 	0.52790 0.75610 0.35730 0.11000
H 	H 	0.60320 0.75770 0.39850 0.10900
N 	N 	0.12000 0.87360 0.33760 -0.23700
C 	C 	0.25640 0.53810 0.46310 0.08000
H 	H 	0.26220 0.50800 0.42510 -0.01100
C 	C 	0.18990 0.59390 0.46860 -0.13900
H 	H 	0.15100 0.60040 0.43530 0.07400
C 	C 	0.18000 0.63990 0.52240 0.07100
C 	C 	0.23740 0.62460 0.56960 -0.13200
H 	H 	0.23240 0.65310 0.60830 0.07100
C 	C 	0.30210 0.56760 0.56010 0.07200
H 	H 	0.34130 0.55890 0.59300 -0.01100
C 	C 	0.11360 0.70660 0.52890 0.01300
C 	C 	0.04030 0.70430 0.49230 -0.07600
H 	H 	0.03150 0.65910 0.46410 0.05300
C 	C 	0.98130 0.76720 0.49730 -0.00100
H 	H 	0.93180 0.76490 0.47250 0.02500
C 	C 	0.99300 0.83400 0.53780 -0.07400
H 	H 	0.95160 0.87690 0.54130 0.05700
C 	C 	0.06600 0.83740 0.57330 0.01500
C 	C 	0.12460 0.77340 0.56940 -0.07800
H 	H 	0.17330 0.77520 0.59500 0.06000
C 	C 	0.07420 0.90740 0.61720 0.09400
C 	C 	0.12530 0.00380 0.68020 0.09600
C 	C 	0.18760 0.05920 0.71040 -0.00800
C 	C 	0.21900 0.04080 0.76940 -0.06800
H 	H 	0.20080 0.99220 0.79140 0.05300
C 	C 	0.27760 0.09560 0.79530 -0.00900
H 	H 	0.29770 0.08550 0.83630 0.03200
C 	C 	0.30710 0.16390 0.76310 -0.07200
H 	H 	0.34830 0.19940 0.78150 0.05600
C 	C 	0.27720 0.18180 0.70300 0.00900
C 	C 	0.21660 0.12760 0.67830 -0.06900
H 	H 	0.19480 0.13870 0.63790 0.05000
C 	C 	0.30750 0.25390 0.66610 0.06700
C 	C 	0.38150 0.29820 0.68040 -0.13500
H 	H 	0.41150 0.28580 0.71750 0.07700
C 	C 	0.41070 0.35970 0.64060 0.07800
H 	H 	0.46040 0.38920 0.65200 -0.00500
C 	C 	0.29880 0.34330 0.57620 0.06300
H 	H 	0.26830 0.36060 0.54040 -0.01500
C 	C 	0.26440 0.28240 0.61350 -0.13100
H 	H 	0.21090 0.25930 0.60350 0.07000
N 	N 	0.31260 0.52410 0.50760 -0.23100
N 	N 	0.01010 0.94530 0.64415 -0.12300
N 	N 	0.04310 0.00650 0.68350 -0.20600
N 	N 	0.14750 0.94300 0.63863 -0.10800
N 	N 	0.22890 0.92350 0.61760 -0.20900
H 	H 	0.25610 0.97210 0.60730 0.11000
H 	H 	0.25770 0.89680 0.64850 0.10900
N 	N 	0.37360 0.38000 0.58760 -0.23600
C 	C 	0.74360 0.46190 0.96310 0.09200
H 	H 	0.73780 0.49200 0.92510 -0.01200
C 	C 	0.81010 0.40610 0.96860 -0.11200
H 	H 	0.84900 0.39960 0.93530 0.06800
C 	C 	0.82000 0.36010 0.02240 0.04300
C 	C 	0.76260 0.37540 0.06960 -0.12300
H 	H 	0.76760 0.34690 0.10830 0.06700
C 	C 	0.69790 0.43240 0.06010 0.06300
H 	H 	0.65870 0.44110 0.09300 -0.00900
C 	C 	0.88640 0.29340 0.02890 0.00800
C 	C 	0.95970 0.29570 0.99230 -0.07400
H 	H 	0.96850 0.34090 0.96410 0.05600
C 	C 	0.01870 0.23280 0.99730 0.04000
H 	H 	0.06820 0.23510 0.97250 0.01600
C 	C 	0.00700 0.16600 0.03780 -0.11700
H 	H 	0.04840 0.12310 0.04130 0.06500
C 	C 	0.93400 0.16260 0.07330 0.02900
C 	C 	0.87540 0.22660 0.06940 -0.08900
H 	H 	0.82670 0.22480 0.09500 0.06300
C 	C 	0.92580 0.09260 0.11720 0.08700
C 	C 	0.87470 0.99620 0.18020 0.09600
C 	C 	0.81240 0.94080 0.21040 -0.00900
C 	C 	0.78100 0.95920 0.26940 -0.06700
H 	H 	0.79920 0.00780 0.29140 0.05300
C 	C 	0.72240 0.90440 0.29530 -0.00900
H 	H 	0.70230 0.91450 0.33630 0.03100
C 	C 	0.69290 0.83610 0.26310 -0.07200
H 	H 	0.65170 0.80060 0.28150 0.05500
C 	C 	0.72280 0.81820 0.20300 0.00800
C 	C 	0.78340 0.87240 0.17830 -0.06800
H 	H 	0.80520 0.86130 0.13790 0.04800
C 	C 	0.69250 0.74610 0.16610 0.06600
C 	C 	0.61850 0.70180 0.18040 -0.13500
H 	H 	0.58850 0.71420 0.21750 0.07700
C 	C 	0.58930 0.64030 0.14060 0.07700
H 	H 	0.53960 0.61080 0.15200 -0.00500
C 	C 	0.70120 0.65670 0.07620 0.06200
H 	H 	0.73170 0.63940 0.04040 -0.02000
C 	C 	0.73560 0.71760 0.11350 -0.13300
H 	H 	0.78910 0.74070 0.10350 0.06800
N 	N 	0.68740 0.47590 0.00760 -0.24200
N 	N 	0.98990 0.05470 0.14415 -0.12200
N 	N 	0.95690 0.99350 0.18350 -0.20600
N 	N 	0.85250 0.05700 0.13863 -0.10800
N 	N 	0.77110 0.07650 0.11760 -0.21000
H 	H 	0.74390 0.02790 0.10730 0.10800
H 	H 	0.74230 0.10320 0.14850 0.10900
N 	N 	0.62640 0.62000 0.08760 -0.23800
C 	C 	0.46190 0.74360 0.03690 0.06600
H 	H 	0.49200 0.73780 0.07490 -0.00900
C 	C 	0.40610 0.81010 0.03140 -0.16600
H 	H 	0.39960 0.84900 0.06470 0.08000
C 	C 	0.36010 0.82000 0.97760 0.09700
C 	C 	0.37540 0.76260 0.93040 -0.14000
H 	H 	0.34690 0.76760 0.89170 0.07400
C 	C 	0.43240 0.69790 0.93990 0.08100
H 	H 	0.44110 0.65870 0.90700 -0.01300
C 	C 	0.29340 0.88640 0.97110 0.03000
C 	C 	0.29570 0.95970 0.00770 -0.09600
H 	H 	0.34090 0.96850 0.03590 0.05400
C 	C 	0.23280 0.01870 0.00270 -0.02400
H 	H 	0.23510 0.06820 0.02750 0.02800
C 	C 	0.16600 0.00700 0.96220 -0.04500
H 	H 	0.12310 0.04840 0.95870 0.05200
C 	C 	0.16260 0.93400 0.92670 0.01200
C 	C 	0.22660 0.87540 0.93060 -0.07600
H 	H 	0.22480 0.82670 0.90500 0.06000
C 	C 	0.09260 0.92580 0.88280 0.09800
C 	C 	0.99620 0.87470 0.81980 0.09700
C 	C 	0.94080 0.81240 0.78960 -0.00700
C 	C 	0.95920 0.78100 0.73060 -0.06800
H 	H 	0.00780 0.79920 0.70860 0.05300
C 	C 	0.90440 0.72240 0.70470 -0.00800
H 	H 	0.91450 0.70230 0.66370 0.03000
C 	C 	0.83610 0.69290 0.73690 -0.07300
H 	H 	0.80060 0.65170 0.71850 0.05600
C 	C 	0.81820 0.72280 0.79700 0.01000
C 	C 	0.87240 0.78340 0.82170 -0.07000
H 	H 	0.86130 0.80520 0.86210 0.05200
C 	C 	0.74610 0.69250 0.83390 0.06700
C 	C 	0.70180 0.61850 0.81960 -0.13400
H 	H 	0.71420 0.58850 0.78250 0.07700
C 	C 	0.64030 0.58930 0.85940 0.07900
H 	H 	0.61080 0.53960 0.84800 -0.00400
C 	C 	0.65670 0.70120 0.92380 0.06400
H 	H 	0.63940 0.73170 0.95960 -0.00800
C 	C 	0.71760 0.73560 0.88650 -0.12900
H 	H 	0.74070 0.78910 0.89650 0.07200
N 	N 	0.47590 0.68740 0.99240 -0.21700
N 	N 	0.05470 0.98990 0.85585 -0.12200
N 	N 	0.99350 0.95690 0.81650 -0.20500
N 	N 	0.05700 0.85250 0.86137 -0.10800
N 	N 	0.07650 0.77110 0.88240 -0.20800
H 	H 	0.02790 0.74390 0.89270 0.11300
H 	H 	0.10320 0.74230 0.85150 0.10900
N 	N 	0.62000 0.62640 0.91240 -0.23300
C 	C 	0.53810 0.25640 0.53690 0.08000
H 	H 	0.50800 0.26220 0.57490 -0.01100
C 	C 	0.59390 0.18990 0.53140 -0.13900
H 	H 	0.60040 0.15100 0.56470 0.07400
C 	C 	0.63990 0.18000 0.47760 0.07000
C 	C 	0.62460 0.23740 0.43040 -0.13200
H 	H 	0.65310 0.23240 0.39170 0.07100
C 	C 	0.56760 0.30210 0.43990 0.07200
H 	H 	0.55890 0.34130 0.40700 -0.01100
C 	C 	0.70660 0.11360 0.47110 0.01400
C 	C 	0.70430 0.04030 0.50770 -0.07700
H 	H 	0.65910 0.03150 0.53590 0.05300
C 	C 	0.76720 0.98130 0.50270 -0.00000
H 	H 	0.76490 0.93180 0.52750 0.02500
C 	C 	0.83400 0.99300 0.46220 -0.07400
H 	H 	0.87690 0.95160 0.45870 0.05700
C 	C 	0.83740 0.06600 0.42670 0.01500
C 	C 	0.77340 0.12460 0.43060 -0.07800
H 	H 	0.77520 0.17330 0.40500 0.06000
C 	C 	0.90740 0.07420 0.38280 0.09400
C 	C 	0.00380 0.12530 0.31980 0.09700
C 	C 	0.05920 0.18760 0.28960 -0.00800
C 	C 	0.04080 0.21900 0.23060 -0.06900
H 	H 	0.99220 0.20080 0.20860 0.05300
C 	C 	0.09560 0.27760 0.20470 -0.00800
H 	H 	0.08550 0.29770 0.16370 0.02800
C 	C 	0.16390 0.30710 0.23690 -0.07300
H 	H 	0.19940 0.34830 0.21850 0.05500
C 	C 	0.18180 0.27720 0.29700 0.01000
C 	C 	0.12760 0.21660 0.32170 -0.06900
H 	H 	0.13870 0.19480 0.36210 0.05000
C 	C 	0.25390 0.30750 0.33390 0.06600
C 	C 	0.29820 0.38150 0.31960 -0.13400
H 	H 	0.28580 0.41150 0.28250 0.07700
C 	C 	0.35970 0.41070 0.35940 0.07800
H 	H 	0.38920 0.46040 0.34800 -0.00500
C 	C 	0.34330 0.29880 0.42380 0.06300
H 	H 	0.36060 0.26830 0.45960 -0.01500
C 	C 	0.28240 0.26440 0.38650 -0.13100
H 	H 	0.25930 0.21090 0.39650 0.07000
N 	N 	0.52410 0.31260 0.49240 -0.23000
N 	N 	0.94530 0.01010 0.35585 -0.12300
N 	N 	0.00650 0.04310 0.31650 -0.20500
N 	N 	0.94300 0.14750 0.36137 -0.10900
N 	N 	0.92350 0.22890 0.38240 -0.20900
H 	H 	0.97210 0.25610 0.39270 0.11000
H 	H 	0.89680 0.25770 0.35150 0.10900
N 	N 	0.38000 0.37360 0.41240 -0.23600
C 	C 	0.24360 0.03810 0.28690 0.08000
H 	H 	0.23780 0.00800 0.32490 -0.01000
C 	C 	0.31010 0.09390 0.28140 -0.13900
H 	H 	0.34900 0.10040 0.31470 0.07400
C 	C 	0.32000 0.13990 0.22760 0.07000
C 	C 	0.26260 0.12460 0.18040 -0.13200
H 	H 	0.26760 0.15310 0.14170 0.06900
C 	C 	0.19790 0.06760 0.18990 0.07200
H 	H 	0.15870 0.05890 0.15700 -0.01100
C 	C 	0.38640 0.20660 0.22110 0.01300
C 	C 	0.45970 0.20430 0.25770 -0.07400
H 	H 	0.46850 0.15910 0.28590 0.05200
C 	C 	0.51870 0.26720 0.25270 -0.00200
H 	H 	0.56820 0.26490 0.27750 0.02500
C 	C 	0.50700 0.33400 0.21220 -0.07700
H 	H 	0.54840 0.37690 0.20870 0.05700
C 	C 	0.43400 0.33740 0.17670 0.01800
C 	C 	0.37540 0.27340 0.18060 -0.07900
H 	H 	0.32670 0.27520 0.15500 0.05900
C 	C 	0.42580 0.40740 0.13280 0.09200
C 	C 	0.37470 0.50380 0.06980 0.10800
C 	C 	0.31240 0.55920 0.03960 -0.06900
C 	C 	0.28100 0.54080 0.98060 0.00400
H 	H 	0.29920 0.49220 0.95860 0.03500
C 	C 	0.22240 0.59560 0.95470 -0.06800
H 	H 	0.20230 0.58550 0.91370 0.05100
C 	C 	0.19290 0.66390 0.98690 0.00300
H 	H 	0.15170 0.69940 0.96850 0.03600
C 	C 	0.22280 0.68180 0.04700 -0.05400
C 	C 	0.28340 0.62760 0.07170 -0.02200
H 	H 	0.30520 0.63870 0.11210 0.03300
C 	C 	0.19250 0.75390 0.08390 0.08900
C 	C 	0.11850 0.79820 0.06960 -0.15200
H 	H 	0.08850 0.78580 0.03250 0.07500
C 	C 	0.08930 0.85970 0.10940 0.08400
H 	H 	0.03960 0.88920 0.09800 -0.01100
C 	C 	0.20120 0.84330 0.17380 0.07000
H 	H 	0.23170 0.86060 0.20960 -0.01800
C 	C 	0.23560 0.78240 0.13650 -0.14700
H 	H 	0.28910 0.75930 0.14650 0.07500
N 	N 	0.18740 0.02410 0.24240 -0.23000
N 	N 	0.48990 0.44530 0.10585 -0.12200
N 	N 	0.45690 0.50650 0.06650 -0.21300
N 	N 	0.35250 0.44300 0.11137 -0.11100
N 	N 	0.27110 0.42350 0.13240 -0.20800
H 	H 	0.24390 0.47210 0.14270 0.10900
H 	H 	0.24230 0.39680 0.10150 0.10500
N 	N 	0.12640 0.88000 0.16240 -0.24000
C 	C 	0.75640 0.96190 0.78690 0.08000
H 	H 	0.76220 0.99200 0.82490 -0.00900
C 	C 	0.68990 0.90610 0.78140 -0.13900
H 	H 	0.65100 0.89960 0.81470 0.07500
C 	C 	0.68000 0.86010 0.72760 0.07100
C 	C 	0.73740 0.87540 0.68040 -0.13200
H 	H 	0.73240 0.84690 0.64170 0.07100
C 	C 	0.80210 0.93240 0.68990 0.07200
H 	H 	0.84130 0.94110 0.65700 -0.01000
C 	C 	0.61360 0.79340 0.72110 0.01400
C 	C 	0.54030 0.79570 0.75770 -0.07500
H 	H 	0.53150 0.84090 0.78590 0.05300
C 	C 	0.48130 0.73280 0.75270 -0.00200
H 	H 	0.43180 0.73510 0.77750 0.02500
C 	C 	0.49300 0.66600 0.71220 -0.07700
H 	H 	0.45160 0.62310 0.70870 0.05700
C 	C 	0.56600 0.66260 0.67670 0.01800
C 	C 	0.62460 0.72660 0.68060 -0.07900
H 	H 	0.67330 0.72480 0.65500 0.06100
C 	C 	0.57420 0.59260 0.63280 0.09300
C 	C 	0.62530 0.49620 0.56980 0.09400
C 	C 	0.68760 0.44080 0.53960 -0.00600
C 	C 	0.71900 0.45920 0.48060 -0.07300
H 	H 	0.70080 0.50780 0.45860 0.05600
C 	C 	0.77760 0.40440 0.45470 -0.00500
H 	H 	0.79770 0.41450 0.41370 0.02900
C 	C 	0.80710 0.33610 0.48690 -0.07500
H 	H 	0.84830 0.30060 0.46850 0.05600
C 	C 	0.77720 0.31820 0.54700 0.01100
C 	C 	0.71660 0.37240 0.57170 -0.07100
H 	H 	0.69480 0.36130 0.61210 0.05000
C 	C 	0.80750 0.24610 0.58390 0.06600
C 	C 	0.88150 0.20180 0.56960 -0.13400
H 	H 	0.91150 0.21420 0.53250 0.07600
C 	C 	0.91070 0.14030 0.60940 0.07700
H 	H 	0.96040 0.11080 0.59800 -0.00600
C 	C 	0.79880 0.15670 0.67380 0.06300
H 	H 	0.76830 0.13940 0.70960 -0.01500
C 	C 	0.76440 0.21760 0.63650 -0.13100
H 	H 	0.71090 0.24070 0.64650 0.06900
N 	N 	0.81260 0.97590 0.74240 -0.22900
N 	N 	0.51010 0.55470 0.60585 -0.12100
N 	N 	0.54310 0.49350 0.56650 -0.20700
N 	N 	0.64750 0.55700 0.61137 -0.10700
N 	N 	0.72890 0.57650 0.63240 -0.20900
H 	H 	0.75610 0.52790 0.64270 0.11000
H 	H 	0.75770 0.60320 0.60150 0.10900
N 	N 	0.87360 0.12000 0.66240 -0.23700
Cd	Cd	0.94079 0.05921 0.75000 1.19000
Cd	Cd	0.05921 0.94079 0.25000 1.19000
Cd	Cd	0.44079 0.44079 0.50000 1.19200
Cd	Cd	0.55921 0.55921 -0.00000 1.18500
