data_crystal

_cell_length_a 15.86980
_cell_length_b 15.86980
_cell_length_c 21.64100
_cell_angle_alpha 90.00000
_cell_angle_beta  90.00000
_cell_angle_gamma 90.00000

_symmetry_space_group_name_	'P 1'
_symmetry_space_group_name_H-M	'P 1'

loop_
_symmetry_equiv_pos_as_xyz
  x,y,z

loop_
_atom_site_label
_atom_site_type_symbol
_atom_site_fract_x
_atom_site_fract_y
_atom_site_fract_z
_atom_site_charge
C 	C 	0.46290 0.74580 0.03580 0.07000
H 	H 	0.49260 0.74050 0.07260 -0.01200
C 	C 	0.40700 0.81260 0.03030 -0.17700
H 	H 	0.40110 0.85100 0.06240 0.08500
C 	C 	0.36010 0.82180 0.97680 0.10000
C 	C 	0.37630 0.76360 0.93030 -0.15300
H 	H 	0.34840 0.76790 0.89270 0.08000
C 	C 	0.43370 0.69930 0.93990 0.09200
H 	H 	0.44260 0.66110 0.90800 -0.01700
C 	C 	0.29360 0.88790 0.97060 0.03600
C 	C 	0.29420 0.95900 0.00740 -0.10700
H 	H 	0.33750 0.96690 0.03580 0.05900
C 	C 	0.23110 0.01850 0.00240 -0.01600
H 	H 	0.23320 0.06700 0.02640 0.02600
C 	C 	0.16500 0.00640 0.96210 -0.05500
H 	H 	0.12220 0.04630 0.95930 0.05700
C 	C 	0.16220 0.93420 0.92550 0.01800
C 	C 	0.22640 0.87580 0.93000 -0.08600
H 	H 	0.22480 0.82760 0.90560 0.06600
C 	C 	0.09200 0.92600 0.88171 0.09600
C 	C 	0.99580 0.87520 0.81976 0.09300
C 	C 	0.94040 0.81320 0.78924 -0.00200
C 	C 	0.95670 0.78230 0.73000 -0.07800
H 	H 	0.00410 0.80000 0.70830 0.05700
C 	C 	0.90160 0.72540 0.70410 -0.00000
H 	H 	0.91120 0.70620 0.66410 0.02800
C 	C 	0.83240 0.69620 0.73630 -0.08300
H 	H 	0.79650 0.65690 0.71820 0.06000
C 	C 	0.81610 0.72540 0.79600 0.01600
C 	C 	0.87040 0.78410 0.82140 -0.07900
H 	H 	0.85980 0.80470 0.86090 0.05600
C 	C 	0.74370 0.69340 0.83350 0.07400
C 	C 	0.71630 0.73700 0.88550 -0.14500
H 	H 	0.73830 0.78990 0.89460 0.07900
C 	C 	0.65720 0.70200 0.92300 0.07400
H 	H 	0.64120 0.73190 0.95800 -0.01200
C 	C 	0.64120 0.58830 0.85980 0.08200
H 	H 	0.61350 0.53870 0.84940 -0.00600
C 	C 	0.70150 0.61830 0.81980 -0.14500
H 	H 	0.71420 0.58880 0.78390 0.08200
N 	N 	0.05370 0.98990 0.85555 -0.12100
N 	N 	0.99330 0.95770 0.81631 -0.20400
N 	N 	0.05710 0.85290 0.86048 -0.10700
N 	N 	0.07720 0.77090 0.88030 -0.22100
H 	H 	0.09650 0.74140 0.84830 0.11700
H 	H 	0.03120 0.74610 0.89530 0.12000
N 	N 	0.47670 0.68870 0.99175 -0.22000
N 	N 	0.62010 0.62650 0.91276 -0.23400
C 	C 	0.53710 0.25420 0.53580 0.08400
H 	H 	0.50740 0.25950 0.57260 -0.01300
C 	C 	0.59300 0.18740 0.53030 -0.14900
H 	H 	0.59890 0.14900 0.56240 0.07900
C 	C 	0.63990 0.17820 0.47680 0.07500
C 	C 	0.62370 0.23640 0.43030 -0.14500
H 	H 	0.65160 0.23210 0.39270 0.07800
C 	C 	0.56630 0.30070 0.43990 0.08300
H 	H 	0.55740 0.33890 0.40800 -0.01600
C 	C 	0.70640 0.11210 0.47060 0.01900
C 	C 	0.70580 0.04100 0.50740 -0.08700
H 	H 	0.66250 0.03310 0.53580 0.05700
C 	C 	0.76890 0.98150 0.50240 0.00800
H 	H 	0.76680 0.93300 0.52640 0.02200
C 	C 	0.83500 0.99360 0.46210 -0.08500
H 	H 	0.87780 0.95370 0.45930 0.06200
C 	C 	0.83780 0.06580 0.42550 0.02200
C 	C 	0.77360 0.12420 0.43000 -0.08900
H 	H 	0.77520 0.17240 0.40560 0.06600
C 	C 	0.90800 0.07400 0.38171 0.09200
C 	C 	0.00420 0.12480 0.31976 0.09300
C 	C 	0.05960 0.18680 0.28924 -0.00200
C 	C 	0.04330 0.21770 0.23000 -0.07900
H 	H 	0.99590 0.20000 0.20830 0.05700
C 	C 	0.09840 0.27460 0.20410 -0.00000
H 	H 	0.08880 0.29380 0.16410 0.02600
C 	C 	0.16760 0.30380 0.23630 -0.08400
H 	H 	0.20350 0.34310 0.21820 0.06000
C 	C 	0.18390 0.27460 0.29600 0.01500
C 	C 	0.12960 0.21590 0.32140 -0.07900
H 	H 	0.14020 0.19530 0.36090 0.05400
C 	C 	0.25630 0.30660 0.33350 0.07400
C 	C 	0.28370 0.26300 0.38550 -0.14700
H 	H 	0.26170 0.21010 0.39460 0.07700
C 	C 	0.34280 0.29800 0.42300 0.07300
H 	H 	0.35880 0.26810 0.45800 -0.01800
C 	C 	0.35880 0.41170 0.35980 0.08100
H 	H 	0.38650 0.46130 0.34940 -0.00700
C 	C 	0.29850 0.38170 0.31980 -0.14600
H 	H 	0.28580 0.41120 0.28390 0.08200
N 	N 	0.94630 0.01010 0.35555 -0.12200
N 	N 	0.00670 0.04230 0.31631 -0.20400
N 	N 	0.94290 0.14710 0.36048 -0.10800
N 	N 	0.92280 0.22910 0.38030 -0.22200
H 	H 	0.90350 0.25860 0.34830 0.11700
H 	H 	0.96880 0.25390 0.39530 0.11700
N 	N 	0.52330 0.31130 0.49175 -0.23300
N 	N 	0.37990 0.37350 0.41276 -0.23800
C 	C 	0.75420 0.96290 0.78580 0.08500
H 	H 	0.75950 0.99260 0.82260 -0.01100
C 	C 	0.68740 0.90700 0.78030 -0.14900
H 	H 	0.64900 0.90110 0.81240 0.08100
C 	C 	0.67820 0.86010 0.72680 0.07500
C 	C 	0.73640 0.87630 0.68030 -0.14500
H 	H 	0.73210 0.84840 0.64270 0.07800
C 	C 	0.80070 0.93370 0.68990 0.08300
H 	H 	0.83890 0.94260 0.65800 -0.01500
C 	C 	0.61210 0.79360 0.72060 0.01900
C 	C 	0.54100 0.79420 0.75740 -0.08500
H 	H 	0.53310 0.83750 0.78580 0.05800
C 	C 	0.48150 0.73110 0.75240 0.00700
H 	H 	0.43300 0.73320 0.77640 0.02200
C 	C 	0.49360 0.66500 0.71210 -0.08800
H 	H 	0.45370 0.62220 0.70930 0.06200
C 	C 	0.56580 0.66220 0.67550 0.02500
C 	C 	0.62420 0.72640 0.68000 -0.08900
H 	H 	0.67240 0.72480 0.65560 0.06600
C 	C 	0.57400 0.59200 0.63171 0.09200
C 	C 	0.62480 0.49580 0.56976 0.09000
C 	C 	0.68680 0.44040 0.53924 0.00000
C 	C 	0.71770 0.45670 0.48000 -0.08500
H 	H 	0.70000 0.50410 0.45830 0.06100
C 	C 	0.77460 0.40160 0.45410 0.00300
H 	H 	0.79380 0.41120 0.41410 0.02700
C 	C 	0.80380 0.33240 0.48630 -0.08600
H 	H 	0.84310 0.29650 0.46820 0.06100
C 	C 	0.77460 0.31610 0.54600 0.01700
C 	C 	0.71590 0.37040 0.57140 -0.08100
H 	H 	0.69530 0.35980 0.61090 0.05400
C 	C 	0.80660 0.24370 0.58350 0.07300
C 	C 	0.76300 0.21630 0.63550 -0.14600
H 	H 	0.71010 0.23830 0.64460 0.07600
C 	C 	0.79800 0.15720 0.67300 0.07200
H 	H 	0.76810 0.14120 0.70800 -0.01900
C 	C 	0.91170 0.14120 0.60980 0.08000
H 	H 	0.96130 0.11350 0.59940 -0.00800
C 	C 	0.88170 0.20150 0.56980 -0.14600
H 	H 	0.91120 0.21420 0.53390 0.08100
N 	N 	0.51010 0.55370 0.60555 -0.12000
N 	N 	0.54230 0.49330 0.56631 -0.20500
N 	N 	0.64710 0.55710 0.61048 -0.10600
N 	N 	0.72910 0.57720 0.63030 -0.22200
H 	H 	0.75860 0.59650 0.59830 0.11700
H 	H 	0.75390 0.53120 0.64530 0.11700
N 	N 	0.81130 0.97670 0.74175 -0.23200
N 	N 	0.87350 0.12010 0.66276 -0.23800
C 	C 	0.24580 0.03710 0.28580 0.08400
H 	H 	0.24050 0.00740 0.32260 -0.01200
C 	C 	0.31260 0.09300 0.28030 -0.14900
H 	H 	0.35100 0.09890 0.31240 0.08000
C 	C 	0.32180 0.13990 0.22680 0.07500
C 	C 	0.26360 0.12370 0.18030 -0.14500
H 	H 	0.26790 0.15160 0.14270 0.07600
C 	C 	0.19930 0.06630 0.18990 0.08300
H 	H 	0.16110 0.05740 0.15800 -0.01600
C 	C 	0.38790 0.20640 0.22060 0.01800
C 	C 	0.45900 0.20580 0.25740 -0.08400
H 	H 	0.46690 0.16250 0.28580 0.05700
C 	C 	0.51850 0.26890 0.25240 0.00600
H 	H 	0.56700 0.26680 0.27640 0.02200
C 	C 	0.50640 0.33500 0.21210 -0.08700
H 	H 	0.54630 0.37780 0.20930 0.06200
C 	C 	0.43420 0.33780 0.17550 0.02500
C 	C 	0.37580 0.27360 0.18000 -0.08900
H 	H 	0.32760 0.27520 0.15560 0.06500
C 	C 	0.42600 0.40800 0.13171 0.09000
C 	C 	0.37520 0.50420 0.06976 0.10600
C 	C 	0.31320 0.55960 0.03924 -0.06600
C 	C 	0.28230 0.54330 0.98000 0.00200
H 	H 	0.30000 0.49590 0.95830 0.03600
C 	C 	0.22540 0.59840 0.95410 -0.07100
H 	H 	0.20620 0.58880 0.91410 0.05400
C 	C 	0.19620 0.66760 0.98630 0.00200
H 	H 	0.15690 0.70350 0.96820 0.03600
C 	C 	0.22540 0.68390 0.04600 -0.05300
C 	C 	0.28410 0.62960 0.07140 -0.02600
H 	H 	0.30470 0.64020 0.11090 0.03500
C 	C 	0.19340 0.75630 0.08350 0.09900
C 	C 	0.23700 0.78370 0.13550 -0.16500
H 	H 	0.28990 0.76170 0.14460 0.08400
C 	C 	0.20200 0.84280 0.17300 0.08200
H 	H 	0.23190 0.85880 0.20800 -0.02200
C 	C 	0.08830 0.85880 0.10980 0.08900
H 	H 	0.03870 0.88650 0.09940 -0.01300
C 	C 	0.11830 0.79850 0.06980 -0.16600
H 	H 	0.08880 0.78580 0.03390 0.08200
N 	N 	0.48990 0.44630 0.10555 -0.12100
N 	N 	0.45770 0.50670 0.06631 -0.21200
N 	N 	0.35290 0.44290 0.11048 -0.11000
N 	N 	0.27090 0.42280 0.13030 -0.22100
H 	H 	0.24140 0.40350 0.09830 0.11300
H 	H 	0.24610 0.46880 0.14530 0.11600
N 	N 	0.18870 0.02330 0.24175 -0.23200
N 	N 	0.12650 0.87990 0.16276 -0.24200
C 	C 	0.03710 0.24580 0.71420 0.08500
H 	H 	0.00740 0.24050 0.67740 -0.01300
C 	C 	0.09300 0.31260 0.71970 -0.14900
H 	H 	0.09890 0.35100 0.68760 0.08000
C 	C 	0.13990 0.32180 0.77320 0.07500
C 	C 	0.12370 0.26360 0.81970 -0.14600
H 	H 	0.15160 0.26790 0.85730 0.08000
C 	C 	0.06630 0.19930 0.81010 0.08400
H 	H 	0.05740 0.16110 0.84200 -0.01400
C 	C 	0.20640 0.38790 0.77940 0.01900
C 	C 	0.20580 0.45900 0.74260 -0.08500
H 	H 	0.16250 0.46690 0.71420 0.05700
C 	C 	0.26890 0.51850 0.74760 0.00700
H 	H 	0.26680 0.56700 0.72360 0.02200
C 	C 	0.33500 0.50640 0.78790 -0.08800
H 	H 	0.37780 0.54630 0.79070 0.06200
C 	C 	0.33780 0.43420 0.82450 0.02600
C 	C 	0.27360 0.37580 0.82000 -0.08900
H 	H 	0.27520 0.32760 0.84440 0.06700
C 	C 	0.40800 0.42600 0.86829 0.09300
C 	C 	0.50420 0.37520 0.93024 0.07600
C 	C 	0.55960 0.31320 0.96076 0.06300
C 	C 	0.54330 0.28230 0.02000 -0.16400
H 	H 	0.49590 0.30000 0.04170 0.08400
C 	C 	0.59840 0.22540 0.04590 0.07200
H 	H 	0.58880 0.20620 0.08590 0.00200
C 	C 	0.66760 0.19620 0.01370 -0.16500
H 	H 	0.70350 0.15690 0.03180 0.08400
C 	C 	0.68390 0.22540 0.95400 0.08100
C 	C 	0.62960 0.28410 0.92860 -0.13200
H 	H 	0.64020 0.30470 0.88910 0.07200
C 	C 	0.75630 0.19340 0.91650 0.04900
C 	C 	0.78370 0.23700 0.86450 -0.12900
H 	H 	0.76170 0.28990 0.85540 0.07000
C 	C 	0.84280 0.20200 0.82700 0.06400
H 	H 	0.85880 0.23190 0.79200 -0.01600
C 	C 	0.85880 0.08830 0.89020 0.07300
H 	H 	0.88650 0.03870 0.90060 -0.00300
C 	C 	0.79850 0.11830 0.93020 -0.12800
H 	H 	0.78580 0.08880 0.96610 0.08100
N 	N 	0.44630 0.48990 0.89445 -0.11900
N 	N 	0.50670 0.45770 0.93369 -0.19800
N 	N 	0.44290 0.35290 0.88952 -0.10300
N 	N 	0.42280 0.27090 0.86970 -0.22400
H 	H 	0.40350 0.24140 0.90170 0.12100
H 	H 	0.46880 0.24610 0.85470 0.11800
N 	N 	0.02330 0.18870 0.75825 -0.23200
N 	N 	0.87990 0.12650 0.83724 -0.23500
C 	C 	0.96290 0.75420 0.21420 0.08400
H 	H 	0.99260 0.75950 0.17740 -0.01300
C 	C 	0.90700 0.68740 0.21970 -0.14900
H 	H 	0.90110 0.64900 0.18760 0.07900
C 	C 	0.86010 0.67820 0.27320 0.07500
C 	C 	0.87630 0.73640 0.31970 -0.14500
H 	H 	0.84840 0.73210 0.35730 0.07800
C 	C 	0.93370 0.80070 0.31010 0.08300
H 	H 	0.94260 0.83890 0.34200 -0.01500
C 	C 	0.79360 0.61210 0.27940 0.01900
C 	C 	0.79420 0.54100 0.24260 -0.08400
H 	H 	0.83750 0.53310 0.21420 0.05600
C 	C 	0.73110 0.48150 0.24760 0.00600
H 	H 	0.73320 0.43300 0.22360 0.02200
C 	C 	0.66500 0.49360 0.28790 -0.08800
H 	H 	0.62220 0.45370 0.29070 0.06200
C 	C 	0.66220 0.56580 0.32450 0.02500
C 	C 	0.72640 0.62420 0.32000 -0.08900
H 	H 	0.72480 0.67240 0.34440 0.06600
C 	C 	0.59200 0.57400 0.36829 0.09200
C 	C 	0.49580 0.62480 0.43024 0.09000
C 	C 	0.44040 0.68680 0.46076 0.00000
C 	C 	0.45670 0.71770 0.52000 -0.08400
H 	H 	0.50410 0.70000 0.54170 0.06100
C 	C 	0.40160 0.77460 0.54590 0.00300
H 	H 	0.41120 0.79380 0.58590 0.02700
C 	C 	0.33240 0.80380 0.51370 -0.08600
H 	H 	0.29650 0.84310 0.53180 0.06100
C 	C 	0.31610 0.77460 0.45400 0.01700
C 	C 	0.37040 0.71590 0.42860 -0.08100
H 	H 	0.35980 0.69530 0.38910 0.05400
C 	C 	0.24370 0.80660 0.41650 0.07300
C 	C 	0.21630 0.76300 0.36450 -0.14700
H 	H 	0.23830 0.71010 0.35540 0.07700
C 	C 	0.15720 0.79800 0.32700 0.07300
H 	H 	0.14120 0.76810 0.29200 -0.01900
C 	C 	0.14120 0.91170 0.39020 0.08000
H 	H 	0.11350 0.96130 0.40060 -0.00800
C 	C 	0.20150 0.88170 0.43020 -0.14600
H 	H 	0.21420 0.91120 0.46610 0.08100
N 	N 	0.55370 0.51010 0.39445 -0.12000
N 	N 	0.49330 0.54230 0.43369 -0.20500
N 	N 	0.55710 0.64710 0.38952 -0.10600
N 	N 	0.57720 0.72910 0.36970 -0.22200
H 	H 	0.59650 0.75860 0.40170 0.11700
H 	H 	0.53120 0.75390 0.35470 0.11700
N 	N 	0.97670 0.81130 0.25825 -0.23200
N 	N 	0.12010 0.87350 0.33724 -0.23800
C 	C 	0.74580 0.46290 0.96420 0.09600
H 	H 	0.74050 0.49260 0.92740 -0.01500
C 	C 	0.81260 0.40700 0.96970 -0.12200
H 	H 	0.85100 0.40110 0.93760 0.07300
C 	C 	0.82180 0.36010 0.02320 0.04700
C 	C 	0.76360 0.37630 0.06970 -0.13500
H 	H 	0.76790 0.34840 0.10730 0.07400
C 	C 	0.69930 0.43370 0.06010 0.07400
H 	H 	0.66110 0.44260 0.09200 -0.01300
C 	C 	0.88790 0.29360 0.02940 0.01500
C 	C 	0.95900 0.29420 0.99260 -0.08600
H 	H 	0.96690 0.33750 0.96420 0.06100
C 	C 	0.01850 0.23110 0.99760 0.05200
H 	H 	0.06700 0.23320 0.97360 0.01200
C 	C 	0.00640 0.16500 0.03790 -0.13100
H 	H 	0.04630 0.12220 0.04070 0.07200
C 	C 	0.93420 0.16220 0.07450 0.03800
C 	C 	0.87580 0.22640 0.07000 -0.10100
H 	H 	0.82760 0.22480 0.09440 0.06900
C 	C 	0.92600 0.09200 0.11829 0.08500
C 	C 	0.87520 0.99580 0.18024 0.09300
C 	C 	0.81320 0.94040 0.21076 -0.00400
C 	C 	0.78230 0.95670 0.27000 -0.07700
H 	H 	0.80000 0.00410 0.29170 0.05700
C 	C 	0.72540 0.90160 0.29590 -0.00200
H 	H 	0.70620 0.91120 0.33590 0.02900
C 	C 	0.69620 0.83240 0.26370 -0.08200
H 	H 	0.65690 0.79650 0.28180 0.06000
C 	C 	0.72540 0.81610 0.20400 0.01400
C 	C 	0.78410 0.87040 0.17860 -0.07800
H 	H 	0.80470 0.85980 0.13910 0.05200
C 	C 	0.69340 0.74370 0.16650 0.07400
C 	C 	0.73700 0.71630 0.11450 -0.14900
H 	H 	0.78990 0.73830 0.10540 0.07500
C 	C 	0.70200 0.65720 0.07700 0.07200
H 	H 	0.73190 0.64120 0.04200 -0.02400
C 	C 	0.58830 0.64120 0.14020 0.08000
H 	H 	0.53870 0.61350 0.15060 -0.00700
C 	C 	0.61830 0.70150 0.18020 -0.14700
H 	H 	0.58880 0.71420 0.21610 0.08200
N 	N 	0.98990 0.05370 0.14445 -0.12100
N 	N 	0.95770 0.99330 0.18369 -0.20400
N 	N 	0.85290 0.05710 0.13952 -0.10700
N 	N 	0.77090 0.07720 0.11970 -0.22300
H 	H 	0.74140 0.09650 0.15170 0.11700
H 	H 	0.74610 0.03120 0.10470 0.11400
N 	N 	0.68870 0.47670 0.00825 -0.24300
N 	N 	0.62650 0.62010 0.08724 -0.24000
C 	C 	0.25420 0.53710 0.46420 0.08400
H 	H 	0.25950 0.50740 0.42740 -0.01300
C 	C 	0.18740 0.59300 0.46970 -0.14900
H 	H 	0.14900 0.59890 0.43760 0.07900
C 	C 	0.17820 0.63990 0.52320 0.07500
C 	C 	0.23640 0.62370 0.56970 -0.14500
H 	H 	0.23210 0.65160 0.60730 0.07800
C 	C 	0.30070 0.56630 0.56010 0.08300
H 	H 	0.33890 0.55740 0.59200 -0.01600
C 	C 	0.11210 0.70640 0.52940 0.01900
C 	C 	0.04100 0.70580 0.49260 -0.08700
H 	H 	0.03310 0.66250 0.46420 0.05700
C 	C 	0.98150 0.76890 0.49760 0.00800
H 	H 	0.93300 0.76680 0.47360 0.02200
C 	C 	0.99360 0.83500 0.53790 -0.08500
H 	H 	0.95370 0.87780 0.54070 0.06200
C 	C 	0.06580 0.83780 0.57450 0.02200
C 	C 	0.12420 0.77360 0.57000 -0.08800
H 	H 	0.17240 0.77520 0.59440 0.06600
C 	C 	0.07400 0.90800 0.61829 0.09200
C 	C 	0.12480 0.00420 0.68024 0.09300
C 	C 	0.18680 0.05960 0.71076 -0.00300
C 	C 	0.21770 0.04330 0.77000 -0.07800
H 	H 	0.20000 0.99590 0.79170 0.05800
C 	C 	0.27460 0.09840 0.79590 -0.00100
H 	H 	0.29380 0.08880 0.83590 0.03000
C 	C 	0.30380 0.16760 0.76370 -0.08200
H 	H 	0.34310 0.20350 0.78180 0.06000
C 	C 	0.27460 0.18390 0.70400 0.01500
C 	C 	0.21590 0.12960 0.67860 -0.07800
H 	H 	0.19530 0.14020 0.63910 0.05400
C 	C 	0.30660 0.25630 0.66650 0.07400
C 	C 	0.26300 0.28370 0.61450 -0.14700
H 	H 	0.21010 0.26170 0.60540 0.07700
C 	C 	0.29800 0.34280 0.57700 0.07300
H 	H 	0.26810 0.35880 0.54200 -0.01900
C 	C 	0.41170 0.35880 0.64020 0.08100
H 	H 	0.46130 0.38650 0.65060 -0.00700
C 	C 	0.38170 0.29850 0.68020 -0.14600
H 	H 	0.41120 0.28580 0.71610 0.08200
N 	N 	0.01010 0.94630 0.64445 -0.12200
N 	N 	0.04230 0.00670 0.68369 -0.20400
N 	N 	0.14710 0.94290 0.63952 -0.10800
N 	N 	0.22910 0.92280 0.61970 -0.22200
H 	H 	0.25860 0.90350 0.65170 0.11700
H 	H 	0.25390 0.96880 0.60470 0.11700
N 	N 	0.31130 0.52330 0.50825 -0.23300
N 	N 	0.37350 0.37990 0.58724 -0.23800
Cd	Cd	0.94014 0.05986 0.75000 1.19000
Cd	Cd	0.05986 0.94014 0.25000 1.19000
Cd	Cd	0.44014 0.44014 0.50000 1.19100
Cd	Cd	0.55986 0.55986 -0.00000 1.18400
