data_crystal

_cell_length_a 15.88400
_cell_length_b 15.88400
_cell_length_c 21.44000
_cell_angle_alpha 90.00000
_cell_angle_beta  90.00000
_cell_angle_gamma 90.00000

_symmetry_space_group_name_	'P 1'
_symmetry_space_group_name_H-M	'P 1'

loop_
_symmetry_equiv_pos_as_xyz
  x,y,z

loop_
_atom_site_label
_atom_site_type_symbol
_atom_site_fract_x
_atom_site_fract_y
_atom_site_fract_z
_atom_site_charge
C 	C 	0.93170 0.80260 0.80990 0.08400
H 	H 	0.93970 0.84140 0.84190 -0.01400
C 	C 	0.87480 0.73890 0.81930 -0.14600
H 	H 	0.84650 0.73510 0.85720 0.08000
C 	C 	0.85900 0.68020 0.77290 0.07700
C 	C 	0.90750 0.68870 0.71940 -0.14900
H 	H 	0.90220 0.64980 0.68720 0.07900
C 	C 	0.96410 0.75530 0.71390 0.08700
H 	H 	0.99510 0.75970 0.67720 -0.01400
C 	C 	0.79380 0.61440 0.77860 0.01500
C 	C 	0.79260 0.54270 0.74120 -0.08200
H 	H 	0.83460 0.53520 0.71150 0.05600
C 	C 	0.73040 0.48270 0.74740 0.00500
H 	H 	0.73350 0.43340 0.72420 0.02300
C 	C 	0.66380 0.49510 0.78740 -0.08800
H 	H 	0.62070 0.45560 0.79000 0.06200
C 	C 	0.66160 0.56720 0.82370 0.02600
C 	C 	0.72580 0.62580 0.81940 -0.08700
H 	H 	0.72370 0.67390 0.84420 0.06700
C 	C 	0.59210 0.57560 0.86810 0.09200
C 	C 	0.49520 0.62570 0.93100 0.07800
C 	C 	0.44000 0.68830 0.96120 0.06300
C 	C 	0.45850 0.72000 0.02050 -0.16000
H 	H 	0.50640 0.70260 0.04180 0.08300
C 	C 	0.40360 0.77830 0.04690 0.06500
H 	H 	0.41360 0.79820 0.08700 0.00400
C 	C 	0.33380 0.80720 0.01380 -0.16300
H 	H 	0.29810 0.84670 0.03190 0.08300
C 	C 	0.31700 0.77840 0.95500 0.08000
C 	C 	0.37120 0.71630 0.92930 -0.13000
H 	H 	0.35950 0.69430 0.89010 0.07200
C 	C 	0.24550 0.80880 0.91710 0.04600
C 	C 	0.20180 0.88310 0.93040 -0.12500
H 	H 	0.21420 0.91280 0.96670 0.07900
C 	C 	0.14080 0.91290 0.89060 0.07200
H 	H 	0.11290 0.96250 0.90090 -0.00400
C 	C 	0.15630 0.79980 0.82690 0.06900
H 	H 	0.13960 0.76980 0.79170 -0.01900
C 	C 	0.21660 0.76530 0.86410 -0.12900
H 	H 	0.23890 0.71280 0.85440 0.07000
N 	N 	0.49310 0.54420 0.93350 -0.19700
N 	N 	0.55350 0.51140 0.89410 -0.11900
N 	N 	0.55670 0.64900 0.89020 -0.10200
N 	N 	0.57730 0.73050 0.87000 -0.22300
H 	H 	0.53300 0.75310 0.85090 0.11800
H 	H 	0.59110 0.76190 0.90290 0.12100
N 	N 	0.97630 0.81240 0.75770 -0.23300
N 	N 	0.11990 0.87370 0.83780 -0.23700
C 	C 	0.06830 0.19740 0.30990 0.08300
H 	H 	0.06030 0.15860 0.34190 -0.01500
C 	C 	0.12520 0.26110 0.31930 -0.14600
H 	H 	0.15350 0.26490 0.35720 0.07800
C 	C 	0.14100 0.31980 0.27290 0.07600
C 	C 	0.09250 0.31130 0.21940 -0.14900
H 	H 	0.09780 0.35020 0.18720 0.07800
C 	C 	0.03590 0.24470 0.21390 0.08700
H 	H 	0.00490 0.24030 0.17720 -0.01400
C 	C 	0.20620 0.38560 0.27860 0.01500
C 	C 	0.20740 0.45730 0.24120 -0.08100
H 	H 	0.16540 0.46480 0.21150 0.05500
C 	C 	0.26960 0.51730 0.24740 0.00500
H 	H 	0.26650 0.56660 0.22420 0.02300
C 	C 	0.33620 0.50490 0.28740 -0.08700
H 	H 	0.37930 0.54440 0.29000 0.06200
C 	C 	0.33840 0.43280 0.32370 0.02500
C 	C 	0.27420 0.37420 0.31940 -0.08700
H 	H 	0.27630 0.32610 0.34420 0.06600
C 	C 	0.40790 0.42440 0.36810 0.09000
C 	C 	0.50480 0.37430 0.43100 0.09200
C 	C 	0.56000 0.31170 0.46120 0.00000
C 	C 	0.54150 0.28000 0.52050 -0.08200
H 	H 	0.49360 0.29740 0.54180 0.06000
C 	C 	0.59640 0.22170 0.54690 -0.00100
H 	H 	0.58640 0.20180 0.58700 0.02800
C 	C 	0.66620 0.19280 0.51380 -0.08300
H 	H 	0.70190 0.15330 0.53190 0.06000
C 	C 	0.68300 0.22160 0.45500 0.01500
C 	C 	0.62880 0.28370 0.42930 -0.07900
H 	H 	0.64050 0.30570 0.39010 0.05400
C 	C 	0.75450 0.19120 0.41710 0.07200
C 	C 	0.79820 0.11690 0.43040 -0.14300
H 	H 	0.78580 0.08720 0.46670 0.08000
C 	C 	0.85920 0.08710 0.39060 0.08000
H 	H 	0.88710 0.03750 0.40090 -0.00900
C 	C 	0.84370 0.20020 0.32690 0.07900
H 	H 	0.86040 0.23020 0.29170 -0.02200
C 	C 	0.78340 0.23470 0.36410 -0.14700
H 	H 	0.76110 0.28720 0.35440 0.07700
N 	N 	0.50690 0.45580 0.43350 -0.20500
N 	N 	0.44650 0.48860 0.39410 -0.12000
N 	N 	0.44330 0.35100 0.39020 -0.10600
N 	N 	0.42270 0.26950 0.37000 -0.22200
H 	H 	0.46700 0.24690 0.35090 0.11700
H 	H 	0.40890 0.23810 0.40290 0.11700
N 	N 	0.02370 0.18760 0.25770 -0.23300
N 	N 	0.88010 0.12630 0.33780 -0.24100
C 	C 	0.69740 0.43170 0.55990 0.08300
H 	H 	0.65860 0.43970 0.59190 -0.01600
C 	C 	0.76110 0.37480 0.56930 -0.14600
H 	H 	0.76490 0.34650 0.60720 0.07800
C 	C 	0.81980 0.35900 0.52290 0.07600
C 	C 	0.81130 0.40750 0.46940 -0.14900
H 	H 	0.85020 0.40220 0.43720 0.07900
C 	C 	0.74470 0.46410 0.46390 0.08700
H 	H 	0.74030 0.49510 0.42720 -0.01400
C 	C 	0.88560 0.29380 0.52860 0.01500
C 	C 	0.95730 0.29260 0.49120 -0.08400
H 	H 	0.96480 0.33460 0.46150 0.05600
C 	C 	0.01730 0.23040 0.49740 0.00700
H 	H 	0.06660 0.23350 0.47420 0.02300
C 	C 	0.00490 0.16380 0.53740 -0.08400
H 	H 	0.04440 0.12070 0.54000 0.06200
C 	C 	0.93280 0.16160 0.57370 0.02200
C 	C 	0.87420 0.22580 0.56940 -0.08600
H 	H 	0.82610 0.22370 0.59420 0.06600
C 	C 	0.92440 0.09210 0.61810 0.09100
C 	C 	0.87430 0.99520 0.68100 0.09500
C 	C 	0.81170 0.94000 0.71120 -0.00200
C 	C 	0.78000 0.95850 0.77050 -0.07600
H 	H 	0.79740 0.00640 0.79180 0.05800
C 	C 	0.72170 0.90360 0.79690 -0.00500
H 	H 	0.70180 0.91360 0.83700 0.03200
C 	C 	0.69280 0.83380 0.76380 -0.07900
H 	H 	0.65330 0.79810 0.78190 0.05900
C 	C 	0.72160 0.81700 0.70500 0.01300
C 	C 	0.78370 0.87120 0.67930 -0.07700
H 	H 	0.80570 0.85950 0.64010 0.05300
C 	C 	0.69120 0.74550 0.66710 0.07300
C 	C 	0.61690 0.70180 0.68040 -0.14400
H 	H 	0.58720 0.71420 0.71670 0.08000
C 	C 	0.58710 0.64080 0.64060 0.08100
H 	H 	0.53750 0.61290 0.65090 -0.00800
C 	C 	0.70020 0.65630 0.57690 0.07900
H 	H 	0.73020 0.63960 0.54170 -0.02200
C 	C 	0.73470 0.71660 0.61410 -0.14700
H 	H 	0.78720 0.73890 0.60440 0.07700
N 	N 	0.95580 0.99310 0.68350 -0.20400
N 	N 	0.98860 0.05350 0.64410 -0.12200
N 	N 	0.85100 0.05670 0.64020 -0.10700
N 	N 	0.76950 0.07730 0.62000 -0.22200
H 	H 	0.74690 0.03300 0.60090 0.11700
H 	H 	0.73810 0.09110 0.65290 0.11700
N 	N 	0.68760 0.47630 0.50770 -0.23400
N 	N 	0.62630 0.61990 0.58780 -0.24000
C 	C 	0.30260 0.56830 0.05990 0.07300
H 	H 	0.34140 0.56030 0.09190 -0.01300
C 	C 	0.23890 0.62520 0.06930 -0.13600
H 	H 	0.23510 0.65350 0.10720 0.07400
C 	C 	0.18020 0.64100 0.02290 0.04900
C 	C 	0.18870 0.59250 0.96940 -0.12200
H 	H 	0.14980 0.59780 0.93720 0.07300
C 	C 	0.25530 0.53590 0.96390 0.09900
H 	H 	0.25970 0.50490 0.92720 -0.01600
C 	C 	0.11440 0.70620 0.02860 0.01200
C 	C 	0.04270 0.70740 0.99120 -0.08500
H 	H 	0.03520 0.66540 0.96150 0.06000
C 	C 	0.98270 0.76960 0.99740 0.05200
H 	H 	0.93340 0.76650 0.97420 0.01200
C 	C 	0.99510 0.83620 0.03740 -0.13200
H 	H 	0.95560 0.87930 0.04000 0.07300
C 	C 	0.06720 0.83840 0.07370 0.03900
C 	C 	0.12580 0.77420 0.06940 -0.10000
H 	H 	0.17390 0.77630 0.09420 0.07000
C 	C 	0.07560 0.90790 0.11810 0.08300
C 	C 	0.12570 0.00480 0.18100 0.09400
C 	C 	0.18830 0.06000 0.21120 -0.00400
C 	C 	0.22000 0.04150 0.27050 -0.07500
H 	H 	0.20260 0.99360 0.29180 0.05700
C 	C 	0.27830 0.09640 0.29690 -0.00600
H 	H 	0.29820 0.08640 0.33700 0.03000
C 	C 	0.30720 0.16620 0.26380 -0.07900
H 	H 	0.34670 0.20190 0.28190 0.05800
C 	C 	0.27840 0.18300 0.20500 0.01200
C 	C 	0.21630 0.12880 0.17930 -0.07600
H 	H 	0.19430 0.14050 0.14010 0.05100
C 	C 	0.30880 0.25450 0.16710 0.07200
C 	C 	0.38310 0.29820 0.18040 -0.14400
H 	H 	0.41280 0.28580 0.21670 0.08000
C 	C 	0.41290 0.35920 0.14060 0.08000
H 	H 	0.46250 0.38710 0.15090 -0.00800
C 	C 	0.29980 0.34370 0.07690 0.07800
H 	H 	0.26980 0.36040 0.04170 -0.02700
C 	C 	0.26530 0.28340 0.11410 -0.14900
H 	H 	0.21280 0.26110 0.10440 0.07500
N 	N 	0.04420 0.00690 0.18350 -0.20400
N 	N 	0.01140 0.94650 0.14410 -0.12100
N 	N 	0.14900 0.94330 0.14020 -0.10600
N 	N 	0.23050 0.92270 0.12000 -0.22300
H 	H 	0.25310 0.96700 0.10090 0.11400
H 	H 	0.26190 0.90890 0.15290 0.11700
N 	N 	0.31240 0.52370 0.00770 -0.24500
N 	N 	0.37370 0.38010 0.08780 -0.24200
C 	C 	0.56830 0.30260 0.94010 0.09200
H 	H 	0.56030 0.34140 0.90810 -0.01800
C 	C 	0.62520 0.23890 0.93070 -0.15400
H 	H 	0.65350 0.23510 0.89280 0.08100
C 	C 	0.64100 0.18020 0.97710 0.10100
C 	C 	0.59250 0.18870 0.03060 -0.17600
H 	H 	0.59780 0.14980 0.06280 0.08500
C 	C 	0.53590 0.25530 0.03610 0.07300
H 	H 	0.50490 0.25970 0.07280 -0.01200
C 	C 	0.70620 0.11440 0.97140 0.03100
C 	C 	0.70740 0.04270 0.00880 -0.10300
H 	H 	0.66540 0.03520 0.03850 0.05800
C 	C 	0.76960 0.98270 0.00260 -0.01900
H 	H 	0.76650 0.93340 0.02580 0.02700
C 	C 	0.83620 0.99510 0.96260 -0.05400
H 	H 	0.87930 0.95560 0.96000 0.05600
C 	C 	0.83840 0.06720 0.92630 0.01700
C 	C 	0.77420 0.12580 0.93060 -0.08200
H 	H 	0.77630 0.17390 0.90580 0.06500
C 	C 	0.90790 0.07560 0.88190 0.09500
C 	C 	0.00480 0.12570 0.81900 0.09500
C 	C 	0.06000 0.18830 0.78880 -0.00200
C 	C 	0.04150 0.22000 0.72950 -0.07600
H 	H 	0.99360 0.20260 0.70820 0.05700
C 	C 	0.09640 0.27830 0.70310 -0.00500
H 	H 	0.08640 0.29820 0.66300 0.03000
C 	C 	0.16620 0.30720 0.73620 -0.08100
H 	H 	0.20190 0.34670 0.71810 0.05900
C 	C 	0.18300 0.27840 0.79500 0.01400
C 	C 	0.12880 0.21630 0.82070 -0.07800
H 	H 	0.14050 0.19430 0.85990 0.05600
C 	C 	0.25450 0.30880 0.83290 0.07300
C 	C 	0.29820 0.38310 0.81960 -0.14300
H 	H 	0.28580 0.41280 0.78330 0.08000
C 	C 	0.35920 0.41290 0.85940 0.08200
H 	H 	0.38710 0.46250 0.84910 -0.00700
C 	C 	0.34370 0.29980 0.92310 0.08000
H 	H 	0.36040 0.26980 0.95830 -0.01500
C 	C 	0.28340 0.26530 0.88590 -0.14500
H 	H 	0.26110 0.21280 0.89560 0.07900
N 	N 	0.00690 0.04420 0.81650 -0.20300
N 	N 	0.94650 0.01140 0.85590 -0.12200
N 	N 	0.94330 0.14900 0.85980 -0.10700
N 	N 	0.92270 0.23050 0.88000 -0.22100
H 	H 	0.96700 0.25310 0.89910 0.12000
H 	H 	0.90890 0.26190 0.84710 0.11700
N 	N 	0.52370 0.31240 0.99230 -0.22100
N 	N 	0.38010 0.37370 0.91220 -0.23700
C 	C 	0.43170 0.69740 0.44010 0.08300
H 	H 	0.43970 0.65860 0.40810 -0.01600
C 	C 	0.37480 0.76110 0.43070 -0.14600
H 	H 	0.34650 0.76490 0.39280 0.07800
C 	C 	0.35900 0.81980 0.47710 0.07600
C 	C 	0.40750 0.81130 0.53060 -0.14900
H 	H 	0.40220 0.85020 0.56280 0.07900
C 	C 	0.46410 0.74470 0.53610 0.08700
H 	H 	0.49510 0.74030 0.57280 -0.01400
C 	C 	0.29380 0.88560 0.47140 0.01500
C 	C 	0.29260 0.95730 0.50880 -0.08400
H 	H 	0.33460 0.96480 0.53850 0.05600
C 	C 	0.23040 0.01730 0.50260 0.00700
H 	H 	0.23350 0.06660 0.52580 0.02300
C 	C 	0.16380 0.00490 0.46260 -0.08400
H 	H 	0.12070 0.04440 0.46000 0.06200
C 	C 	0.16160 0.93280 0.42630 0.02200
C 	C 	0.22580 0.87420 0.43060 -0.08600
H 	H 	0.22370 0.82610 0.40580 0.06600
C 	C 	0.09210 0.92440 0.38190 0.09100
C 	C 	0.99520 0.87430 0.31900 0.09500
C 	C 	0.94000 0.81170 0.28880 -0.00200
C 	C 	0.95850 0.78000 0.22950 -0.07700
H 	H 	0.00640 0.79740 0.20820 0.05700
C 	C 	0.90360 0.72170 0.20310 -0.00400
H 	H 	0.91360 0.70180 0.16300 0.02800
C 	C 	0.83380 0.69280 0.23620 -0.08100
H 	H 	0.79810 0.65330 0.21810 0.05900
C 	C 	0.81700 0.72160 0.29500 0.01300
C 	C 	0.87120 0.78370 0.32070 -0.07700
H 	H 	0.85950 0.80570 0.35990 0.05400
C 	C 	0.74550 0.69120 0.33290 0.07200
C 	C 	0.70180 0.61690 0.31960 -0.14400
H 	H 	0.71420 0.58720 0.28330 0.08000
C 	C 	0.64080 0.58710 0.35940 0.08100
H 	H 	0.61290 0.53750 0.34910 -0.00800
C 	C 	0.65630 0.70020 0.42310 0.07900
H 	H 	0.63960 0.73020 0.45830 -0.02200
C 	C 	0.71660 0.73470 0.38590 -0.14700
H 	H 	0.73890 0.78720 0.39560 0.07700
N 	N 	0.99310 0.95580 0.31650 -0.20300
N 	N 	0.05350 0.98860 0.35590 -0.12200
N 	N 	0.05670 0.85100 0.35980 -0.10700
N 	N 	0.07730 0.76950 0.38000 -0.22200
H 	H 	0.03300 0.74690 0.39910 0.11600
H 	H 	0.09110 0.73810 0.34710 0.11700
N 	N 	0.47630 0.68760 0.49230 -0.23400
N 	N 	0.61990 0.62630 0.41220 -0.24000
C 	C 	0.80260 0.93170 0.19010 0.08300
H 	H 	0.84140 0.93970 0.15810 -0.01600
C 	C 	0.73890 0.87480 0.18070 -0.14600
H 	H 	0.73510 0.84650 0.14280 0.07600
C 	C 	0.68020 0.85900 0.22710 0.07600
C 	C 	0.68870 0.90750 0.28060 -0.14900
H 	H 	0.64980 0.90220 0.31280 0.07900
C 	C 	0.75530 0.96410 0.28610 0.08700
H 	H 	0.75970 0.99510 0.32280 -0.01300
C 	C 	0.61440 0.79380 0.22140 0.01500
C 	C 	0.54270 0.79260 0.25880 -0.08100
H 	H 	0.53520 0.83460 0.28850 0.05600
C 	C 	0.48270 0.73040 0.25260 0.00500
H 	H 	0.43340 0.73350 0.27580 0.02300
C 	C 	0.49510 0.66380 0.21260 -0.08700
H 	H 	0.45560 0.62070 0.21000 0.06200
C 	C 	0.56720 0.66160 0.17630 0.02500
C 	C 	0.62580 0.72580 0.18060 -0.08700
H 	H 	0.67390 0.72370 0.15580 0.06500
C 	C 	0.57560 0.59210 0.13190 0.08900
C 	C 	0.62570 0.49520 0.06900 0.10800
C 	C 	0.68830 0.44000 0.03880 -0.06700
C 	C 	0.72000 0.45850 0.97950 0.00200
H 	H 	0.70260 0.50640 0.95820 0.03600
C 	C 	0.77830 0.40360 0.95310 -0.07300
H 	H 	0.79820 0.41360 0.91300 0.05500
C 	C 	0.80720 0.33380 0.98620 0.00600
H 	H 	0.84670 0.29810 0.96810 0.03400
C 	C 	0.77840 0.31700 0.04500 -0.05800
C 	C 	0.71630 0.37120 0.07070 -0.02400
H 	H 	0.69430 0.35950 0.10990 0.03400
C 	C 	0.80880 0.24550 0.08290 0.09900
C 	C 	0.88310 0.20180 0.06960 -0.16400
H 	H 	0.91280 0.21420 0.03330 0.08000
C 	C 	0.91290 0.14080 0.10940 0.08900
H 	H 	0.96250 0.11290 0.09910 -0.01500
C 	C 	0.79980 0.15630 0.17310 0.08800
H 	H 	0.76980 0.13960 0.20830 -0.02600
C 	C 	0.76530 0.21660 0.13590 -0.16700
H 	H 	0.71280 0.23890 0.14560 0.08400
N 	N 	0.54420 0.49310 0.06650 -0.21200
N 	N 	0.51140 0.55350 0.10590 -0.12100
N 	N 	0.64900 0.55670 0.10980 -0.10900
N 	N 	0.73050 0.57730 0.13000 -0.22100
H 	H 	0.75310 0.53300 0.14910 0.11600
H 	H 	0.76190 0.59110 0.09710 0.11300
N 	N 	0.81240 0.97630 0.24230 -0.23300
N 	N 	0.87370 0.11990 0.16220 -0.24500
C 	C 	0.19740 0.06830 0.69010 0.08300
H 	H 	0.15860 0.06030 0.65810 -0.01500
C 	C 	0.26110 0.12520 0.68070 -0.14600
H 	H 	0.26490 0.15350 0.64280 0.07800
C 	C 	0.31980 0.14100 0.72710 0.07600
C 	C 	0.31130 0.09250 0.78060 -0.14900
H 	H 	0.35020 0.09780 0.81280 0.08100
C 	C 	0.24470 0.03590 0.78610 0.08700
H 	H 	0.24030 0.00490 0.82280 -0.01200
C 	C 	0.38560 0.20620 0.72140 0.01500
C 	C 	0.45730 0.20740 0.75880 -0.08200
H 	H 	0.46480 0.16540 0.78850 0.05700
C 	C 	0.51730 0.26960 0.75260 0.00600
H 	H 	0.56660 0.26650 0.77580 0.02300
C 	C 	0.50490 0.33620 0.71260 -0.08800
H 	H 	0.54440 0.37930 0.71000 0.06200
C 	C 	0.43280 0.33840 0.67630 0.02500
C 	C 	0.37420 0.27420 0.68060 -0.08700
H 	H 	0.32610 0.27630 0.65580 0.06600
C 	C 	0.42440 0.40790 0.63190 0.09000
C 	C 	0.37430 0.50480 0.56900 0.09200
C 	C 	0.31170 0.56000 0.53880 0.00000
C 	C 	0.28000 0.54150 0.47950 -0.08200
H 	H 	0.29740 0.49360 0.45820 0.06000
C 	C 	0.22170 0.59640 0.45310 -0.00100
H 	H 	0.20180 0.58640 0.41300 0.02800
C 	C 	0.19280 0.66620 0.48620 -0.08300
H 	H 	0.15330 0.70190 0.46810 0.06000
C 	C 	0.22160 0.68300 0.54500 0.01500
C 	C 	0.28370 0.62880 0.57070 -0.07900
H 	H 	0.30570 0.64050 0.60990 0.05400
C 	C 	0.19120 0.75450 0.58290 0.07100
C 	C 	0.11690 0.79820 0.56960 -0.14300
H 	H 	0.08720 0.78580 0.53330 0.08000
C 	C 	0.08710 0.85920 0.60940 0.08000
H 	H 	0.03750 0.88710 0.59910 -0.00900
C 	C 	0.20020 0.84370 0.67310 0.07800
H 	H 	0.23020 0.86040 0.70830 -0.02200
C 	C 	0.23470 0.78340 0.63590 -0.14700
H 	H 	0.28720 0.76110 0.64560 0.07700
N 	N 	0.45580 0.50690 0.56650 -0.20500
N 	N 	0.48860 0.44650 0.60590 -0.12000
N 	N 	0.35100 0.44330 0.60980 -0.10600
N 	N 	0.26950 0.42270 0.63000 -0.22200
H 	H 	0.24690 0.46700 0.64910 0.11700
H 	H 	0.23810 0.40890 0.59710 0.11700
N 	N 	0.18760 0.02370 0.74230 -0.23300
N 	N 	0.12630 0.88010 0.66220 -0.24100
Cd	Cd	0.44041 0.44041 -0.00000 1.18400
Cd	Cd	0.55959 0.55959 0.50000 1.19100
Cd	Cd	0.05959 0.94041 0.75000 1.19000
Cd	Cd	0.94041 0.05959 0.25000 1.19000
