data_crystal

_cell_length_a 15.90300
_cell_length_b 15.90300
_cell_length_c 21.39600
_cell_angle_alpha 90.00000
_cell_angle_beta  90.00000
_cell_angle_gamma 90.00000

_symmetry_space_group_name_	'P 1'
_symmetry_space_group_name_H-M	'P 1'

loop_
_symmetry_equiv_pos_as_xyz
  x,y,z

loop_
_atom_site_label
_atom_site_type_symbol
_atom_site_fract_x
_atom_site_fract_y
_atom_site_fract_z
_atom_site_charge
C 	C 	0.15530 0.79940 0.82760 0.06000
H 	H 	0.13710 0.76860 0.79320 -0.01500
C 	C 	0.21580 0.76550 0.86520 -0.12400
H 	H 	0.23700 0.71250 0.85600 0.06900
C 	C 	0.24630 0.80890 0.91710 0.04600
C 	C 	0.20250 0.88460 0.93070 -0.13000
H 	H 	0.21490 0.91450 0.96690 0.08300
C 	C 	0.14220 0.91350 0.89050 0.08200
H 	H 	0.11460 0.96320 0.90090 -0.00700
C 	C 	0.31750 0.77920 0.95420 0.07900
C 	C 	0.33560 0.80940 0.01430 -0.16300
H 	H 	0.30110 0.85020 0.03210 0.08300
C 	C 	0.40350 0.77970 0.04710 0.06800
H 	H 	0.41350 0.79940 0.08730 0.00200
C 	C 	0.45770 0.72050 0.02090 -0.16200
H 	H 	0.50510 0.70260 0.04260 0.08400
C 	C 	0.43980 0.68870 0.96200 0.06400
C 	C 	0.37040 0.71790 0.92970 -0.13000
H 	H 	0.35890 0.69590 0.89030 0.07200
C 	C 	0.49470 0.62620 0.93160 0.07700
C 	C 	0.59180 0.57630 0.86800 0.09100
C 	C 	0.66080 0.56830 0.82390 0.02600
C 	C 	0.66330 0.49670 0.78740 -0.08900
H 	H 	0.62060 0.45690 0.79000 0.06200
C 	C 	0.73050 0.48470 0.74680 0.00700
H 	H 	0.73320 0.43590 0.72290 0.02200
C 	C 	0.79270 0.54400 0.74160 -0.08500
H 	H 	0.83600 0.53620 0.71290 0.05700
C 	C 	0.79150 0.61560 0.77890 0.02000
C 	C 	0.72520 0.62720 0.81960 -0.08900
H 	H 	0.72350 0.67510 0.84460 0.06600
C 	C 	0.85860 0.68160 0.77300 0.07500
C 	C 	0.87290 0.74080 0.81940 -0.14300
H 	H 	0.84360 0.73760 0.85690 0.07800
C 	C 	0.93070 0.80450 0.81010 0.08000
H 	H 	0.93810 0.84390 0.84170 -0.01400
C 	C 	0.96430 0.75520 0.71440 0.08800
H 	H 	0.99540 0.75950 0.67770 -0.01400
C 	C 	0.90780 0.68870 0.71990 -0.15000
H 	H 	0.90310 0.64920 0.68810 0.08000
N 	N 	0.12060 0.87570 0.83820 -0.23800
N 	N 	0.49260 0.54440 0.93400 -0.19700
N 	N 	0.55330 0.51240 0.89490 -0.11800
N 	N 	0.55590 0.64920 0.89040 -0.10200
N 	N 	0.57570 0.73130 0.86990 -0.22400
H 	H 	0.52830 0.75880 0.86150 0.12000
H 	H 	0.60360 0.75800 0.90000 0.12000
N 	N 	0.97630 0.81240 0.75810 -0.23200
C 	C 	0.84470 0.20060 0.32760 0.06900
H 	H 	0.86290 0.23140 0.29320 -0.01800
C 	C 	0.78420 0.23450 0.36520 -0.14300
H 	H 	0.76300 0.28750 0.35600 0.07600
C 	C 	0.75370 0.19110 0.41710 0.07200
C 	C 	0.79750 0.11540 0.43070 -0.14800
H 	H 	0.78510 0.08550 0.46690 0.08300
C 	C 	0.85780 0.08650 0.39050 0.09000
H 	H 	0.88540 0.03680 0.40090 -0.01200
C 	C 	0.68250 0.22080 0.45420 0.01400
C 	C 	0.66440 0.19060 0.51430 -0.08300
H 	H 	0.69890 0.14980 0.53210 0.06000
C 	C 	0.59650 0.22030 0.54710 -0.00000
H 	H 	0.58650 0.20060 0.58730 0.02700
C 	C 	0.54230 0.27950 0.52090 -0.08200
H 	H 	0.49490 0.29740 0.54260 0.06000
C 	C 	0.56020 0.31130 0.46200 -0.00000
C 	C 	0.62960 0.28210 0.42970 -0.07900
H 	H 	0.64110 0.30410 0.39030 0.05400
C 	C 	0.50530 0.37380 0.43160 0.09200
C 	C 	0.40820 0.42370 0.36800 0.09000
C 	C 	0.33920 0.43170 0.32390 0.02500
C 	C 	0.33670 0.50330 0.28740 -0.08800
H 	H 	0.37940 0.54310 0.29000 0.06200
C 	C 	0.26950 0.51530 0.24680 0.00600
H 	H 	0.26680 0.56410 0.22290 0.02200
C 	C 	0.20730 0.45600 0.24160 -0.08400
H 	H 	0.16400 0.46380 0.21290 0.05600
C 	C 	0.20850 0.38440 0.27890 0.01900
C 	C 	0.27480 0.37280 0.31960 -0.08900
H 	H 	0.27650 0.32490 0.34460 0.06500
C 	C 	0.14140 0.31840 0.27300 0.07500
C 	C 	0.12710 0.25920 0.31940 -0.14300
H 	H 	0.15640 0.26240 0.35690 0.07700
C 	C 	0.06930 0.19550 0.31010 0.07900
H 	H 	0.06190 0.15610 0.34170 -0.01400
C 	C 	0.03570 0.24480 0.21440 0.08700
H 	H 	0.00460 0.24050 0.17770 -0.01400
C 	C 	0.09220 0.31130 0.21990 -0.15000
H 	H 	0.09690 0.35080 0.18810 0.07900
N 	N 	0.87940 0.12430 0.33820 -0.24100
N 	N 	0.50740 0.45560 0.43400 -0.20500
N 	N 	0.44670 0.48760 0.39490 -0.12000
N 	N 	0.44410 0.35080 0.39040 -0.10500
N 	N 	0.42430 0.26870 0.36990 -0.22300
H 	H 	0.47170 0.24120 0.36150 0.11800
H 	H 	0.39640 0.24200 0.40000 0.11700
N 	N 	0.02370 0.18760 0.25810 -0.23200
C 	C 	0.70060 0.65530 0.57760 0.07000
H 	H 	0.73140 0.63710 0.54320 -0.01800
C 	C 	0.73450 0.71580 0.61520 -0.14300
H 	H 	0.78750 0.73700 0.60600 0.07600
C 	C 	0.69110 0.74630 0.66710 0.07300
C 	C 	0.61540 0.70250 0.68070 -0.14900
H 	H 	0.58550 0.71490 0.71690 0.08400
C 	C 	0.58650 0.64220 0.64050 0.09100
H 	H 	0.53680 0.61460 0.65090 -0.01100
C 	C 	0.72080 0.81750 0.70420 0.01100
C 	C 	0.69060 0.83560 0.76430 -0.07900
H 	H 	0.64980 0.80110 0.78210 0.05900
C 	C 	0.72030 0.90350 0.79710 -0.00400
H 	H 	0.70060 0.91350 0.83730 0.03100
C 	C 	0.77950 0.95770 0.77090 -0.07600
H 	H 	0.79740 0.00510 0.79260 0.05700
C 	C 	0.81130 0.93980 0.71200 -0.00300
C 	C 	0.78210 0.87040 0.67970 -0.07600
H 	H 	0.80410 0.85890 0.64030 0.05300
C 	C 	0.87380 0.99470 0.68160 0.09500
C 	C 	0.92370 0.09180 0.61800 0.09000
C 	C 	0.93170 0.16080 0.57390 0.02300
C 	C 	0.00330 0.16330 0.53740 -0.08500
H 	H 	0.04310 0.12060 0.54000 0.06200
C 	C 	0.01530 0.23050 0.49680 0.00800
H 	H 	0.06410 0.23320 0.47290 0.02200
C 	C 	0.95600 0.29270 0.49160 -0.08700
H 	H 	0.96380 0.33600 0.46290 0.05700
C 	C 	0.88440 0.29150 0.52890 0.02000
C 	C 	0.87280 0.22520 0.56960 -0.08800
H 	H 	0.82490 0.22350 0.59460 0.06400
C 	C 	0.81840 0.35860 0.52300 0.07500
C 	C 	0.75920 0.37290 0.56940 -0.14300
H 	H 	0.76240 0.34360 0.60690 0.07600
C 	C 	0.69550 0.43070 0.56010 0.07900
H 	H 	0.65610 0.43810 0.59170 -0.01500
C 	C 	0.74480 0.46430 0.46440 0.08800
H 	H 	0.74050 0.49540 0.42770 -0.01400
C 	C 	0.81130 0.40780 0.46990 -0.15000
H 	H 	0.85080 0.40310 0.43810 0.07900
N 	N 	0.62430 0.62060 0.58820 -0.24100
N 	N 	0.95560 0.99260 0.68400 -0.20400
N 	N 	0.98760 0.05330 0.64490 -0.12100
N 	N 	0.85080 0.05590 0.64040 -0.10700
N 	N 	0.76870 0.07570 0.61990 -0.22300
H 	H 	0.74120 0.02830 0.61150 0.11800
H 	H 	0.74200 0.10360 0.65000 0.11600
N 	N 	0.68760 0.47630 0.50810 -0.23300
C 	C 	0.29940 0.34470 0.07760 0.06800
H 	H 	0.26860 0.36290 0.04320 -0.02300
C 	C 	0.26550 0.28420 0.11520 -0.14500
H 	H 	0.21250 0.26300 0.10600 0.07400
C 	C 	0.30890 0.25370 0.16710 0.07200
C 	C 	0.38460 0.29750 0.18070 -0.14900
H 	H 	0.41450 0.28510 0.21690 0.08400
C 	C 	0.41350 0.35780 0.14050 0.09000
H 	H 	0.46320 0.38540 0.15090 -0.01100
C 	C 	0.27920 0.18250 0.20420 0.01000
C 	C 	0.30940 0.16440 0.26430 -0.07900
H 	H 	0.35020 0.19890 0.28210 0.05900
C 	C 	0.27970 0.09650 0.29710 -0.00500
H 	H 	0.29940 0.08650 0.33730 0.02900
C 	C 	0.22050 0.04230 0.27090 -0.07500
H 	H 	0.20260 0.99490 0.29260 0.05600
C 	C 	0.18870 0.06020 0.21200 -0.00400
C 	C 	0.21790 0.12960 0.17970 -0.07500
H 	H 	0.19590 0.14110 0.14030 0.05100
C 	C 	0.12620 0.00530 0.18160 0.09400
C 	C 	0.07630 0.90820 0.11800 0.08300
C 	C 	0.06830 0.83920 0.07390 0.03800
C 	C 	0.99670 0.83670 0.03740 -0.13100
H 	H 	0.95690 0.87940 0.04000 0.07200
C 	C 	0.98470 0.76950 0.99680 0.05100
H 	H 	0.93590 0.76680 0.97290 0.01200
C 	C 	0.04400 0.70730 0.99160 -0.08600
H 	H 	0.03620 0.66400 0.96290 0.06100
C 	C 	0.11560 0.70850 0.02890 0.01600
C 	C 	0.12720 0.77480 0.06960 -0.10100
H 	H 	0.17510 0.77650 0.09460 0.06800
C 	C 	0.18160 0.64140 0.02300 0.04700
C 	C 	0.24080 0.62710 0.06940 -0.13300
H 	H 	0.23760 0.65640 0.10690 0.07300
C 	C 	0.30450 0.56930 0.06010 0.06900
H 	H 	0.34390 0.56190 0.09170 -0.01300
C 	C 	0.25520 0.53570 0.96440 0.10000
H 	H 	0.25950 0.50460 0.92770 -0.01600
C 	C 	0.18870 0.59220 0.96990 -0.12300
H 	H 	0.14920 0.59690 0.93810 0.07300
N 	N 	0.37570 0.37940 0.08820 -0.24300
N 	N 	0.04440 0.00740 0.18400 -0.20400
N 	N 	0.01240 0.94670 0.14490 -0.12100
N 	N 	0.14920 0.94410 0.14040 -0.10600
N 	N 	0.23130 0.92430 0.11990 -0.22400
H 	H 	0.25880 0.97170 0.11150 0.11600
H 	H 	0.25800 0.89640 0.15000 0.11600
N 	N 	0.31240 0.52370 0.00810 -0.24400
C 	C 	0.34470 0.29940 0.92240 0.07100
H 	H 	0.36290 0.26860 0.95680 -0.01100
C 	C 	0.28420 0.26550 0.88480 -0.14100
H 	H 	0.26300 0.21250 0.89400 0.07800
C 	C 	0.25370 0.30890 0.83290 0.07300
C 	C 	0.29750 0.38460 0.81930 -0.14800
H 	H 	0.28510 0.41450 0.78310 0.08400
C 	C 	0.35780 0.41350 0.85950 0.09200
H 	H 	0.38540 0.46320 0.84910 -0.01000
C 	C 	0.18250 0.27920 0.79580 0.01300
C 	C 	0.16440 0.30940 0.73570 -0.08000
H 	H 	0.19890 0.35020 0.71790 0.05900
C 	C 	0.09650 0.27970 0.70290 -0.00400
H 	H 	0.08650 0.29940 0.66270 0.02900
C 	C 	0.04230 0.22050 0.72910 -0.07600
H 	H 	0.99490 0.20260 0.70740 0.05700
C 	C 	0.06020 0.18870 0.78800 -0.00200
C 	C 	0.12960 0.21790 0.82030 -0.07700
H 	H 	0.14110 0.19590 0.85970 0.05600
C 	C 	0.00530 0.12620 0.81840 0.09500
C 	C 	0.90820 0.07630 0.88200 0.09400
C 	C 	0.83920 0.06830 0.92610 0.01900
C 	C 	0.83670 0.99670 0.96260 -0.05700
H 	H 	0.87940 0.95690 0.96000 0.05700
C 	C 	0.76950 0.98470 0.00320 -0.01500
H 	H 	0.76680 0.93590 0.02710 0.02500
C 	C 	0.70730 0.04400 0.00840 -0.10800
H 	H 	0.66400 0.03620 0.03710 0.06000
C 	C 	0.70850 0.11560 0.97110 0.03700
C 	C 	0.77480 0.12720 0.93040 -0.08600
H 	H 	0.77650 0.17510 0.90540 0.06400
C 	C 	0.64140 0.18160 0.97700 0.10000
C 	C 	0.62710 0.24080 0.93060 -0.15100
H 	H 	0.65640 0.23760 0.89310 0.07900
C 	C 	0.56930 0.30450 0.93990 0.08800
H 	H 	0.56190 0.34390 0.90830 -0.01700
C 	C 	0.53570 0.25520 0.03560 0.07400
H 	H 	0.50460 0.25950 0.07230 -0.01200
C 	C 	0.59220 0.18870 0.03010 -0.17700
H 	H 	0.59690 0.14920 0.06190 0.08500
N 	N 	0.37940 0.37570 0.91180 -0.23700
N 	N 	0.00740 0.04440 0.81600 -0.20300
N 	N 	0.94670 0.01240 0.85510 -0.12100
N 	N 	0.94410 0.14920 0.85960 -0.10600
N 	N 	0.92430 0.23130 0.88010 -0.22100
H 	H 	0.97170 0.25880 0.88850 0.12100
H 	H 	0.89640 0.25800 0.85000 0.11600
N 	N 	0.52370 0.31240 0.99190 -0.22000
C 	C 	0.65530 0.70060 0.42240 0.06900
H 	H 	0.63710 0.73140 0.45680 -0.01700
C 	C 	0.71580 0.73450 0.38480 -0.14300
H 	H 	0.73700 0.78750 0.39400 0.07600
C 	C 	0.74630 0.69110 0.33290 0.07200
C 	C 	0.70250 0.61540 0.31930 -0.14800
H 	H 	0.71490 0.58550 0.28310 0.08400
C 	C 	0.64220 0.58650 0.35950 0.09100
H 	H 	0.61460 0.53680 0.34910 -0.01100
C 	C 	0.81750 0.72080 0.29580 0.01200
C 	C 	0.83560 0.69060 0.23570 -0.08100
H 	H 	0.80110 0.64980 0.21790 0.05900
C 	C 	0.90350 0.72030 0.20290 -0.00300
H 	H 	0.91350 0.70060 0.16270 0.02700
C 	C 	0.95770 0.77950 0.22910 -0.07600
H 	H 	0.00510 0.79740 0.20740 0.05700
C 	C 	0.93980 0.81130 0.28800 -0.00300
C 	C 	0.87040 0.78210 0.32030 -0.07700
H 	H 	0.85890 0.80410 0.35970 0.05400
C 	C 	0.99470 0.87380 0.31840 0.09500
C 	C 	0.09180 0.92370 0.38200 0.09000
C 	C 	0.16080 0.93170 0.42610 0.02200
C 	C 	0.16330 0.00330 0.46260 -0.08500
H 	H 	0.12060 0.04310 0.46000 0.06200
C 	C 	0.23050 0.01530 0.50320 0.00900
H 	H 	0.23320 0.06410 0.52710 0.02200
C 	C 	0.29270 0.95600 0.50840 -0.08800
H 	H 	0.33600 0.96380 0.53710 0.05700
C 	C 	0.29150 0.88440 0.47110 0.02000
C 	C 	0.22520 0.87280 0.43040 -0.08800
H 	H 	0.22350 0.82490 0.40540 0.06400
C 	C 	0.35860 0.81840 0.47700 0.07400
C 	C 	0.37290 0.75920 0.43060 -0.14300
H 	H 	0.34360 0.76240 0.39310 0.07600
C 	C 	0.43070 0.69550 0.43990 0.07900
H 	H 	0.43810 0.65610 0.40830 -0.01500
C 	C 	0.46430 0.74480 0.53560 0.08800
H 	H 	0.49540 0.74050 0.57230 -0.01400
C 	C 	0.40780 0.81130 0.53010 -0.15000
H 	H 	0.40310 0.85080 0.56190 0.07900
N 	N 	0.62060 0.62430 0.41180 -0.24100
N 	N 	0.99260 0.95560 0.31600 -0.20400
N 	N 	0.05330 0.98760 0.35510 -0.12200
N 	N 	0.05590 0.85080 0.35960 -0.10700
N 	N 	0.07570 0.76870 0.38010 -0.22300
H 	H 	0.02830 0.74120 0.38850 0.11800
H 	H 	0.10360 0.74200 0.35000 0.11600
N 	N 	0.47630 0.68760 0.49190 -0.23300
C 	C 	0.79940 0.15530 0.17240 0.07900
H 	H 	0.76860 0.13710 0.20680 -0.02200
C 	C 	0.76550 0.21580 0.13480 -0.16300
H 	H 	0.71250 0.23700 0.14400 0.08300
C 	C 	0.80890 0.24630 0.08290 0.10000
C 	C 	0.88460 0.20250 0.06930 -0.16900
H 	H 	0.91450 0.21490 0.03310 0.08400
C 	C 	0.91350 0.14220 0.10950 0.09900
H 	H 	0.96320 0.11460 0.09910 -0.01700
C 	C 	0.77920 0.31750 0.04580 -0.05800
C 	C 	0.80940 0.33560 0.98570 0.00600
H 	H 	0.85020 0.30110 0.96790 0.03500
C 	C 	0.77970 0.40350 0.95290 -0.07500
H 	H 	0.79940 0.41350 0.91270 0.05500
C 	C 	0.72050 0.45770 0.97910 0.00500
H 	H 	0.70260 0.50510 0.95740 0.03500
C 	C 	0.68870 0.43980 0.03800 -0.06900
C 	C 	0.71790 0.37040 0.07030 -0.02300
H 	H 	0.69590 0.35890 0.10970 0.03400
C 	C 	0.62620 0.49470 0.06840 0.10800
C 	C 	0.57630 0.59180 0.13200 0.08800
C 	C 	0.56830 0.66080 0.17610 0.02500
C 	C 	0.49670 0.66330 0.21260 -0.08800
H 	H 	0.45690 0.62060 0.21000 0.06200
C 	C 	0.48470 0.73050 0.25320 0.00700
H 	H 	0.43590 0.73320 0.27710 0.02200
C 	C 	0.54400 0.79270 0.25840 -0.08500
H 	H 	0.53620 0.83600 0.28710 0.05700
C 	C 	0.61560 0.79150 0.22110 0.01900
C 	C 	0.62720 0.72520 0.18040 -0.08900
H 	H 	0.67510 0.72350 0.15540 0.06400
C 	C 	0.68160 0.85860 0.22700 0.07400
C 	C 	0.74080 0.87290 0.18060 -0.14200
H 	H 	0.73760 0.84360 0.14310 0.07500
C 	C 	0.80450 0.93070 0.18990 0.07900
H 	H 	0.84390 0.93810 0.15830 -0.01500
C 	C 	0.75520 0.96430 0.28560 0.08700
H 	H 	0.75950 0.99540 0.32230 -0.01300
C 	C 	0.68870 0.90780 0.28010 -0.14900
H 	H 	0.64920 0.90310 0.31190 0.08000
N 	N 	0.87570 0.12060 0.16180 -0.24500
N 	N 	0.54440 0.49260 0.06600 -0.21200
N 	N 	0.51240 0.55330 0.10510 -0.12100
N 	N 	0.64920 0.55590 0.10960 -0.10900
N 	N 	0.73130 0.57570 0.13010 -0.22100
H 	H 	0.75880 0.52830 0.13850 0.11700
H 	H 	0.75800 0.60360 0.10000 0.11200
N 	N 	0.81240 0.97630 0.24190 -0.23200
C 	C 	0.20060 0.84470 0.67240 0.06900
H 	H 	0.23140 0.86290 0.70680 -0.01800
C 	C 	0.23450 0.78420 0.63480 -0.14300
H 	H 	0.28750 0.76300 0.64400 0.07600
C 	C 	0.19110 0.75370 0.58290 0.07100
C 	C 	0.11540 0.79750 0.56930 -0.14800
H 	H 	0.08550 0.78510 0.53310 0.08300
C 	C 	0.08650 0.85780 0.60950 0.09000
H 	H 	0.03680 0.88540 0.59910 -0.01200
C 	C 	0.22080 0.68250 0.54580 0.01400
C 	C 	0.19060 0.66440 0.48570 -0.08300
H 	H 	0.14980 0.69890 0.46790 0.06000
C 	C 	0.22030 0.59650 0.45290 -0.00000
H 	H 	0.20060 0.58650 0.41270 0.02700
C 	C 	0.27950 0.54230 0.47910 -0.08200
H 	H 	0.29740 0.49490 0.45740 0.06000
C 	C 	0.31130 0.56020 0.53800 -0.00000
C 	C 	0.28210 0.62960 0.57030 -0.07900
H 	H 	0.30410 0.64110 0.60970 0.05400
C 	C 	0.37380 0.50530 0.56840 0.09200
C 	C 	0.42370 0.40820 0.63200 0.09000
C 	C 	0.43170 0.33920 0.67610 0.02600
C 	C 	0.50330 0.33670 0.71260 -0.08900
H 	H 	0.54310 0.37940 0.71000 0.06200
C 	C 	0.51530 0.26950 0.75320 0.00700
H 	H 	0.56410 0.26680 0.77710 0.02200
C 	C 	0.45600 0.20730 0.75840 -0.08500
H 	H 	0.46380 0.16400 0.78710 0.05800
C 	C 	0.38440 0.20850 0.72110 0.02000
C 	C 	0.37280 0.27480 0.68040 -0.08900
H 	H 	0.32490 0.27650 0.65540 0.06500
C 	C 	0.31840 0.14140 0.72700 0.07500
C 	C 	0.25920 0.12710 0.68060 -0.14300
H 	H 	0.26240 0.15640 0.64310 0.07700
C 	C 	0.19550 0.06930 0.68990 0.07900
H 	H 	0.15610 0.06190 0.65830 -0.01400
C 	C 	0.24480 0.03570 0.78560 0.08800
H 	H 	0.24050 0.00460 0.82230 -0.01200
C 	C 	0.31130 0.09220 0.78010 -0.15000
H 	H 	0.35080 0.09690 0.81190 0.08100
N 	N 	0.12430 0.87940 0.66180 -0.24100
N 	N 	0.45560 0.50740 0.56600 -0.20500
N 	N 	0.48760 0.44670 0.60510 -0.12000
N 	N 	0.35080 0.44410 0.60960 -0.10500
N 	N 	0.26870 0.42430 0.63010 -0.22300
H 	H 	0.24120 0.47170 0.63850 0.11900
H 	H 	0.24200 0.39640 0.60000 0.11700
N 	N 	0.18760 0.02370 0.74190 -0.23200
Cd	Cd	0.05948 0.94052 0.75000 1.19000
Cd	Cd	0.94052 0.05948 0.25000 1.19000
Cd	Cd	0.55948 0.55948 0.50000 1.19200
Cd	Cd	0.44052 0.44052 -0.00000 1.18500
