data_crystal

_cell_length_a 15.84750
_cell_length_b 15.84750
_cell_length_c 21.60100
_cell_angle_alpha 90.00000
_cell_angle_beta  90.00000
_cell_angle_gamma 90.00000

_symmetry_space_group_name_	'P 1'
_symmetry_space_group_name_H-M	'P 1'

loop_
_symmetry_equiv_pos_as_xyz
  x,y,z

loop_
_atom_site_label
_atom_site_type_symbol
_atom_site_fract_x
_atom_site_fract_y
_atom_site_fract_z
_atom_site_charge
C 	C 	0.53730 0.25550 0.03600 0.06100
H 	H 	0.50600 0.26030 0.07330 -0.00600
C 	C 	0.56700 0.30160 0.93940 0.08300
H 	H 	0.55740 0.34020 0.90650 -0.01200
C 	C 	0.28340 0.26440 0.88570 -0.12900
H 	H 	0.26100 0.21030 0.89500 0.07300
C 	C 	0.29830 0.38240 0.82050 -0.13700
H 	H 	0.28590 0.41270 0.78360 0.07700
C 	C 	0.25510 0.30760 0.83360 0.06900
C 	C 	0.18330 0.27670 0.79660 0.01000
C 	C 	0.16800 0.30440 0.73680 -0.07100
H 	H 	0.20530 0.34390 0.71820 0.05600
C 	C 	0.09890 0.27530 0.70390 -0.01100
H 	H 	0.08910 0.29500 0.66300 0.03100
C 	C 	0.04340 0.21710 0.73040 -0.06600
H 	H 	0.99530 0.19820 0.70820 0.05200
C 	C 	0.05930 0.18740 0.78940 -0.01100
C 	C 	0.12840 0.21730 0.82200 -0.06800
H 	H 	0.13860 0.19680 0.86270 0.05100
C 	C 	0.00450 0.12560 0.81986 0.09800
C 	C 	0.90810 0.07430 0.88200 0.10100
C 	C 	0.83850 0.06580 0.92540 0.00500
C 	C 	0.83420 0.99320 0.96210 -0.03900
H 	H 	0.87700 0.95150 0.95890 0.05000
C 	C 	0.76990 0.98200 0.00190 -0.02800
H 	H 	0.76820 0.93250 0.02660 0.02900
C 	C 	0.70640 0.04110 0.00750 -0.09300
H 	H 	0.66210 0.03240 0.03640 0.05300
C 	C 	0.70690 0.11390 0.97060 0.02700
C 	C 	0.77360 0.12460 0.92950 -0.07000
H 	H 	0.77480 0.17310 0.90370 0.05800
C 	C 	0.64080 0.17950 0.97700 0.09500
C 	C 	0.62440 0.23710 0.92990 -0.13900
H 	H 	0.65260 0.23220 0.89120 0.07300
C 	C 	0.59420 0.18910 0.03020 -0.16200
H 	H 	0.60080 0.15010 0.06330 0.07800
C 	C 	0.35840 0.41220 0.86020 0.08100
H 	H 	0.38680 0.46280 0.84950 -0.00600
C 	C 	0.34320 0.29920 0.92390 0.06400
H 	H 	0.36000 0.26870 0.95970 -0.00900
N 	N 	0.00660 0.04350 0.81671 -0.20400
N 	N 	0.94600 0.01090 0.85546 -0.12300
N 	N 	0.94360 0.14790 0.86076 -0.10900
N 	N 	0.92410 0.22920 0.88110 -0.20800
H 	H 	0.97300 0.25700 0.88970 0.11300
H 	H 	0.89570 0.25710 0.85080 0.10900
N 	N 	0.37920 0.37470 0.91282 -0.23300
N 	N 	0.52440 0.31300 0.99166 -0.21700
C 	C 	0.46270 0.74450 0.53600 0.07300
H 	H 	0.49400 0.73970 0.57330 -0.00900
C 	C 	0.43300 0.69840 0.43940 0.07300
H 	H 	0.44260 0.65980 0.40650 -0.01200
C 	C 	0.71660 0.73560 0.38570 -0.13200
H 	H 	0.73900 0.78970 0.39500 0.07000
C 	C 	0.70170 0.61760 0.32050 -0.13700
H 	H 	0.71410 0.58730 0.28360 0.07700
C 	C 	0.74490 0.69240 0.33360 0.06800
C 	C 	0.81670 0.72330 0.29660 0.00900
C 	C 	0.83200 0.69560 0.23680 -0.07200
H 	H 	0.79470 0.65610 0.21820 0.05600
C 	C 	0.90110 0.72470 0.20390 -0.01100
H 	H 	0.91090 0.70500 0.16300 0.03000
C 	C 	0.95660 0.78290 0.23040 -0.06600
H 	H 	0.00470 0.80180 0.20820 0.05200
C 	C 	0.94070 0.81260 0.28940 -0.01100
C 	C 	0.87160 0.78270 0.32200 -0.06800
H 	H 	0.86140 0.80320 0.36270 0.04900
C 	C 	0.99550 0.87440 0.31986 0.09800
C 	C 	0.09190 0.92570 0.38200 0.09600
C 	C 	0.16150 0.93420 0.42540 0.01100
C 	C 	0.16580 0.00680 0.46210 -0.07200
H 	H 	0.12300 0.04850 0.45890 0.05600
C 	C 	0.23010 0.01800 0.50190 0.00000
H 	H 	0.23180 0.06750 0.52660 0.02400
C 	C 	0.29360 0.95890 0.50750 -0.07600
H 	H 	0.33790 0.96760 0.53640 0.05200
C 	C 	0.29310 0.88610 0.47060 0.01200
C 	C 	0.22640 0.87540 0.42950 -0.07500
H 	H 	0.22520 0.82690 0.40370 0.05900
C 	C 	0.35920 0.82050 0.47700 0.06900
C 	C 	0.37560 0.76290 0.42990 -0.13100
H 	H 	0.34740 0.76780 0.39120 0.07000
C 	C 	0.40580 0.81090 0.53020 -0.13400
H 	H 	0.39920 0.84990 0.56330 0.07200
C 	C 	0.64160 0.58780 0.36020 0.08100
H 	H 	0.61320 0.53720 0.34950 -0.00600
C 	C 	0.65680 0.70080 0.42390 0.06300
H 	H 	0.64000 0.73130 0.45970 -0.01500
N 	N 	0.99340 0.95650 0.31671 -0.20400
N 	N 	0.05400 0.98910 0.35546 -0.12300
N 	N 	0.05640 0.85210 0.36076 -0.10900
N 	N 	0.07590 0.77080 0.38110 -0.20900
H 	H 	0.02700 0.74300 0.38970 0.11100
H 	H 	0.10430 0.74290 0.35080 0.10900
N 	N 	0.62080 0.62530 0.41282 -0.23700
N 	N 	0.47560 0.68700 0.49166 -0.23000
C 	C 	0.24450 0.03730 0.78600 0.07300
H 	H 	0.23970 0.00600 0.82330 -0.00700
C 	C 	0.19840 0.06700 0.68940 0.07300
H 	H 	0.15980 0.05740 0.65650 -0.01100
C 	C 	0.23560 0.78340 0.63570 -0.13100
H 	H 	0.28970 0.76100 0.64500 0.07000
C 	C 	0.11760 0.79830 0.57050 -0.13700
H 	H 	0.08730 0.78590 0.53360 0.07700
C 	C 	0.19240 0.75510 0.58360 0.06800
C 	C 	0.22330 0.68330 0.54660 0.01000
C 	C 	0.19560 0.66800 0.48680 -0.07300
H 	H 	0.15610 0.70530 0.46820 0.05600
C 	C 	0.22470 0.59890 0.45390 -0.00900
H 	H 	0.20500 0.58910 0.41300 0.03000
C 	C 	0.28290 0.54340 0.48040 -0.07100
H 	H 	0.30180 0.49530 0.45820 0.05500
C 	C 	0.31260 0.55930 0.53940 -0.00900
C 	C 	0.28270 0.62840 0.57200 -0.06900
H 	H 	0.30320 0.63860 0.61270 0.04900
C 	C 	0.37440 0.50450 0.56986 0.09500
C 	C 	0.42570 0.40810 0.63200 0.09600
C 	C 	0.43420 0.33850 0.67540 0.01400
C 	C 	0.50680 0.33420 0.71210 -0.07500
H 	H 	0.54850 0.37700 0.70890 0.05600
C 	C 	0.51800 0.26990 0.75190 -0.00100
H 	H 	0.56750 0.26820 0.77660 0.02500
C 	C 	0.45890 0.20640 0.75750 -0.07400
H 	H 	0.46760 0.16210 0.78640 0.05300
C 	C 	0.38610 0.20690 0.72060 0.01200
C 	C 	0.37540 0.27360 0.67950 -0.07600
H 	H 	0.32690 0.27480 0.65370 0.05900
C 	C 	0.32050 0.14080 0.72700 0.06900
C 	C 	0.26290 0.12440 0.67990 -0.13100
H 	H 	0.26780 0.15260 0.64120 0.07000
C 	C 	0.31090 0.09420 0.78020 -0.13300
H 	H 	0.34990 0.10080 0.81330 0.07300
C 	C 	0.08780 0.85840 0.61020 0.08000
H 	H 	0.03720 0.88680 0.59950 -0.00700
C 	C 	0.20080 0.84320 0.67390 0.06200
H 	H 	0.23130 0.86000 0.70970 -0.01500
N 	N 	0.45650 0.50660 0.56671 -0.20600
N 	N 	0.48910 0.44600 0.60546 -0.12100
N 	N 	0.35210 0.44360 0.61076 -0.10800
N 	N 	0.27080 0.42410 0.63110 -0.20900
H 	H 	0.24300 0.47300 0.63970 0.11100
H 	H 	0.24290 0.39570 0.60080 0.10900
N 	N 	0.12530 0.87920 0.66282 -0.23700
N 	N 	0.18700 0.02440 0.74166 -0.22900
C 	C 	0.75550 0.96270 0.28600 0.07300
H 	H 	0.76030 0.99400 0.32330 -0.00800
C 	C 	0.80160 0.93300 0.18940 0.07300
H 	H 	0.84020 0.94260 0.15650 -0.01200
C 	C 	0.76440 0.21660 0.13570 -0.14800
H 	H 	0.71030 0.23900 0.14500 0.07600
C 	C 	0.88240 0.20170 0.07050 -0.15500
H 	H 	0.91270 0.21410 0.03360 0.07600
C 	C 	0.80760 0.24490 0.08360 0.09200
C 	C 	0.77670 0.31670 0.04660 -0.05500
C 	C 	0.80440 0.33200 0.98680 0.00400
H 	H 	0.84390 0.29470 0.96820 0.03600
C 	C 	0.77530 0.40110 0.95390 -0.06900
H 	H 	0.79500 0.41090 0.91300 0.05200
C 	C 	0.71710 0.45660 0.98040 0.00500
H 	H 	0.69820 0.50470 0.95820 0.03400
C 	C 	0.68740 0.44070 0.03940 -0.07100
C 	C 	0.71730 0.37160 0.07200 -0.02100
H 	H 	0.69680 0.36140 0.11270 0.03300
C 	C 	0.62560 0.49550 0.06986 0.11000
C 	C 	0.57430 0.59190 0.13200 0.09500
C 	C 	0.56580 0.66150 0.17540 0.01300
C 	C 	0.49320 0.66580 0.21210 -0.07500
H 	H 	0.45150 0.62300 0.20890 0.05600
C 	C 	0.48200 0.73010 0.25190 -0.00200
H 	H 	0.43250 0.73180 0.27660 0.02500
C 	C 	0.54110 0.79360 0.25750 -0.07300
H 	H 	0.53240 0.83790 0.28640 0.05200
C 	C 	0.61390 0.79310 0.22060 0.01200
C 	C 	0.62460 0.72640 0.17950 -0.07600
H 	H 	0.67310 0.72520 0.15370 0.05800
C 	C 	0.67950 0.85920 0.22700 0.06800
C 	C 	0.73710 0.87560 0.17990 -0.13000
H 	H 	0.73220 0.84740 0.14120 0.06800
C 	C 	0.68910 0.90580 0.28020 -0.13300
H 	H 	0.65010 0.89920 0.31330 0.07200
C 	C 	0.91220 0.14160 0.11020 0.08700
H 	H 	0.96280 0.11320 0.09950 -0.01200
C 	C 	0.79920 0.15680 0.17390 0.07000
H 	H 	0.76870 0.14000 0.20970 -0.01800
N 	N 	0.54350 0.49340 0.06671 -0.21200
N 	N 	0.51090 0.55400 0.10546 -0.12200
N 	N 	0.64790 0.55640 0.11076 -0.11100
N 	N 	0.72920 0.57590 0.13110 -0.20800
H 	H 	0.75700 0.52700 0.13970 0.11000
H 	H 	0.75710 0.60430 0.10080 0.10500
N 	N 	0.87470 0.12080 0.16282 -0.24100
N 	N 	0.81300 0.97560 0.24166 -0.22900
C 	C 	0.96270 0.75550 0.71400 0.07300
H 	H 	0.99400 0.76030 0.67670 -0.00800
C 	C 	0.93300 0.80160 0.81060 0.07400
H 	H 	0.94260 0.84020 0.84350 -0.01000
C 	C 	0.21660 0.76440 0.86430 -0.11600
H 	H 	0.23900 0.71030 0.85500 0.06400
C 	C 	0.20170 0.88240 0.92950 -0.12100
H 	H 	0.21410 0.91270 0.96640 0.07800
C 	C 	0.24490 0.80760 0.91640 0.04600
C 	C 	0.31670 0.77670 0.95340 0.06900
C 	C 	0.33200 0.80440 0.01320 -0.14300
H 	H 	0.29470 0.84390 0.03180 0.07500
C 	C 	0.40110 0.77530 0.04610 0.04700
H 	H 	0.41090 0.79500 0.08700 0.01100
C 	C 	0.45660 0.71710 0.01960 -0.14000
H 	H 	0.50470 0.69820 0.04180 0.07400
C 	C 	0.44070 0.68740 0.96060 0.04900
C 	C 	0.37160 0.71730 0.92800 -0.11400
H 	H 	0.36140 0.69680 0.88730 0.06400
C 	C 	0.49550 0.62560 0.93014 0.08200
C 	C 	0.59190 0.57430 0.86800 0.09800
C 	C 	0.66150 0.56580 0.82460 0.01500
C 	C 	0.66580 0.49320 0.78790 -0.07500
H 	H 	0.62300 0.45150 0.79110 0.05600
C 	C 	0.73010 0.48200 0.74810 -0.00100
H 	H 	0.73180 0.43250 0.72340 0.02400
C 	C 	0.79360 0.54110 0.74250 -0.07400
H 	H 	0.83790 0.53240 0.71360 0.05200
C 	C 	0.79310 0.61390 0.77940 0.01200
C 	C 	0.72640 0.62460 0.82050 -0.07500
H 	H 	0.72520 0.67310 0.84630 0.06000
C 	C 	0.85920 0.67950 0.77300 0.06900
C 	C 	0.87560 0.73710 0.82010 -0.13100
H 	H 	0.84740 0.73220 0.85880 0.07200
C 	C 	0.90580 0.68910 0.71980 -0.13400
H 	H 	0.89920 0.65010 0.68670 0.07200
C 	C 	0.14160 0.91220 0.88980 0.07400
H 	H 	0.11320 0.96280 0.90050 -0.00300
C 	C 	0.15680 0.79920 0.82610 0.05500
H 	H 	0.14000 0.76870 0.79030 -0.01300
N 	N 	0.49340 0.54350 0.93329 -0.19800
N 	N 	0.55400 0.51090 0.89454 -0.12000
N 	N 	0.55640 0.64790 0.88924 -0.10400
N 	N 	0.57590 0.72920 0.86890 -0.21000
H 	H 	0.52700 0.75700 0.86030 0.11200
H 	H 	0.60430 0.75710 0.89920 0.11300
N 	N 	0.12080 0.87470 0.83718 -0.23500
N 	N 	0.97560 0.81300 0.75834 -0.22900
C 	C 	0.03730 0.24450 0.21400 0.07300
H 	H 	0.00600 0.23970 0.17670 -0.00800
C 	C 	0.06700 0.19840 0.31060 0.07300
H 	H 	0.05740 0.15980 0.34350 -0.01100
C 	C 	0.78340 0.23560 0.36430 -0.13100
H 	H 	0.76100 0.28970 0.35500 0.07000
C 	C 	0.79830 0.11760 0.42950 -0.13700
H 	H 	0.78590 0.08730 0.46640 0.07700
C 	C 	0.75510 0.19240 0.41640 0.06800
C 	C 	0.68330 0.22330 0.45340 0.01000
C 	C 	0.66800 0.19560 0.51320 -0.07300
H 	H 	0.70530 0.15610 0.53180 0.05600
C 	C 	0.59890 0.22470 0.54610 -0.00900
H 	H 	0.58910 0.20500 0.58700 0.03000
C 	C 	0.54340 0.28290 0.51960 -0.07000
H 	H 	0.49530 0.30180 0.54180 0.05500
C 	C 	0.55930 0.31260 0.46060 -0.00900
C 	C 	0.62840 0.28270 0.42800 -0.06900
H 	H 	0.63860 0.30320 0.38730 0.05000
C 	C 	0.50450 0.37440 0.43014 0.09500
C 	C 	0.40810 0.42570 0.36800 0.09600
C 	C 	0.33850 0.43420 0.32460 0.01400
C 	C 	0.33420 0.50680 0.28790 -0.07500
H 	H 	0.37700 0.54850 0.29110 0.05600
C 	C 	0.26990 0.51800 0.24810 -0.00200
H 	H 	0.26820 0.56750 0.22340 0.02400
C 	C 	0.20640 0.45890 0.24250 -0.07300
H 	H 	0.16210 0.46760 0.21360 0.05100
C 	C 	0.20690 0.38610 0.27940 0.01200
C 	C 	0.27360 0.37540 0.32050 -0.07500
H 	H 	0.27480 0.32690 0.34630 0.05900
C 	C 	0.14080 0.32050 0.27300 0.06900
C 	C 	0.12440 0.26290 0.32010 -0.13100
H 	H 	0.15260 0.26780 0.35880 0.07000
C 	C 	0.09420 0.31090 0.21980 -0.13300
H 	H 	0.10080 0.34990 0.18670 0.07100
C 	C 	0.85840 0.08780 0.38980 0.08000
H 	H 	0.88680 0.03720 0.40050 -0.00700
C 	C 	0.84320 0.20080 0.32610 0.06200
H 	H 	0.86000 0.23130 0.29030 -0.01500
N 	N 	0.50660 0.45650 0.43329 -0.20600
N 	N 	0.44600 0.48910 0.39454 -0.12100
N 	N 	0.44360 0.35210 0.38924 -0.10800
N 	N 	0.42410 0.27080 0.36890 -0.20900
H 	H 	0.47300 0.24300 0.36030 0.11100
H 	H 	0.39570 0.24290 0.39920 0.10900
N 	N 	0.87920 0.12530 0.33718 -0.23700
N 	N 	0.02440 0.18700 0.25834 -0.22900
C 	C 	0.25550 0.53730 0.96400 0.08400
H 	H 	0.26030 0.50600 0.92670 -0.00900
C 	C 	0.30160 0.56700 0.06060 0.06400
H 	H 	0.34020 0.55740 0.09350 -0.00900
C 	C 	0.26440 0.28340 0.11430 -0.13300
H 	H 	0.21030 0.26100 0.10500 0.06800
C 	C 	0.38240 0.29830 0.17950 -0.13800
H 	H 	0.41270 0.28590 0.21640 0.07700
C 	C 	0.30760 0.25510 0.16640 0.06800
C 	C 	0.27670 0.18330 0.20340 0.00700
C 	C 	0.30440 0.16800 0.26320 -0.07000
H 	H 	0.34390 0.20530 0.28180 0.05500
C 	C 	0.27530 0.09890 0.29610 -0.01300
H 	H 	0.29500 0.08910 0.33700 0.03200
C 	C 	0.21710 0.04340 0.26960 -0.06500
H 	H 	0.19820 0.99530 0.29180 0.05200
C 	C 	0.18740 0.05930 0.21060 -0.01200
C 	C 	0.21730 0.12840 0.17800 -0.06700
H 	H 	0.19680 0.13860 0.13730 0.04700
C 	C 	0.12560 0.00450 0.18014 0.09700
C 	C 	0.07430 0.90810 0.11800 0.08900
C 	C 	0.06580 0.83850 0.07460 0.02800
C 	C 	0.99320 0.83420 0.03790 -0.12100
H 	H 	0.95150 0.87700 0.04110 0.06600
C 	C 	0.98200 0.76990 0.99810 0.04700
H 	H 	0.93250 0.76820 0.97340 0.01400
C 	C 	0.04110 0.70640 0.99250 -0.07700
H 	H 	0.03240 0.66210 0.96360 0.05700
C 	C 	0.11390 0.70690 0.02940 0.00900
C 	C 	0.12460 0.77360 0.07050 -0.08800
H 	H 	0.17310 0.77480 0.09630 0.06200
C 	C 	0.17950 0.64080 0.02300 0.04000
C 	C 	0.23710 0.62440 0.07010 -0.12100
H 	H 	0.23220 0.65260 0.10880 0.06600
C 	C 	0.18910 0.59420 0.96980 -0.10600
H 	H 	0.15010 0.60080 0.93670 0.06600
C 	C 	0.41220 0.35840 0.13980 0.08000
H 	H 	0.46280 0.38680 0.15050 -0.00600
C 	C 	0.29920 0.34320 0.07610 0.06100
H 	H 	0.26870 0.36000 0.04030 -0.02100
N 	N 	0.04350 0.00660 0.18329 -0.20500
N 	N 	0.01090 0.94600 0.14454 -0.12200
N 	N 	0.14790 0.94360 0.13924 -0.10800
N 	N 	0.22920 0.92410 0.11890 -0.21000
H 	H 	0.25700 0.97300 0.11030 0.10900
H 	H 	0.25710 0.89570 0.14920 0.10900
N 	N 	0.37470 0.37920 0.08718 -0.23900
N 	N 	0.31300 0.52440 0.00834 -0.24100
C 	C 	0.74450 0.46270 0.46400 0.07300
H 	H 	0.73970 0.49400 0.42670 -0.00900
C 	C 	0.69840 0.43300 0.56060 0.07300
H 	H 	0.65980 0.44260 0.59350 -0.01200
C 	C 	0.73560 0.71660 0.61430 -0.13200
H 	H 	0.78970 0.73900 0.60500 0.07000
C 	C 	0.61760 0.70170 0.67950 -0.13700
H 	H 	0.58730 0.71410 0.71640 0.07700
C 	C 	0.69240 0.74490 0.66640 0.06900
C 	C 	0.72330 0.81670 0.70340 0.00800
C 	C 	0.69560 0.83200 0.76320 -0.07000
H 	H 	0.65610 0.79470 0.78180 0.05600
C 	C 	0.72470 0.90110 0.79610 -0.01200
H 	H 	0.70500 0.91090 0.83700 0.03300
C 	C 	0.78290 0.95660 0.76960 -0.06600
H 	H 	0.80180 0.00470 0.79180 0.05200
C 	C 	0.81260 0.94070 0.71060 -0.01100
C 	C 	0.78270 0.87160 0.67800 -0.06700
H 	H 	0.80320 0.86140 0.63730 0.04900
C 	C 	0.87440 0.99550 0.68014 0.09800
C 	C 	0.92570 0.09190 0.61800 0.09600
C 	C 	0.93420 0.16150 0.57460 0.01100
C 	C 	0.00680 0.16580 0.53790 -0.07200
H 	H 	0.04850 0.12300 0.54110 0.05600
C 	C 	0.01800 0.23010 0.49810 -0.00000
H 	H 	0.06750 0.23180 0.47340 0.02400
C 	C 	0.95890 0.29360 0.49250 -0.07600
H 	H 	0.96760 0.33790 0.46360 0.05200
C 	C 	0.88610 0.29310 0.52940 0.01200
C 	C 	0.87540 0.22640 0.57050 -0.07500
H 	H 	0.82690 0.22520 0.59630 0.05800
C 	C 	0.82050 0.35920 0.52300 0.06900
C 	C 	0.76290 0.37560 0.57010 -0.13100
H 	H 	0.76780 0.34740 0.60880 0.07000
C 	C 	0.81090 0.40580 0.46980 -0.13400
H 	H 	0.84990 0.39920 0.43670 0.07200
C 	C 	0.58780 0.64160 0.63980 0.08100
H 	H 	0.53720 0.61320 0.65050 -0.00600
C 	C 	0.70080 0.65680 0.57610 0.06300
H 	H 	0.73130 0.64000 0.54030 -0.01500
N 	N 	0.95650 0.99340 0.68329 -0.20400
N 	N 	0.98910 0.05400 0.64454 -0.12300
N 	N 	0.85210 0.05640 0.63924 -0.10900
N 	N 	0.77080 0.07590 0.61890 -0.20900
H 	H 	0.74300 0.02700 0.61030 0.11100
H 	H 	0.74290 0.10430 0.64920 0.10900
N 	N 	0.62530 0.62080 0.58718 -0.23700
N 	N 	0.68700 0.47560 0.50834 -0.23000
Cd	Cd	0.05931 0.94069 0.75000 1.19000
Cd	Cd	0.94069 0.05931 0.25000 1.19000
Cd	Cd	0.55931 0.55931 0.50000 1.19100
Cd	Cd	0.44069 0.44069 -0.00000 1.18500
