data_crystal

_cell_length_a 15.90300
_cell_length_b 15.90300
_cell_length_c 21.61500
_cell_angle_alpha 90.00000
_cell_angle_beta  90.00000
_cell_angle_gamma 90.00000

_symmetry_space_group_name_	'P 1'
_symmetry_space_group_name_H-M	'P 1'

loop_
_symmetry_equiv_pos_as_xyz
  x,y,z

loop_
_atom_site_label
_atom_site_type_symbol
_atom_site_fract_x
_atom_site_fract_y
_atom_site_fract_z
_atom_site_charge
C 	C 	0.96240 0.24470 0.03510 0.07500
H 	H 	0.99340 0.24050 0.07150 -0.01000
C 	C 	0.90570 0.31060 0.02970 -0.17400
H 	H 	0.89990 0.34930 0.06170 0.08700
C 	C 	0.85790 0.31870 0.97672 0.10200
C 	C 	0.87380 0.26000 0.92998 -0.15400
H 	H 	0.84540 0.26360 0.89250 0.08200
C 	C 	0.93140 0.19700 0.93950 0.09300
H 	H 	0.94040 0.15890 0.90760 -0.01600
C 	C 	0.79160 0.38420 0.97066 0.02500
C 	C 	0.79140 0.45570 0.00770 -0.08900
H 	H 	0.83430 0.46360 0.03640 0.05400
C 	C 	0.72890 0.51490 0.00260 -0.03100
H 	H 	0.73090 0.56310 0.02690 0.03100
C 	C 	0.66310 0.50350 0.96180 -0.04700
H 	H 	0.62070 0.54360 0.95870 0.05300
C 	C 	0.66090 0.43170 0.92540 0.01200
C 	C 	0.72510 0.37210 0.92928 -0.07700
H 	H 	0.72370 0.32440 0.90440 0.06200
C 	C 	0.59090 0.42370 0.88096 0.10100
C 	C 	0.49480 0.37270 0.81911 0.09000
C 	C 	0.43920 0.31070 0.78887 0.00200
C 	C 	0.45630 0.28050 0.73017 -0.08500
H 	H 	0.50350 0.29860 0.70860 0.06100
C 	C 	0.40070 0.22200 0.70400 0.00200
H 	H 	0.41000 0.20260 0.66400 0.02700
C 	C 	0.33260 0.19310 0.73690 -0.08500
H 	H 	0.29690 0.15360 0.71900 0.06300
C 	C 	0.31630 0.22190 0.79645 0.01700
C 	C 	0.37020 0.28180 0.82144 -0.08200
H 	H 	0.35970 0.30280 0.86080 0.05700
C 	C 	0.24460 0.19120 0.83356 0.07500
C 	C 	0.20170 0.11620 0.82003 -0.14800
H 	H 	0.21370 0.08680 0.78390 0.08400
C 	C 	0.14200 0.08670 0.86027 0.08700
H 	H 	0.11500 0.03660 0.85040 -0.00900
C 	C 	0.15700 0.19950 0.92333 0.07700
H 	H 	0.14100 0.22930 0.95840 -0.01400
C 	C 	0.21660 0.23400 0.88561 -0.14600
H 	H 	0.23860 0.28670 0.89490 0.07900
N 	N 	0.55380 0.48733 0.85469 -0.12300
N 	N 	0.49271 0.45517 0.81577 -0.20400
N 	N 	0.55570 0.35061 0.85993 -0.11000
N 	N 	0.57520 0.26880 0.88073 -0.21000
N 	N 	0.97525 0.18710 0.99143 -0.22100
N 	N 	0.12030 0.12510 0.91255 -0.23600
H 	H 	0.59960 0.24400 0.84770 0.11200
H 	H 	0.52390 0.24440 0.88670 0.11400
C 	C 	0.03760 0.75530 0.53510 0.08500
H 	H 	0.00660 0.75950 0.57150 -0.01200
C 	C 	0.09430 0.68940 0.52970 -0.14900
H 	H 	0.10010 0.65070 0.56170 0.08000
C 	C 	0.14210 0.68130 0.47672 0.07600
C 	C 	0.12620 0.74000 0.42998 -0.14500
H 	H 	0.15460 0.73640 0.39250 0.07800
C 	C 	0.06860 0.80300 0.43950 0.08300
H 	H 	0.05960 0.84110 0.40760 -0.01500
C 	C 	0.20840 0.61580 0.47066 0.01700
C 	C 	0.20860 0.54430 0.50770 -0.08300
H 	H 	0.16570 0.53640 0.53640 0.05600
C 	C 	0.27110 0.48510 0.50260 0.00600
H 	H 	0.26910 0.43690 0.52690 0.02300
C 	C 	0.33690 0.49650 0.46180 -0.08700
H 	H 	0.37930 0.45640 0.45870 0.06100
C 	C 	0.33910 0.56830 0.42540 0.02300
C 	C 	0.27490 0.62790 0.42928 -0.08700
H 	H 	0.27630 0.67560 0.40440 0.06400
C 	C 	0.40910 0.57630 0.38096 0.09500
C 	C 	0.50520 0.62730 0.31911 0.08900
C 	C 	0.56080 0.68930 0.28887 0.00200
C 	C 	0.54370 0.71950 0.23017 -0.08500
H 	H 	0.49650 0.70140 0.20860 0.06100
C 	C 	0.59930 0.77800 0.20400 0.00300
H 	H 	0.59000 0.79740 0.16400 0.02500
C 	C 	0.66740 0.80690 0.23690 -0.08600
H 	H 	0.70310 0.84640 0.21900 0.06300
C 	C 	0.68370 0.77810 0.29645 0.01600
C 	C 	0.62980 0.71820 0.32144 -0.08200
H 	H 	0.64030 0.69720 0.36080 0.05500
C 	C 	0.75540 0.80880 0.33356 0.07500
C 	C 	0.79830 0.88380 0.32003 -0.14900
H 	H 	0.78630 0.91320 0.28390 0.08400
C 	C 	0.85800 0.91330 0.36027 0.08600
H 	H 	0.88500 0.96340 0.35040 -0.01000
C 	C 	0.84300 0.80050 0.42333 0.07600
H 	H 	0.85900 0.77070 0.45840 -0.02100
C 	C 	0.78340 0.76600 0.38561 -0.14800
H 	H 	0.76140 0.71330 0.39490 0.07700
N 	N 	0.44620 0.51267 0.35469 -0.12200
N 	N 	0.50729 0.54483 0.31577 -0.20500
N 	N 	0.44430 0.64939 0.35993 -0.11000
N 	N 	0.42480 0.73120 0.38073 -0.21200
N 	N 	0.02475 0.81290 0.49143 -0.23100
N 	N 	0.87970 0.87490 0.41255 -0.24000
H 	H 	0.40040 0.75600 0.34770 0.11200
H 	H 	0.47610 0.75560 0.38670 0.11200
C 	C 	0.25530 0.46240 0.78510 0.08500
H 	H 	0.25950 0.49340 0.82150 -0.01200
C 	C 	0.18940 0.40570 0.77970 -0.14900
H 	H 	0.15070 0.39990 0.81170 0.08100
C 	C 	0.18130 0.35790 0.72672 0.07600
C 	C 	0.24000 0.37380 0.67998 -0.14600
H 	H 	0.23640 0.34540 0.64250 0.07800
C 	C 	0.30300 0.43140 0.68950 0.08300
H 	H 	0.34110 0.44040 0.65760 -0.01600
C 	C 	0.11580 0.29160 0.72066 0.01600
C 	C 	0.04430 0.29140 0.75770 -0.08200
H 	H 	0.03640 0.33430 0.78640 0.05700
C 	C 	0.98510 0.22890 0.75260 0.00400
H 	H 	0.93690 0.23090 0.77690 0.02300
C 	C 	0.99650 0.16310 0.71180 -0.08500
H 	H 	0.95640 0.12070 0.70870 0.06100
C 	C 	0.06830 0.16090 0.67540 0.02200
C 	C 	0.12790 0.22510 0.67928 -0.08600
H 	H 	0.17560 0.22370 0.65440 0.06400
C 	C 	0.07630 0.09090 0.63096 0.09500
C 	C 	0.12730 0.99480 0.56911 0.09400
C 	C 	0.18930 0.93920 0.53887 -0.00400
C 	C 	0.21950 0.95630 0.48017 -0.07300
H 	H 	0.20140 0.00350 0.45860 0.05400
C 	C 	0.27800 0.90070 0.45400 -0.00600
H 	H 	0.29740 0.91000 0.41400 0.03000
C 	C 	0.30690 0.83260 0.48690 -0.07900
H 	H 	0.34640 0.79690 0.46900 0.06100
C 	C 	0.27810 0.81630 0.54645 0.01200
C 	C 	0.21820 0.87020 0.57144 -0.07700
H 	H 	0.19720 0.85970 0.61080 0.05400
C 	C 	0.30880 0.74460 0.58356 0.07700
C 	C 	0.38380 0.70170 0.57003 -0.15000
H 	H 	0.41320 0.71370 0.53390 0.08400
C 	C 	0.41330 0.64200 0.61027 0.08700
H 	H 	0.46340 0.61500 0.60040 -0.00900
C 	C 	0.30050 0.65700 0.67333 0.07700
H 	H 	0.27070 0.64100 0.70840 -0.02100
C 	C 	0.26600 0.71660 0.63561 -0.14900
H 	H 	0.21330 0.73860 0.64490 0.07800
N 	N 	0.01267 0.05380 0.60469 -0.12400
N 	N 	0.04483 0.99271 0.56577 -0.20300
N 	N 	0.14939 0.05570 0.60993 -0.11200
N 	N 	0.23120 0.07520 0.63073 -0.21200
N 	N 	0.31290 0.47525 0.74143 -0.23300
N 	N 	0.37490 0.62030 0.66255 -0.24000
H 	H 	0.25600 0.09960 0.59770 0.11200
H 	H 	0.25560 0.02390 0.63670 0.11100
C 	C 	0.74470 0.53760 0.28510 0.08400
H 	H 	0.74050 0.50660 0.32150 -0.01300
C 	C 	0.81060 0.59430 0.27970 -0.14900
H 	H 	0.84930 0.60010 0.31170 0.07900
C 	C 	0.81870 0.64210 0.22672 0.07500
C 	C 	0.76000 0.62620 0.17998 -0.14500
H 	H 	0.76360 0.65460 0.14250 0.07600
C 	C 	0.69700 0.56860 0.18950 0.08300
H 	H 	0.65890 0.55960 0.15760 -0.01700
C 	C 	0.88420 0.70840 0.22066 0.01700
C 	C 	0.95570 0.70860 0.25770 -0.08600
H 	H 	0.96360 0.66570 0.28640 0.05700
C 	C 	0.01490 0.77110 0.25260 0.00800
H 	H 	0.06310 0.76910 0.27690 0.02200
C 	C 	0.00350 0.83690 0.21180 -0.08300
H 	H 	0.04360 0.87930 0.20870 0.06100
C 	C 	0.93170 0.83910 0.17540 0.01900
C 	C 	0.87210 0.77490 0.17928 -0.08600
H 	H 	0.82440 0.77630 0.15440 0.06300
C 	C 	0.92370 0.90910 0.13096 0.09400
C 	C 	0.87270 0.00520 0.06911 0.10800
C 	C 	0.81070 0.06080 0.03887 -0.06900
C 	C 	0.78050 0.04370 0.98017 0.00900
H 	H 	0.79860 0.99650 0.95860 0.03000
C 	C 	0.72200 0.09930 0.95400 -0.07500
H 	H 	0.70260 0.09000 0.91400 0.05600
C 	C 	0.69310 0.16740 0.98690 0.00500
H 	H 	0.65360 0.20310 0.96900 0.03700
C 	C 	0.72190 0.18370 0.04645 -0.05700
C 	C 	0.78180 0.12980 0.07144 -0.02300
H 	H 	0.80280 0.14030 0.11080 0.03400
C 	C 	0.69120 0.25540 0.08356 0.10400
C 	C 	0.61620 0.29830 0.07003 -0.17000
H 	H 	0.58680 0.28630 0.03390 0.08500
C 	C 	0.58670 0.35800 0.11027 0.09600
H 	H 	0.53660 0.38500 0.10040 -0.01500
C 	C 	0.69950 0.34300 0.17333 0.08600
H 	H 	0.72930 0.35900 0.20840 -0.02400
C 	C 	0.73400 0.28340 0.13561 -0.16900
H 	H 	0.78670 0.26140 0.14490 0.08500
N 	N 	0.98733 0.94620 0.10469 -0.12400
N 	N 	0.95517 0.00729 0.06577 -0.21000
N 	N 	0.85061 0.94430 0.10993 -0.11400
N 	N 	0.76880 0.92480 0.13073 -0.21100
N 	N 	0.68710 0.52475 0.24143 -0.23300
N 	N 	0.62510 0.37970 0.16255 -0.24400
H 	H 	0.74400 0.90040 0.09770 0.10800
H 	H 	0.74440 0.97610 0.13670 0.11100
C 	C 	0.53760 0.74470 0.71490 0.08500
H 	H 	0.50660 0.74050 0.67850 -0.01300
C 	C 	0.59430 0.81060 0.72030 -0.14900
H 	H 	0.60010 0.84930 0.68830 0.07900
C 	C 	0.64210 0.81870 0.77328 0.07600
C 	C 	0.62620 0.76000 0.82002 -0.14600
H 	H 	0.65460 0.76360 0.85750 0.07900
C 	C 	0.56860 0.69700 0.81050 0.08400
H 	H 	0.55960 0.65890 0.84240 -0.01500
C 	C 	0.70840 0.88420 0.77934 0.01700
C 	C 	0.70860 0.95570 0.74230 -0.08500
H 	H 	0.66570 0.96360 0.71360 0.05700
C 	C 	0.77110 0.01490 0.74740 0.00700
H 	H 	0.76910 0.06310 0.72310 0.02200
C 	C 	0.83690 0.00350 0.78820 -0.08300
H 	H 	0.87930 0.04360 0.79130 0.06100
C 	C 	0.83910 0.93170 0.82460 0.02000
C 	C 	0.77490 0.87210 0.82072 -0.08500
H 	H 	0.77630 0.82440 0.84560 0.06500
C 	C 	0.90910 0.92370 0.86904 0.09700
C 	C 	0.00520 0.87270 0.93089 0.08000
C 	C 	0.06080 0.81070 0.96113 0.06000
C 	C 	0.04370 0.78050 0.01983 -0.15300
H 	H 	0.99650 0.79860 0.04140 0.07900
C 	C 	0.09930 0.72200 0.04600 0.06300
H 	H 	0.09000 0.70260 0.08600 0.00500
C 	C 	0.16740 0.69310 0.01310 -0.16100
H 	H 	0.20310 0.65360 0.03100 0.08400
C 	C 	0.18370 0.72190 0.95355 0.07900
C 	C 	0.12980 0.78180 0.92856 -0.13000
H 	H 	0.14030 0.80280 0.88920 0.07200
C 	C 	0.25540 0.69120 0.91644 0.05000
C 	C 	0.29830 0.61620 0.92997 -0.13100
H 	H 	0.28630 0.58680 0.96610 0.08400
C 	C 	0.35800 0.58670 0.88973 0.07900
H 	H 	0.38500 0.53660 0.89960 -0.00400
C 	C 	0.34300 0.69950 0.82667 0.06700
H 	H 	0.35900 0.72930 0.79160 -0.01700
C 	C 	0.28340 0.73400 0.86439 -0.13000
H 	H 	0.26140 0.78670 0.85510 0.07100
N 	N 	0.94620 0.98733 0.89531 -0.12400
N 	N 	0.00729 0.95517 0.93423 -0.19500
N 	N 	0.94430 0.85061 0.89007 -0.10900
N 	N 	0.92480 0.76880 0.86927 -0.21300
N 	N 	0.52475 0.68710 0.75857 -0.23300
N 	N 	0.37970 0.62510 0.83745 -0.23600
H 	H 	0.90040 0.74400 0.90230 0.11500
H 	H 	0.97610 0.74440 0.86330 0.11200
C 	C 	0.46240 0.25530 0.21490 0.08400
H 	H 	0.49340 0.25950 0.17850 -0.01400
C 	C 	0.40570 0.18940 0.22030 -0.14900
H 	H 	0.39990 0.15070 0.18830 0.07800
C 	C 	0.35790 0.18130 0.27328 0.07500
C 	C 	0.37380 0.24000 0.32002 -0.14500
H 	H 	0.34540 0.23640 0.35750 0.07700
C 	C 	0.43140 0.30300 0.31050 0.08300
H 	H 	0.44040 0.34110 0.34240 -0.01600
C 	C 	0.29160 0.11580 0.27934 0.01700
C 	C 	0.29140 0.04430 0.24230 -0.08700
H 	H 	0.33430 0.03640 0.21360 0.05600
C 	C 	0.22890 0.98510 0.24740 0.00900
H 	H 	0.23090 0.93690 0.22310 0.02200
C 	C 	0.16310 0.99650 0.28820 -0.08300
H 	H 	0.12070 0.95640 0.29130 0.06100
C 	C 	0.16090 0.06830 0.32460 0.01900
C 	C 	0.22510 0.12790 0.32072 -0.08600
H 	H 	0.22370 0.17560 0.34560 0.06400
C 	C 	0.09090 0.07630 0.36904 0.09500
C 	C 	0.99480 0.12730 0.43089 0.09100
C 	C 	0.93920 0.18930 0.46113 -0.00000
C 	C 	0.95630 0.21950 0.51983 -0.08100
H 	H 	0.00350 0.20140 0.54140 0.05900
C 	C 	0.90070 0.27800 0.54600 -0.00100
H 	H 	0.91000 0.29740 0.58600 0.02800
C 	C 	0.83260 0.30690 0.51310 -0.08300
H 	H 	0.79690 0.34640 0.53100 0.06200
C 	C 	0.81630 0.27810 0.45355 0.01400
C 	C 	0.87020 0.21820 0.42856 -0.08000
H 	H 	0.85970 0.19720 0.38920 0.05400
C 	C 	0.74460 0.30880 0.41644 0.07600
C 	C 	0.70170 0.38380 0.42997 -0.14900
H 	H 	0.71370 0.41320 0.46610 0.08400
C 	C 	0.64200 0.41330 0.38973 0.08700
H 	H 	0.61500 0.46340 0.39960 -0.00900
C 	C 	0.65700 0.30050 0.32667 0.07600
H 	H 	0.64100 0.27070 0.29160 -0.02100
C 	C 	0.71660 0.26600 0.36439 -0.14900
H 	H 	0.73860 0.21330 0.35510 0.07800
N 	N 	0.05380 0.01267 0.39531 -0.12400
N 	N 	0.99271 0.04483 0.43423 -0.20400
N 	N 	0.05570 0.14939 0.39007 -0.11100
N 	N 	0.07520 0.23120 0.36927 -0.21200
N 	N 	0.47525 0.31290 0.25857 -0.23300
N 	N 	0.62030 0.37490 0.33745 -0.24000
H 	H 	0.09960 0.25600 0.40230 0.11200
H 	H 	0.02390 0.25560 0.36330 0.11200
C 	C 	0.24470 0.96240 0.96490 0.09500
H 	H 	0.24050 0.99340 0.92850 -0.01400
C 	C 	0.31060 0.90570 0.97030 -0.12300
H 	H 	0.34930 0.89990 0.93830 0.07300
C 	C 	0.31870 0.85790 0.02328 0.05100
C 	C 	0.26000 0.87380 0.07002 -0.13600
H 	H 	0.26360 0.84540 0.10750 0.07400
C 	C 	0.19700 0.93140 0.06050 0.07400
H 	H 	0.15890 0.94040 0.09240 -0.01300
C 	C 	0.38420 0.79160 0.02934 0.00900
C 	C 	0.45570 0.79140 0.99230 -0.07700
H 	H 	0.46360 0.83430 0.96360 0.05800
C 	C 	0.51490 0.72890 0.99740 0.04200
H 	H 	0.56310 0.73090 0.97310 0.01500
C 	C 	0.50350 0.66310 0.03820 -0.12700
H 	H 	0.54360 0.62070 0.04130 0.07000
C 	C 	0.43170 0.66090 0.07460 0.03500
C 	C 	0.37210 0.72510 0.07072 -0.09600
H 	H 	0.32440 0.72370 0.09560 0.06700
C 	C 	0.42370 0.59090 0.11904 0.08900
C 	C 	0.37270 0.49480 0.18089 0.08900
C 	C 	0.31070 0.43920 0.21113 0.00000
C 	C 	0.28050 0.45630 0.26983 -0.08300
H 	H 	0.29860 0.50350 0.29140 0.06000
C 	C 	0.22200 0.40070 0.29600 0.00100
H 	H 	0.20260 0.41000 0.33600 0.02800
C 	C 	0.19310 0.33260 0.26310 -0.08400
H 	H 	0.15360 0.29690 0.28100 0.06200
C 	C 	0.22190 0.31630 0.20355 0.01400
C 	C 	0.28180 0.37020 0.17856 -0.08000
H 	H 	0.30280 0.35970 0.13920 0.05200
C 	C 	0.19120 0.24460 0.16644 0.07500
C 	C 	0.11620 0.20170 0.17997 -0.15000
H 	H 	0.08680 0.21370 0.21610 0.08400
C 	C 	0.08670 0.14200 0.13973 0.08600
H 	H 	0.03660 0.11500 0.14960 -0.01000
C 	C 	0.19950 0.15700 0.07667 0.07500
H 	H 	0.22930 0.14100 0.04160 -0.02700
C 	C 	0.23400 0.21660 0.11439 -0.15000
H 	H 	0.28670 0.23860 0.10510 0.07500
N 	N 	0.48733 0.55380 0.14531 -0.12200
N 	N 	0.45517 0.49271 0.18423 -0.20500
N 	N 	0.35061 0.55570 0.14007 -0.10900
N 	N 	0.26880 0.57520 0.11927 -0.21300
N 	N 	0.18710 0.97525 0.00857 -0.24100
N 	N 	0.12510 0.12030 0.08745 -0.24200
H 	H 	0.24400 0.59960 0.15230 0.11200
H 	H 	0.24440 0.52390 0.11330 0.11000
C 	C 	0.75530 0.03760 0.46490 0.08500
H 	H 	0.75950 0.00660 0.42850 -0.01300
C 	C 	0.68940 0.09430 0.47030 -0.14900
H 	H 	0.65070 0.10010 0.43830 0.07900
C 	C 	0.68130 0.14210 0.52328 0.07600
C 	C 	0.74000 0.12620 0.57002 -0.14500
H 	H 	0.73640 0.15460 0.60750 0.07800
C 	C 	0.80300 0.06860 0.56050 0.08300
H 	H 	0.84110 0.05960 0.59240 -0.01600
C 	C 	0.61580 0.20840 0.52934 0.01700
C 	C 	0.54430 0.20860 0.49230 -0.08300
H 	H 	0.53640 0.16570 0.46360 0.05600
C 	C 	0.48510 0.27110 0.49740 0.00500
H 	H 	0.43690 0.26910 0.47310 0.02300
C 	C 	0.49650 0.33690 0.53820 -0.08700
H 	H 	0.45640 0.37930 0.54130 0.06100
C 	C 	0.56830 0.33910 0.57460 0.02300
C 	C 	0.62790 0.27490 0.57072 -0.08700
H 	H 	0.67560 0.27630 0.59560 0.06400
C 	C 	0.57630 0.40910 0.61904 0.09500
C 	C 	0.62730 0.50520 0.68089 0.09000
C 	C 	0.68930 0.56080 0.71113 0.00100
C 	C 	0.71950 0.54370 0.76983 -0.08300
H 	H 	0.70140 0.49650 0.79140 0.06000
C 	C 	0.77800 0.59930 0.79600 0.00000
H 	H 	0.79740 0.59000 0.83600 0.02900
C 	C 	0.80690 0.66740 0.76310 -0.08300
H 	H 	0.84640 0.70310 0.78100 0.06200
C 	C 	0.77810 0.68370 0.70355 0.01500
C 	C 	0.71820 0.62980 0.67856 -0.08100
H 	H 	0.69720 0.64030 0.63920 0.05400
C 	C 	0.80880 0.75540 0.66644 0.07500
C 	C 	0.88380 0.79830 0.67997 -0.15000
H 	H 	0.91320 0.78630 0.71610 0.08400
C 	C 	0.91330 0.85800 0.63973 0.08600
H 	H 	0.96340 0.88500 0.64960 -0.01100
C 	C 	0.80050 0.84300 0.57667 0.07600
H 	H 	0.77070 0.85900 0.54160 -0.02100
C 	C 	0.76600 0.78340 0.61439 -0.14800
H 	H 	0.71330 0.76140 0.60510 0.07700
N 	N 	0.51267 0.44620 0.64531 -0.12200
N 	N 	0.54483 0.50729 0.68423 -0.20500
N 	N 	0.64939 0.44430 0.64007 -0.11000
N 	N 	0.73120 0.42480 0.61927 -0.21200
N 	N 	0.81290 0.02475 0.50857 -0.23200
N 	N 	0.87490 0.87970 0.58745 -0.24000
H 	H 	0.75600 0.40040 0.65230 0.11200
H 	H 	0.75560 0.47610 0.61330 0.11200
Cd	Cd	0.44103 0.55897 0.75000 1.19100
Cd	Cd	0.55897 0.44103 0.25000 1.19100
Cd	Cd	0.94103 0.94103 0.50000 1.18900
Cd	Cd	0.05897 0.05897 -0.00000 1.18300
