data_crystal

_cell_length_a 13.85400
_cell_length_b 10.83200
_cell_length_c 18.73100
_cell_angle_alpha 90.00000
_cell_angle_beta  130.62400
_cell_angle_gamma 90.00000

_symmetry_space_group_name_	'P 1'
_symmetry_space_group_name_H-M	'P 1'

loop_
_symmetry_equiv_pos_as_xyz
  x,y,z

loop_
_atom_site_label
_atom_site_type_symbol
_atom_site_fract_x
_atom_site_fract_y
_atom_site_fract_z
_atom_site_charge
N 	N 	0.34450 0.09220 0.68790 -0.24100
N 	N 	0.23870 0.26280 0.60770 -0.12500
N 	N 	0.00690 0.81370 0.65990 -0.24200
O 	O 	0.88230 0.52440 0.62960 -0.36200
O 	O 	0.81230 0.58940 0.69960 -0.37700
O 	O 	0.63990 0.18900 0.38530 -0.36700
O 	O 	0.45070 0.14570 0.33170 -0.39500
S 	S 	0.39397 0.16520 0.57785 -0.05700
C 	C 	0.42330 0.32520 0.57430 -0.20500
H 	H 	0.34360 0.36710 0.52630 0.10200
H 	H 	0.46220 0.36340 0.63450 0.09800
C 	C 	0.51070 0.33720 0.55260 0.10600
C 	C 	0.61280 0.41760 0.60510 -0.10300
H 	H 	0.62630 0.46410 0.65260 0.08600
C 	C 	0.69550 0.42940 0.58740 -0.02300
C 	C 	0.67770 0.35670 0.51830 -0.03800
H 	H 	0.73510 0.36150 0.50830 0.06800
C 	C 	0.57440 0.27710 0.46430 -0.03300
C 	C 	0.48990 0.26890 0.48070 -0.09400
H 	H 	0.41930 0.21760 0.44340 0.07900
C 	C 	0.80340 0.51950 0.64250 0.27700
C 	C 	0.55420 0.19970 0.38950 0.30400
C 	C 	0.32240 0.17480 0.62730 0.09400
C 	C 	0.26990 0.12850 0.71010 0.06300
C 	C 	0.25680 0.07790 0.77190 -0.11100
H 	H 	0.30010 0.00680 0.80630 0.07600
C 	C 	0.17640 0.13850 0.77920 -0.00700
H 	H 	0.16640 0.10830 0.82050 0.03300
C 	C 	0.10910 0.24420 0.72660 -0.02600
H 	H 	0.05440 0.28090 0.73290 0.04400
C 	C 	0.12100 0.29460 0.66680 -0.08400
H 	H 	0.07670 0.36520 0.63220 0.07700
C 	C 	0.20380 0.23440 0.65990 0.06000
C 	C 	0.08540 0.79270 0.64270 0.07900
H 	H 	0.14280 0.72770 0.67390 0.00600
C 	C 	0.08580 0.86230 0.58130 -0.13500
H 	H 	0.14190 0.84340 0.57150 0.08800
C 	C 	0.00170 0.96130 0.53370 0.06700
C 	C 	0.92280 0.98490 0.55360 -0.14400
H 	H 	0.86660 0.05110 0.52530 0.08700
C 	C 	0.92790 0.90990 0.61550 0.08400
H 	H 	0.87340 0.92720 0.62700 -0.02200
N 	N 	0.65550 0.09220 0.81210 -0.24100
N 	N 	0.76130 0.26280 0.89230 -0.12600
N 	N 	0.99310 0.81370 0.84010 -0.24500
O 	O 	0.11770 0.52440 0.87040 -0.36000
O 	O 	0.18770 0.58940 0.80040 -0.37600
O 	O 	0.36010 0.18900 0.11470 -0.36800
O 	O 	0.54930 0.14570 0.16830 -0.39500
S 	S 	0.60603 0.16520 0.92215 -0.05800
C 	C 	0.57670 0.32520 0.92570 -0.20500
H 	H 	0.65640 0.36710 0.97370 0.10100
H 	H 	0.53780 0.36340 0.86550 0.09700
C 	C 	0.48930 0.33720 0.94740 0.10500
C 	C 	0.38720 0.41760 0.89490 -0.10300
H 	H 	0.37370 0.46410 0.84740 0.08600
C 	C 	0.30450 0.42940 0.91260 -0.02300
C 	C 	0.32230 0.35670 0.98170 -0.03700
H 	H 	0.26490 0.36150 0.99170 0.06800
C 	C 	0.42560 0.27710 0.03570 -0.03500
C 	C 	0.51010 0.26890 0.01930 -0.09500
H 	H 	0.58070 0.21760 0.05660 0.07900
C 	C 	0.19660 0.51950 0.85750 0.27700
C 	C 	0.44580 0.19970 0.11050 0.30400
C 	C 	0.67760 0.17480 0.87270 0.09400
C 	C 	0.73010 0.12850 0.78990 0.06300
C 	C 	0.74320 0.07790 0.72810 -0.11100
H 	H 	0.69990 0.00680 0.69370 0.07600
C 	C 	0.82360 0.13850 0.72080 -0.00800
H 	H 	0.83360 0.10830 0.67950 0.03300
C 	C 	0.89090 0.24420 0.77340 -0.02600
H 	H 	0.94560 0.28090 0.76710 0.04400
C 	C 	0.87900 0.29460 0.83320 -0.08400
H 	H 	0.92330 0.36520 0.86780 0.07700
C 	C 	0.79620 0.23440 0.84010 0.06000
C 	C 	0.91460 0.79270 0.85730 0.07500
H 	H 	0.85720 0.72770 0.82610 0.00700
C 	C 	0.91420 0.86230 0.91870 -0.13200
H 	H 	0.85810 0.84340 0.92850 0.08600
C 	C 	0.99830 0.96130 0.96630 0.05800
C 	C 	0.07720 0.98490 0.94640 -0.13000
H 	H 	0.13340 0.05110 0.97470 0.08100
C 	C 	0.07210 0.90990 0.88450 0.08400
H 	H 	0.12660 0.92720 0.87300 -0.02100
N 	N 	0.65550 0.90780 0.31210 -0.24100
N 	N 	0.76130 0.73720 0.39230 -0.12500
N 	N 	0.99310 0.18630 0.34010 -0.24200
O 	O 	0.11770 0.47560 0.37040 -0.36200
O 	O 	0.18770 0.41060 0.30040 -0.37700
O 	O 	0.36010 0.81100 0.61470 -0.36700
O 	O 	0.54930 0.85430 0.66830 -0.39500
S 	S 	0.60603 0.83480 0.42215 -0.05700
C 	C 	0.57670 0.67480 0.42570 -0.20500
H 	H 	0.65640 0.63290 0.47370 0.10200
H 	H 	0.53780 0.63660 0.36550 0.09800
C 	C 	0.48930 0.66280 0.44740 0.10600
C 	C 	0.38720 0.58240 0.39490 -0.10300
H 	H 	0.37370 0.53590 0.34740 0.08600
C 	C 	0.30450 0.57060 0.41260 -0.02300
C 	C 	0.32230 0.64330 0.48170 -0.03800
H 	H 	0.26490 0.63850 0.49170 0.06800
C 	C 	0.42560 0.72290 0.53570 -0.03300
C 	C 	0.51010 0.73110 0.51930 -0.09400
H 	H 	0.58070 0.78240 0.55660 0.07900
C 	C 	0.19660 0.48050 0.35750 0.27700
C 	C 	0.44580 0.80030 0.61050 0.30400
C 	C 	0.67760 0.82520 0.37270 0.09400
C 	C 	0.73010 0.87150 0.28990 0.06300
C 	C 	0.74320 0.92210 0.22810 -0.11100
H 	H 	0.69990 0.99320 0.19370 0.07600
C 	C 	0.82360 0.86150 0.22080 -0.00700
H 	H 	0.83360 0.89170 0.17950 0.03300
C 	C 	0.89090 0.75580 0.27340 -0.02600
H 	H 	0.94560 0.71910 0.26710 0.04400
C 	C 	0.87900 0.70540 0.33320 -0.08400
H 	H 	0.92330 0.63480 0.36780 0.07700
C 	C 	0.79620 0.76560 0.34010 0.06000
C 	C 	0.91460 0.20730 0.35730 0.07900
H 	H 	0.85720 0.27230 0.32610 0.00600
C 	C 	0.91420 0.13770 0.41870 -0.13500
H 	H 	0.85810 0.15660 0.42850 0.08800
C 	C 	0.99830 0.03870 0.46630 0.06700
C 	C 	0.07720 0.01510 0.44640 -0.14400
H 	H 	0.13340 0.94890 0.47470 0.08700
C 	C 	0.07210 0.09010 0.38450 0.08400
H 	H 	0.12660 0.07280 0.37300 -0.02200
N 	N 	0.34450 0.90780 0.18790 -0.24100
N 	N 	0.23870 0.73720 0.10770 -0.12600
N 	N 	0.00690 0.18630 0.15990 -0.24500
O 	O 	0.88230 0.47560 0.12960 -0.36000
O 	O 	0.81230 0.41060 0.19960 -0.37600
O 	O 	0.63990 0.81100 0.88530 -0.36800
O 	O 	0.45070 0.85430 0.83170 -0.39500
S 	S 	0.39397 0.83480 0.07785 -0.05800
C 	C 	0.42330 0.67480 0.07430 -0.20500
H 	H 	0.34360 0.63290 0.02630 0.10100
H 	H 	0.46220 0.63660 0.13450 0.09700
C 	C 	0.51070 0.66280 0.05260 0.10500
C 	C 	0.61280 0.58240 0.10510 -0.10300
H 	H 	0.62630 0.53590 0.15260 0.08600
C 	C 	0.69550 0.57060 0.08740 -0.02300
C 	C 	0.67770 0.64330 0.01830 -0.03700
H 	H 	0.73510 0.63850 0.00830 0.06800
C 	C 	0.57440 0.72290 0.96430 -0.03500
C 	C 	0.48990 0.73110 0.98070 -0.09500
H 	H 	0.41930 0.78240 0.94340 0.07900
C 	C 	0.80340 0.48050 0.14250 0.27700
C 	C 	0.55420 0.80030 0.88950 0.30400
C 	C 	0.32240 0.82520 0.12730 0.09400
C 	C 	0.26990 0.87150 0.21010 0.06300
C 	C 	0.25680 0.92210 0.27190 -0.11100
H 	H 	0.30010 0.99320 0.30630 0.07600
C 	C 	0.17640 0.86150 0.27920 -0.00800
H 	H 	0.16640 0.89170 0.32050 0.03300
C 	C 	0.10910 0.75580 0.22660 -0.02600
H 	H 	0.05440 0.71910 0.23290 0.04400
C 	C 	0.12100 0.70540 0.16680 -0.08400
H 	H 	0.07670 0.63480 0.13220 0.07700
C 	C 	0.20380 0.76560 0.15990 0.06000
C 	C 	0.08540 0.20730 0.14270 0.07500
H 	H 	0.14280 0.27230 0.17390 0.00700
C 	C 	0.08580 0.13770 0.08130 -0.13200
H 	H 	0.14190 0.15660 0.07150 0.08600
C 	C 	0.00170 0.03870 0.03370 0.05800
C 	C 	0.92280 0.01510 0.05360 -0.13000
H 	H 	0.86660 0.94890 0.02530 0.08100
C 	C 	0.92790 0.09010 0.11550 0.08400
H 	H 	0.87340 0.07280 0.12700 -0.02100
Cd	Cd	1.00000 0.67664 0.75000 1.21700
Cd	Cd	-0.00000 0.32336 0.25000 1.21700
Cd	Cd	0.50000 0.94745 0.75000 1.22000
Cd	Cd	0.50000 0.05255 0.25000 1.22000
