data_crystal

_cell_length_a 11.26220
_cell_length_b 13.23480
_cell_length_c 13.23480
_cell_angle_alpha 101.48800
_cell_angle_beta  106.74300
_cell_angle_gamma 73.25660

_symmetry_space_group_name_	'P 1'
_symmetry_space_group_name_H-M	'P 1'

loop_
_symmetry_equiv_pos_as_xyz
  x,y,z

loop_
_atom_site_label
_atom_site_type_symbol
_atom_site_fract_x
_atom_site_fract_y
_atom_site_fract_z
_atom_site_charge
Na	Na	0.71190 0.68610 0.35090 0.55300
Na	Na	0.78810 0.35090 0.68610 0.55300
Na	Na	0.28810 0.31390 0.64910 0.55300
Na	Na	0.21190 0.64910 0.31390 0.55300
Na	Na	0.75000 0.32050 0.32050 0.54700
Na	Na	0.25000 0.67950 0.67950 0.54700
Zn	Zn	0.46046 0.86093 0.16779 1.23700
Zn	Zn	0.03954 0.16779 0.86093 1.22400
Zn	Zn	0.53954 0.13907 0.83221 1.22100
Zn	Zn	0.96046 0.83221 0.13907 1.22800
Zn	Zn	0.25000 0.88753 0.88753 1.22900
Zn	Zn	0.25000 0.07555 0.07555 1.19900
Zn	Zn	0.75000 0.11247 0.11247 1.18800
Zn	Zn	0.75000 0.92445 0.92445 1.22600
Cu	Cu	0.50000 0.00000 -0.00000 0.85100
Cu	Cu	-0.00000 0.00000 -0.00000 0.83500
H 	H 	0.12610 0.48280 0.00940 0.00600
H 	H 	0.55980 0.45260 0.13720 0.00200
H 	H 	0.37390 0.00940 0.48280 0.01000
H 	H 	0.94020 0.13720 0.45260 0.04500
H 	H 	0.87390 0.51720 0.99060 0.04400
H 	H 	0.44020 0.54740 0.86280 0.00800
H 	H 	0.62610 0.99060 0.51720 0.03800
H 	H 	0.05980 0.86280 0.54740 -0.02000
C 	C 	0.38830 0.56000 0.10960 -0.11400
C 	C 	0.25780 0.56910 0.06870 -0.07700
C 	C 	0.21350 0.47690 0.03550 -0.03400
C 	C 	0.29550 0.37740 0.04040 -0.06900
C 	C 	0.42800 0.36840 0.07620 -0.09400
C 	C 	0.47230 0.45870 0.11150 0.00200
C 	C 	0.44400 0.65500 0.14960 0.35200
C 	C 	0.15870 0.67260 0.06000 0.28600
C 	C 	0.23980 0.28190 0.01570 0.30100
C 	C 	0.51990 0.26120 0.06900 0.30600
C 	C 	0.11170 0.10960 0.56000 -0.08600
C 	C 	0.24220 0.06870 0.56910 -0.08300
C 	C 	0.28650 0.03550 0.47690 -0.03700
C 	C 	0.20450 0.04040 0.37740 -0.06300
C 	C 	0.07200 0.07620 0.36840 -0.11300
C 	C 	0.02770 0.11150 0.45870 -0.06900
C 	C 	0.05600 0.14960 0.65500 0.29400
C 	C 	0.34130 0.06000 0.67260 0.27100
C 	C 	0.26020 0.01570 0.28190 0.27900
C 	C 	0.98010 0.06900 0.26120 0.36000
C 	C 	0.61170 0.44000 0.89040 -0.08900
C 	C 	0.74220 0.43090 0.93130 -0.09700
C 	C 	0.78650 0.52310 0.96450 0.00400
C 	C 	0.70450 0.62260 0.95960 -0.07100
C 	C 	0.57200 0.63160 0.92380 -0.10200
C 	C 	0.52770 0.54130 0.88850 0.02000
C 	C 	0.55600 0.34500 0.85040 0.35600
C 	C 	0.84130 0.32740 0.94000 0.43100
C 	C 	0.76020 0.71810 0.98430 0.45200
C 	C 	0.48010 0.73880 0.93100 0.44500
C 	C 	0.88830 0.89040 0.44000 -0.10700
C 	C 	0.75780 0.93130 0.43090 -0.09300
C 	C 	0.71350 0.96450 0.52310 0.00500
C 	C 	0.79550 0.95960 0.62260 -0.07700
C 	C 	0.92800 0.92380 0.63160 -0.08100
C 	C 	0.97230 0.88850 0.54130 0.06600
C 	C 	0.94400 0.85040 0.34500 0.39600
C 	C 	0.65870 0.94000 0.32740 0.43200
C 	C 	0.73980 0.98430 0.71810 0.45600
C 	C 	0.01990 0.93100 0.73880 0.38900
O 	O 	0.55160 0.64410 0.20990 -0.44800
O 	O 	0.37670 0.74330 0.11850 -0.46700
O 	O 	0.12520 0.72150 0.14450 -0.49700
O 	O 	0.10970 0.69930 0.96950 -0.25800
O 	O 	0.16080 0.27070 0.92850 -0.40200
O 	O 	0.27510 0.22427 0.08873 -0.45100
O 	O 	0.48890 0.19060 0.99560 -0.42100
O 	O 	0.62620 0.24860 0.13760 -0.53400
O 	O 	0.43780 0.00267 0.12193 -0.65300
O 	O 	0.31640 0.01573 0.92187 -0.59300
O 	O 	0.94840 0.20990 0.64410 -0.40800
O 	O 	0.12330 0.11850 0.74330 -0.46400
O 	O 	0.37480 0.14450 0.72150 -0.48800
O 	O 	0.39030 0.96950 0.69930 -0.23200
O 	O 	0.33920 0.92850 0.27070 -0.37800
O 	O 	0.22490 0.08873 0.22427 -0.44900
O 	O 	0.01110 0.99560 0.19060 -0.44600
O 	O 	0.87380 0.13760 0.24860 -0.54200
O 	O 	0.06220 0.12193 0.00267 -0.66400
O 	O 	0.18360 0.92187 0.01573 -0.58100
O 	O 	0.44840 0.35590 0.79010 -0.44300
O 	O 	0.62330 0.25670 0.88150 -0.45100
O 	O 	0.87480 0.27850 0.85550 -0.50300
O 	O 	0.89030 0.30070 0.03050 -0.36300
O 	O 	0.83920 0.72930 0.07150 -0.50900
O 	O 	0.72490 0.77573 0.91127 -0.46000
O 	O 	0.51110 0.80940 0.00440 -0.52900
O 	O 	0.37380 0.75140 0.86240 -0.54300
O 	O 	0.56220 0.99733 0.87807 -0.55600
O 	O 	0.68360 0.98427 0.07813 -0.57300
O 	O 	0.05160 0.79010 0.35590 -0.46800
O 	O 	0.87670 0.88150 0.25670 -0.45600
O 	O 	0.62520 0.85550 0.27850 -0.51400
O 	O 	0.60970 0.03050 0.30070 -0.37600
O 	O 	0.66080 0.07150 0.72930 -0.51600
O 	O 	0.77510 0.91127 0.77573 -0.46000
O 	O 	0.98890 0.00440 0.80940 -0.48700
O 	O 	0.12620 0.86240 0.75140 -0.53300
O 	O 	0.93780 0.87807 0.99733 -0.54100
O 	O 	0.81640 0.07813 0.98427 -0.56700
