data_crystal

_cell_length_a 7.87320
_cell_length_b 9.65710
_cell_length_c 12.14610
_cell_angle_alpha 76.89400
_cell_angle_beta  89.32500
_cell_angle_gamma 77.57500

_symmetry_space_group_name_	'P 1'
_symmetry_space_group_name_H-M	'P 1'

loop_
_symmetry_equiv_pos_as_xyz
  x,y,z

loop_
_atom_site_label
_atom_site_type_symbol
_atom_site_fract_x
_atom_site_fract_y
_atom_site_fract_z
_atom_site_charge
Zn	Zn	0.07154 0.13737 0.51608 1.18100
Zn	Zn	0.66656 0.16372 0.36787 1.22600
O 	O 	0.83390 0.07703 0.49714 -0.67000
O 	O 	0.48660 0.96972 0.63700 -0.48700
O 	O 	0.30440 0.18210 0.55822 -0.49700
O 	O 	0.61240 0.63520 0.75032 -0.31700
O 	O 	0.40810 0.63429 0.62543 -0.46400
O 	O 	0.95810 0.92587 0.30737 -0.47500
O 	O 	0.80050 0.14915 0.23114 -0.48200
C 	C 	0.43430 0.10730 0.61810 0.37900
C 	C 	0.53850 0.18450 0.67620 -0.11500
C 	C 	0.66840 0.10500 0.75650 -0.00100
H 	H 	0.69690 0.00170 0.77000 0.04500
C 	C 	0.49780 0.33620 0.65500 0.03000
H 	H 	0.41130 0.39090 0.59870 0.03700
C 	C 	0.58390 0.40730 0.71610 -0.08600
C 	C 	0.71220 0.32670 0.79770 -0.02200
H 	H 	0.76950 0.37570 0.84020 0.05200
C 	C 	0.75750 0.17540 0.81770 -0.00800
C 	C 	0.88830 0.08740 0.90800 0.04100
C 	C 	0.85960 0.10290 0.01830 -0.03700
H 	H 	0.76330 0.17470 0.03140 0.06300
C 	C 	0.53530 0.57040 0.69730 0.31600
C 	C 	0.96600 0.01760 0.11000 -0.08800
C 	C 	0.90670 0.03220 0.22640 0.38000
Zn	Zn	0.92846 0.86263 0.48392 1.18000
Zn	Zn	0.33344 0.83628 0.63213 1.22500
O 	O 	0.16610 0.92297 0.50286 -0.67000
O 	O 	0.51340 0.03028 0.36300 -0.48700
O 	O 	0.69560 0.81790 0.44178 -0.49700
O 	O 	0.38760 0.36480 0.24968 -0.31700
O 	O 	0.59190 0.36571 0.37457 -0.46400
O 	O 	0.04190 0.07413 0.69263 -0.47500
O 	O 	0.19950 0.85085 0.76886 -0.48200
C 	C 	0.56570 0.89270 0.38190 0.37900
C 	C 	0.46150 0.81550 0.32380 -0.11500
C 	C 	0.33160 0.89500 0.24350 -0.00100
H 	H 	0.30310 0.99830 0.23000 0.04500
C 	C 	0.50220 0.66380 0.34500 0.03000
H 	H 	0.58870 0.60910 0.40130 0.03700
C 	C 	0.41610 0.59270 0.28390 -0.08600
C 	C 	0.28780 0.67330 0.20230 -0.02200
H 	H 	0.23050 0.62430 0.15980 0.05200
C 	C 	0.24250 0.82460 0.18230 -0.00800
C 	C 	0.11170 0.91260 0.09200 0.04100
C 	C 	0.14040 0.89710 0.98170 -0.03700
H 	H 	0.23670 0.82530 0.96860 0.06300
C 	C 	0.46470 0.42960 0.30270 0.31600
C 	C 	0.03400 0.98240 0.89000 -0.08800
C 	C 	0.09330 0.96780 0.77360 0.38000
