data_crystal

_cell_length_a 12.20420
_cell_length_b 14.37860
_cell_length_c 20.38590
_cell_angle_alpha 90.00000
_cell_angle_beta  90.00000
_cell_angle_gamma 90.00000

_symmetry_space_group_name_	'P 1'
_symmetry_space_group_name_H-M	'P 1'

loop_
_symmetry_equiv_pos_as_xyz
  x,y,z

loop_
_atom_site_label
_atom_site_type_symbol
_atom_site_fract_x
_atom_site_fract_y
_atom_site_fract_z
_atom_site_charge
C 	C 	0.47580 0.29821 0.45200 -0.36700
N 	N 	0.49640 0.24060 0.72760 -0.21600
C 	C 	0.48110 0.23138 0.78225 -0.37500
N 	N 	0.45990 0.44342 0.64168 -0.22400
N 	N 	0.48830 0.31022 0.50682 -0.20400
C 	C 	0.76650 0.28680 0.62429 -0.27400
C 	C 	0.44380 0.52188 0.64317 -0.27900
Cd	Cd	0.48755 0.28933 0.62091 1.14700
Cu	Cu	0.41459 0.24326 0.86880 0.76700
Cu	Cu	0.41458 0.65265 0.63826 0.76900
N 	N 	0.67550 0.30270 0.61808 -0.22900
C 	C 	0.22210 0.21634 0.62593 -0.27900
N 	N 	0.30357 0.25314 0.61668 -0.22700
C 	C 	0.02420 0.70179 0.95200 -0.36500
N 	N 	0.00360 0.75940 0.22760 -0.21700
C 	C 	0.01890 0.76862 0.28225 -0.37600
N 	N 	0.04010 0.55658 0.14168 -0.22500
N 	N 	0.01170 0.68978 0.00682 -0.20700
C 	C 	0.73350 0.71320 0.12429 -0.27400
C 	C 	0.05620 0.47812 0.14317 -0.28100
Cd	Cd	0.01245 0.71067 0.12091 1.14600
Cu	Cu	0.08541 0.75674 0.36880 0.76600
Cu	Cu	0.08542 0.34735 0.13826 0.76700
N 	N 	0.82450 0.69730 0.11808 -0.22800
C 	C 	0.27790 0.78366 0.12593 -0.28000
N 	N 	0.19643 0.74686 0.11668 -0.22700
C 	C 	0.52420 0.79821 0.04800 -0.36800
N 	N 	0.50360 0.74060 0.77240 -0.21700
C 	C 	0.51890 0.73138 0.71775 -0.37600
N 	N 	0.54010 0.94342 0.85832 -0.22500
N 	N 	0.51170 0.81022 0.99318 -0.20500
C 	C 	0.23350 0.78680 0.87571 -0.27400
C 	C 	0.55620 0.02188 0.85683 -0.28100
Cd	Cd	0.51245 0.78933 0.87909 1.14600
Cu	Cu	0.58541 0.74326 0.63120 0.76600
Cu	Cu	0.58542 0.15265 0.86174 0.76700
N 	N 	0.32450 0.80270 0.88192 -0.22900
C 	C 	0.77790 0.71634 0.87407 -0.28000
N 	N 	0.69643 0.75314 0.88332 -0.22700
C 	C 	0.97580 0.20179 0.54800 -0.36800
N 	N 	0.99640 0.25940 0.27240 -0.21700
C 	C 	0.98110 0.26862 0.21775 -0.37500
N 	N 	0.95990 0.05658 0.35832 -0.22500
N 	N 	0.98830 0.18978 0.49318 -0.20500
C 	C 	0.26650 0.21320 0.37571 -0.27500
C 	C 	0.94380 0.97812 0.35683 -0.28000
Cd	Cd	0.98755 0.21067 0.37909 1.14700
Cu	Cu	0.91459 0.25674 0.13120 0.76600
Cu	Cu	0.91458 0.84735 0.36174 0.76800
N 	N 	0.17550 0.19730 0.38192 -0.22900
C 	C 	0.72210 0.28366 0.37407 -0.28000
N 	N 	0.80357 0.24686 0.38332 -0.22700
C 	C 	0.52420 0.70179 0.54800 -0.36800
N 	N 	0.50360 0.75940 0.27240 -0.21700
C 	C 	0.51890 0.76862 0.21775 -0.37600
N 	N 	0.54010 0.55658 0.35832 -0.22500
N 	N 	0.51170 0.68978 0.49318 -0.20500
C 	C 	0.23350 0.71320 0.37571 -0.27500
C 	C 	0.55620 0.47812 0.35683 -0.28000
Cd	Cd	0.51245 0.71067 0.37909 1.14600
Cu	Cu	0.58541 0.75674 0.13120 0.76600
Cu	Cu	0.58542 0.34735 0.36174 0.76800
N 	N 	0.32450 0.69730 0.38192 -0.22900
C 	C 	0.77790 0.78366 0.37407 -0.27900
N 	N 	0.69643 0.74686 0.38332 -0.22700
C 	C 	0.97580 0.29821 0.04800 -0.36500
N 	N 	0.99640 0.24060 0.77240 -0.21700
C 	C 	0.98110 0.23138 0.71775 -0.37600
N 	N 	0.95990 0.44342 0.85832 -0.22500
N 	N 	0.98830 0.31022 0.99318 -0.20700
C 	C 	0.26650 0.28680 0.87571 -0.27400
C 	C 	0.94380 0.52188 0.85683 -0.28100
Cd	Cd	0.98755 0.28933 0.87909 1.14600
Cu	Cu	0.91459 0.24326 0.63120 0.76600
Cu	Cu	0.91458 0.65265 0.86174 0.76700
N 	N 	0.17550 0.30270 0.88192 -0.22800
C 	C 	0.72210 0.21634 0.87407 -0.28000
N 	N 	0.80357 0.25314 0.88332 -0.22700
C 	C 	0.47580 0.20179 0.95200 -0.36800
N 	N 	0.49640 0.25940 0.22760 -0.21700
C 	C 	0.48110 0.26862 0.28225 -0.37600
N 	N 	0.45990 0.05658 0.14168 -0.22500
N 	N 	0.48830 0.18978 0.00682 -0.20500
C 	C 	0.76650 0.21320 0.12429 -0.27400
C 	C 	0.44380 0.97812 0.14317 -0.28100
Cd	Cd	0.48755 0.21067 0.12091 1.14600
Cu	Cu	0.41459 0.25674 0.36880 0.76600
Cu	Cu	0.41458 0.84735 0.13826 0.76700
N 	N 	0.67550 0.19730 0.11808 -0.22900
C 	C 	0.22210 0.28366 0.12593 -0.28000
N 	N 	0.30357 0.24686 0.11668 -0.22700
C 	C 	0.02420 0.79821 0.45200 -0.36800
N 	N 	0.00360 0.74060 0.72760 -0.21700
C 	C 	0.01890 0.73138 0.78225 -0.37500
N 	N 	0.04010 0.94342 0.64168 -0.22500
N 	N 	0.01170 0.81022 0.50682 -0.20500
C 	C 	0.73350 0.78680 0.62429 -0.27500
C 	C 	0.05620 0.02188 0.64317 -0.28000
Cd	Cd	0.01245 0.78933 0.62091 1.14700
Cu	Cu	0.08541 0.74326 0.86880 0.76600
Cu	Cu	0.08542 0.15265 0.63826 0.76800
N 	N 	0.82450 0.80270 0.61808 -0.22900
C 	C 	0.27790 0.71634 0.62593 -0.28000
N 	N 	0.19643 0.75314 0.61668 -0.22700
