data_crystal

_cell_length_a 15.36800
_cell_length_b 11.41220
_cell_length_c 22.28120
_cell_angle_alpha 90.00000
_cell_angle_beta  101.84700
_cell_angle_gamma 90.00000

_symmetry_space_group_name_	'P 1'
_symmetry_space_group_name_H-M	'P 1'

loop_
_symmetry_equiv_pos_as_xyz
  x,y,z

loop_
_atom_site_label
_atom_site_type_symbol
_atom_site_fract_x
_atom_site_fract_y
_atom_site_fract_z
_atom_site_charge
Mn	Mn	0.52496 0.47393 0.42878 1.31500
Mn	Mn	0.64519 0.01612 0.37964 1.32300
P 	P 	0.61933 0.73892 0.42569 0.61700
O 	O 	0.55494 0.64230 0.40534 -0.40300
O 	O 	0.60022 0.84420 0.38610 -0.38900
O 	O 	0.71480 0.69400 0.42374 -0.44100
H 	H 	0.74960 0.71500 0.45490 0.30900
O 	O 	0.62763 0.76880 0.49542 -0.51000
H 	H 	0.57800 0.78000 0.50250 0.32400
O 	O 	0.56320 0.01700 0.29283 -0.38000
O 	O 	0.45440 0.17290 0.29027 -0.46100
H 	H 	0.43940 0.23400 0.27160 0.28500
O 	O 	0.41162 0.50790 0.47448 -0.50000
O 	O 	0.26312 0.50830 0.45713 -0.36700
O 	O 	0.40658 0.47300 0.35526 -0.32500
O 	O 	0.25869 0.48360 0.33606 -0.31600
O 	O 	0.50442 0.28270 0.44857 -0.35600
O 	O 	0.55510 0.10540 0.42975 -0.33900
O 	O 	0.61523 0.38260 0.38458 -0.33500
O 	O 	0.67577 0.20910 0.37401 -0.31600
C 	C 	0.33490 0.50150 0.44062 0.27900
C 	C 	0.33270 0.48400 0.37087 0.21900
C 	C 	0.55340 0.21390 0.42603 0.24100
C 	C 	0.62040 0.27300 0.39181 0.21600
Mn	Mn	0.02496 0.97393 0.42878 1.30700
Mn	Mn	0.14519 0.51612 0.37964 1.32200
P 	P 	0.11933 0.23892 0.42569 0.61500
O 	O 	0.05494 0.14230 0.40534 -0.41500
O 	O 	0.10022 0.34420 0.38610 -0.39600
O 	O 	0.21480 0.19400 0.42374 -0.44300
H 	H 	0.24960 0.21500 0.45490 0.30800
O 	O 	0.12763 0.26880 0.49542 -0.50900
H 	H 	0.07800 0.28000 0.50250 0.31200
O 	O 	0.06320 0.51700 0.29283 -0.38300
O 	O 	0.95440 0.67290 0.29027 -0.42500
H 	H 	0.93940 0.73400 0.27160 0.28300
O 	O 	0.91162 0.00790 0.47448 -0.48800
O 	O 	0.76312 0.00830 0.45713 -0.36500
O 	O 	0.90658 0.97300 0.35526 -0.30800
O 	O 	0.75869 0.98360 0.33606 -0.31200
O 	O 	0.00442 0.78270 0.44857 -0.37600
O 	O 	0.05510 0.60540 0.42975 -0.35100
O 	O 	0.11523 0.88260 0.38458 -0.34100
O 	O 	0.17577 0.70910 0.37401 -0.31800
C 	C 	0.83490 0.00150 0.44062 0.28000
C 	C 	0.83270 0.98400 0.37087 0.21900
C 	C 	0.05340 0.71390 0.42603 0.24000
C 	C 	0.12040 0.77300 0.39181 0.21200
Mn	Mn	0.47504 0.47393 0.07122 1.31600
Mn	Mn	0.35481 0.01612 0.12036 1.32300
P 	P 	0.38067 0.73892 0.07431 0.61700
O 	O 	0.44506 0.64230 0.09466 -0.40300
O 	O 	0.39978 0.84420 0.11390 -0.39000
O 	O 	0.28520 0.69400 0.07626 -0.44400
H 	H 	0.25040 0.71500 0.04510 0.30700
O 	O 	0.37237 0.76880 0.00458 -0.51000
H 	H 	0.42200 0.78000 0.99750 0.32400
O 	O 	0.43680 0.01700 0.20717 -0.38100
O 	O 	0.54560 0.17290 0.20973 -0.46000
H 	H 	0.56060 0.23400 0.22840 0.28500
O 	O 	0.58838 0.50790 0.02552 -0.50000
O 	O 	0.73688 0.50830 0.04287 -0.36500
O 	O 	0.59342 0.47300 0.14474 -0.32400
O 	O 	0.74131 0.48360 0.16394 -0.31300
O 	O 	0.49558 0.28270 0.05143 -0.35600
O 	O 	0.44490 0.10540 0.07025 -0.33800
O 	O 	0.38477 0.38260 0.11542 -0.33800
O 	O 	0.32423 0.20910 0.12599 -0.32000
C 	C 	0.66510 0.50150 0.05938 0.27900
C 	C 	0.66730 0.48400 0.12913 0.21900
C 	C 	0.44660 0.21390 0.07397 0.24000
C 	C 	0.37960 0.27300 0.10819 0.21600
Mn	Mn	0.97504 0.97393 0.07122 1.32500
Mn	Mn	0.85481 0.51612 0.12036 1.32400
P 	P 	0.88067 0.23892 0.07431 0.61900
O 	O 	0.94506 0.14230 0.09466 -0.39100
O 	O 	0.89978 0.34420 0.11390 -0.38300
O 	O 	0.78520 0.19400 0.07626 -0.44100
H 	H 	0.75040 0.21500 0.04510 0.30800
O 	O 	0.87237 0.26880 0.00458 -0.51200
H 	H 	0.92200 0.28000 0.99750 0.33700
O 	O 	0.93680 0.51700 0.20717 -0.35200
O 	O 	0.04560 0.67290 0.20973 -0.46600
H 	H 	0.06060 0.73400 0.22840 0.27900
O 	O 	0.08838 0.00790 0.02552 -0.51100
O 	O 	0.23688 0.00830 0.04287 -0.36600
O 	O 	0.09342 0.97300 0.14474 -0.34000
O 	O 	0.24131 0.98360 0.16394 -0.31700
O 	O 	0.99558 0.78270 0.05143 -0.33700
O 	O 	0.94490 0.60540 0.07025 -0.32800
O 	O 	0.88477 0.88260 0.11542 -0.33200
O 	O 	0.82423 0.70910 0.12599 -0.31600
C 	C 	0.16510 0.00150 0.05938 0.27900
C 	C 	0.16730 0.98400 0.12913 0.21800
C 	C 	0.94660 0.71390 0.07397 0.24100
C 	C 	0.87960 0.77300 0.10819 0.22000
Mn	Mn	0.47504 0.52607 0.57122 1.31600
Mn	Mn	0.35481 0.98388 0.62036 1.32300
P 	P 	0.38067 0.26108 0.57431 0.61700
O 	O 	0.44506 0.35770 0.59466 -0.40300
O 	O 	0.39978 0.15580 0.61390 -0.39000
O 	O 	0.28520 0.30600 0.57626 -0.44400
H 	H 	0.25040 0.28500 0.54510 0.30700
O 	O 	0.37237 0.23120 0.50458 -0.51000
H 	H 	0.42200 0.22000 0.49750 0.32400
O 	O 	0.43680 0.98300 0.70717 -0.38100
O 	O 	0.54560 0.82710 0.70973 -0.46000
H 	H 	0.56060 0.76600 0.72840 0.28500
O 	O 	0.58838 0.49210 0.52552 -0.50000
O 	O 	0.73688 0.49170 0.54287 -0.36400
O 	O 	0.59342 0.52700 0.64474 -0.32400
O 	O 	0.74131 0.51640 0.66394 -0.31300
O 	O 	0.49558 0.71730 0.55143 -0.35600
O 	O 	0.44490 0.89460 0.57025 -0.33900
O 	O 	0.38477 0.61740 0.61542 -0.33800
O 	O 	0.32423 0.79090 0.62599 -0.32000
C 	C 	0.66510 0.49850 0.55938 0.27900
C 	C 	0.66730 0.51600 0.62913 0.21900
C 	C 	0.44660 0.78610 0.57397 0.24000
C 	C 	0.37960 0.72700 0.60819 0.21600
Mn	Mn	0.97504 0.02607 0.57122 1.32600
Mn	Mn	0.85481 0.48388 0.62036 1.32400
P 	P 	0.88067 0.76108 0.57431 0.61900
O 	O 	0.94506 0.85770 0.59466 -0.39100
O 	O 	0.89978 0.65580 0.61390 -0.38300
O 	O 	0.78520 0.80600 0.57626 -0.44100
H 	H 	0.75040 0.78500 0.54510 0.30800
O 	O 	0.87237 0.73120 0.50458 -0.51100
H 	H 	0.92200 0.72000 0.49750 0.33700
O 	O 	0.93680 0.48300 0.70717 -0.35100
O 	O 	0.04560 0.32710 0.70973 -0.46600
H 	H 	0.06060 0.26600 0.72840 0.27900
O 	O 	0.08838 0.99210 0.52552 -0.51200
O 	O 	0.23688 0.99170 0.54287 -0.36600
O 	O 	0.09342 0.02700 0.64474 -0.34000
O 	O 	0.24131 0.01640 0.66394 -0.31700
O 	O 	0.99558 0.21730 0.55143 -0.33600
O 	O 	0.94490 0.39460 0.57025 -0.32700
O 	O 	0.88477 0.11740 0.61542 -0.33100
O 	O 	0.82423 0.29090 0.62599 -0.31600
C 	C 	0.16510 0.99850 0.55938 0.27800
C 	C 	0.16730 0.01600 0.62913 0.21800
C 	C 	0.94660 0.28610 0.57397 0.24100
C 	C 	0.87960 0.22700 0.60819 0.22000
Mn	Mn	0.52496 0.52607 0.92878 1.31600
Mn	Mn	0.64519 0.98388 0.87964 1.32400
P 	P 	0.61933 0.26108 0.92569 0.61700
O 	O 	0.55494 0.35770 0.90534 -0.40300
O 	O 	0.60022 0.15580 0.88610 -0.38900
O 	O 	0.71480 0.30600 0.92374 -0.44100
H 	H 	0.74960 0.28500 0.95490 0.30900
O 	O 	0.62763 0.23120 0.99542 -0.51100
H 	H 	0.57800 0.22000 0.00250 0.32500
O 	O 	0.56320 0.98300 0.79283 -0.38000
O 	O 	0.45440 0.82710 0.79027 -0.46100
H 	H 	0.43940 0.76600 0.77160 0.28500
O 	O 	0.41162 0.49210 0.97448 -0.50100
O 	O 	0.26312 0.49170 0.95713 -0.36700
O 	O 	0.40658 0.52700 0.85526 -0.32500
O 	O 	0.25869 0.51640 0.83606 -0.31600
O 	O 	0.50442 0.71730 0.94857 -0.35600
O 	O 	0.55510 0.89460 0.92975 -0.33900
O 	O 	0.61523 0.61740 0.88458 -0.33500
O 	O 	0.67577 0.79090 0.87401 -0.31500
C 	C 	0.33490 0.49850 0.94062 0.27900
C 	C 	0.33270 0.51600 0.87087 0.21900
C 	C 	0.55340 0.78610 0.92603 0.24100
C 	C 	0.62040 0.72700 0.89181 0.21600
Mn	Mn	0.02496 0.02607 0.92878 1.30600
Mn	Mn	0.14519 0.48388 0.87964 1.32200
P 	P 	0.11933 0.76108 0.92569 0.61500
O 	O 	0.05494 0.85770 0.90534 -0.41500
O 	O 	0.10022 0.65580 0.88610 -0.39700
O 	O 	0.21480 0.80600 0.92374 -0.44300
H 	H 	0.24960 0.78500 0.95490 0.30800
O 	O 	0.12763 0.73120 0.99542 -0.51100
H 	H 	0.07800 0.72000 0.00250 0.31300
O 	O 	0.06320 0.48300 0.79283 -0.38300
O 	O 	0.95440 0.32710 0.79027 -0.42400
H 	H 	0.93940 0.26600 0.77160 0.28300
O 	O 	0.91162 0.99210 0.97448 -0.48700
O 	O 	0.76312 0.99170 0.95713 -0.36500
O 	O 	0.90658 0.02700 0.85526 -0.30800
O 	O 	0.75869 0.01640 0.83606 -0.31200
O 	O 	0.00442 0.21730 0.94857 -0.37700
O 	O 	0.05510 0.39460 0.92975 -0.35100
O 	O 	0.11523 0.11740 0.88458 -0.34100
O 	O 	0.17577 0.29090 0.87401 -0.31900
C 	C 	0.83490 0.99850 0.94062 0.28100
C 	C 	0.83270 0.01600 0.87087 0.21900
C 	C 	0.05340 0.28610 0.92603 0.24000
C 	C 	0.12040 0.22700 0.89181 0.21200
P 	P 	0.50000 0.09041 0.25000 0.62500
P 	P 	0.00000 0.59041 0.25000 0.57400
P 	P 	0.50000 0.90959 0.75000 0.62500
P 	P 	0.00000 0.40959 0.75000 0.57200
