data_crystal

_cell_length_a 8.32590
_cell_length_b 22.77300
_cell_length_c 20.10500
_cell_angle_alpha 90.00000
_cell_angle_beta  93.70000
_cell_angle_gamma 90.00000

_symmetry_space_group_name_	'P 1'
_symmetry_space_group_name_H-M	'P 1'

loop_
_symmetry_equiv_pos_as_xyz
  x,y,z

loop_
_atom_site_label
_atom_site_type_symbol
_atom_site_fract_x
_atom_site_fract_y
_atom_site_fract_z
_atom_site_charge
C 	C 	0.69200 0.44890 0.56560 0.34700
C 	C 	0.74870 0.40620 0.61990 -0.07500
C 	C 	0.64650 0.36190 0.63780 -0.01200
H 	H 	0.54420 0.35760 0.61450 0.05300
C 	C 	0.69230 0.32360 0.68970 -0.03800
H 	H 	0.61930 0.29440 0.70290 0.04100
C 	C 	0.84130 0.32780 0.72160 -0.03100
C 	C 	0.94670 0.37160 0.70420 -0.04000
H 	H 	0.04960 0.37500 0.72720 0.06200
C 	C 	0.90070 0.41080 0.65230 0.00000
H 	H 	0.97330 0.44030 0.63960 0.04700
C 	C 	0.89800 0.28800 0.77790 0.22400
C 	C 	0.93360 0.15000 0.93070 0.12100
H 	H 	0.00790 0.15150 0.96850 0.00400
C 	C 	0.94400 0.19310 0.88330 -0.20100
H 	H 	0.02120 0.22370 0.88900 0.12500
C 	C 	0.83740 0.19080 0.82620 0.20200
C 	C 	0.73340 0.14260 0.81980 -0.20300
H 	H 	0.66420 0.13800 0.78070 0.10100
C 	C 	0.73140 0.10210 0.87000 0.11300
H 	H 	0.66000 0.06970 0.86440 0.00200
C 	C 	0.85190 0.65670 0.45240 0.31600
C 	C 	0.85640 0.71300 0.41120 -0.06100
C 	C 	0.74760 0.72450 0.36100 -0.01100
H 	H 	0.66030 0.69800 0.35320 0.04700
C 	C 	0.75560 0.77240 0.32060 -0.03300
H 	H 	0.68070 0.77600 0.28310 0.03700
C 	C 	0.86630 0.81460 0.33230 -0.04000
C 	C 	0.97760 0.80310 0.38280 -0.03500
H 	H 	0.05990 0.83120 0.39320 0.06000
C 	C 	0.97540 0.75180 0.42000 -0.00900
H 	H 	0.06090 0.74430 0.45250 0.05200
C 	C 	0.88070 0.86810 0.29270 0.21700
C 	C 	0.78600 0.91500 0.18470 0.20700
C 	C 	0.68730 0.90660 0.12710 -0.20800
H 	H 	0.62510 0.87170 0.12190 0.11200
C 	C 	0.67860 0.94850 0.07730 0.11400
H 	H 	0.61370 0.94120 0.03750 0.00100
C 	C 	0.85340 0.00880 0.14040 0.11500
H 	H 	0.91180 0.04450 0.14520 -0.00300
C 	C 	0.86860 0.96900 0.19170 -0.20500
H 	H 	0.93350 0.97760 0.23110 0.12900
N 	N 	0.82620 0.10580 0.92740 -0.22200
N 	N 	0.82840 0.23330 0.77580 -0.24500
N 	N 	0.76140 0.00038 0.08390 -0.22700
N 	N 	0.79260 0.87050 0.23230 -0.24500
O 	O 	0.78440 0.49285 0.55803 -0.39700
O 	O 	0.56420 0.43922 0.53291 -0.36500
O 	O 	0.73140 0.62349 0.43695 -0.37700
O 	O 	0.95810 0.64730 0.49580 -0.28900
O 	O 	0.96450 0.90960 0.31270 -0.22500
O 	O 	0.99490 0.30320 0.82180 -0.23000
Cu	Cu	0.71295 0.55428 0.49448 0.91900
H 	H 	0.77000 0.22100 0.74020 0.12700
H 	H 	0.73050 0.84000 0.22290 0.12800
C 	C 	0.80800 0.94890 0.93440 0.34800
C 	C 	0.75130 0.90620 0.88010 -0.07400
C 	C 	0.85350 0.86190 0.86220 -0.01100
H 	H 	0.95580 0.85760 0.88550 0.05400
C 	C 	0.80770 0.82360 0.81030 -0.03800
H 	H 	0.88070 0.79440 0.79710 0.04200
C 	C 	0.65870 0.82780 0.77840 -0.03100
C 	C 	0.55330 0.87160 0.79580 -0.04100
H 	H 	0.45040 0.87500 0.77280 0.06300
C 	C 	0.59930 0.91080 0.84770 0.00100
H 	H 	0.52670 0.94030 0.86040 0.04700
C 	C 	0.60200 0.78800 0.72210 0.22400
C 	C 	0.56640 0.65000 0.56930 0.12000
H 	H 	0.49210 0.65150 0.53150 0.00500
C 	C 	0.55600 0.69310 0.61670 -0.20200
H 	H 	0.47880 0.72370 0.61100 0.12600
C 	C 	0.66260 0.69080 0.67380 0.20200
C 	C 	0.76660 0.64260 0.68020 -0.20300
H 	H 	0.83580 0.63800 0.71930 0.10200
C 	C 	0.76860 0.60210 0.63000 0.11300
H 	H 	0.84000 0.56970 0.63560 0.00200
C 	C 	0.64810 0.15670 0.04760 0.31600
C 	C 	0.64360 0.21300 0.08880 -0.06100
C 	C 	0.75240 0.22450 0.13900 -0.01100
H 	H 	0.83970 0.19800 0.14680 0.04700
C 	C 	0.74440 0.27240 0.17940 -0.03300
H 	H 	0.81930 0.27600 0.21690 0.03700
C 	C 	0.63370 0.31460 0.16770 -0.04000
C 	C 	0.52240 0.30310 0.11720 -0.03500
H 	H 	0.44010 0.33120 0.10680 0.06000
C 	C 	0.52460 0.25180 0.08000 -0.01000
H 	H 	0.43910 0.24430 0.04750 0.05200
C 	C 	0.61930 0.36810 0.20730 0.21700
C 	C 	0.71400 0.41500 0.31530 0.20700
C 	C 	0.81270 0.40660 0.37290 -0.20800
H 	H 	0.87490 0.37170 0.37810 0.11200
C 	C 	0.82140 0.44850 0.42270 0.11400
H 	H 	0.88630 0.44120 0.46250 0.00100
C 	C 	0.64660 0.50880 0.35960 0.11700
H 	H 	0.58820 0.54450 0.35480 -0.00300
C 	C 	0.63140 0.46900 0.30830 -0.20600
H 	H 	0.56650 0.47760 0.26890 0.12900
N 	N 	0.67380 0.60580 0.57260 -0.22200
N 	N 	0.67160 0.73330 0.72420 -0.24500
N 	N 	0.73860 0.50038 0.41610 -0.22600
N 	N 	0.70740 0.37050 0.26770 -0.24500
O 	O 	0.71560 0.99285 0.94197 -0.39700
O 	O 	0.93580 0.93922 0.96709 -0.36400
O 	O 	0.76860 0.12349 0.06305 -0.37800
O 	O 	0.54190 0.14730 0.00420 -0.28900
O 	O 	0.53550 0.40960 0.18730 -0.22500
O 	O 	0.50510 0.80320 0.67820 -0.23100
Cu	Cu	0.78705 0.05428 0.00552 0.91900
H 	H 	0.73000 0.72100 0.75980 0.12700
H 	H 	0.76950 0.34000 0.27710 0.12700
C 	C 	0.30800 0.55110 0.43440 0.34800
C 	C 	0.25130 0.59380 0.38010 -0.07400
C 	C 	0.35350 0.63810 0.36220 -0.01100
H 	H 	0.45580 0.64240 0.38550 0.05400
C 	C 	0.30770 0.67640 0.31030 -0.03800
H 	H 	0.38070 0.70560 0.29710 0.04100
C 	C 	0.15870 0.67220 0.27840 -0.03100
C 	C 	0.05330 0.62840 0.29580 -0.04000
H 	H 	0.95040 0.62500 0.27280 0.06200
C 	C 	0.09930 0.58920 0.34770 0.00000
H 	H 	0.02670 0.55970 0.36040 0.04700
C 	C 	0.10200 0.71200 0.22210 0.22400
C 	C 	0.06640 0.85000 0.06930 0.12100
H 	H 	0.99210 0.84850 0.03150 0.00400
C 	C 	0.05600 0.80690 0.11670 -0.20100
H 	H 	0.97880 0.77630 0.11100 0.12500
C 	C 	0.16260 0.80920 0.17380 0.20200
C 	C 	0.26660 0.85740 0.18020 -0.20300
H 	H 	0.33580 0.86200 0.21930 0.10100
C 	C 	0.26860 0.89790 0.13000 0.11300
H 	H 	0.34000 0.93030 0.13560 0.00200
C 	C 	0.14810 0.34330 0.54760 0.31600
C 	C 	0.14360 0.28700 0.58880 -0.06100
C 	C 	0.25240 0.27550 0.63900 -0.01100
H 	H 	0.33970 0.30200 0.64680 0.04700
C 	C 	0.24440 0.22760 0.67940 -0.03300
H 	H 	0.31930 0.22400 0.71690 0.03700
C 	C 	0.13370 0.18540 0.66770 -0.04000
C 	C 	0.02240 0.19690 0.61720 -0.03500
H 	H 	0.94010 0.16880 0.60680 0.06000
C 	C 	0.02460 0.24820 0.58000 -0.00900
H 	H 	0.93910 0.25570 0.54750 0.05200
C 	C 	0.11930 0.13190 0.70730 0.21700
C 	C 	0.21400 0.08500 0.81530 0.20700
C 	C 	0.31270 0.09340 0.87290 -0.20800
H 	H 	0.37490 0.12830 0.87810 0.11200
C 	C 	0.32140 0.05150 0.92270 0.11400
H 	H 	0.38630 0.05880 0.96250 0.00100
C 	C 	0.14660 0.99120 0.85960 0.11500
H 	H 	0.08820 0.95550 0.85480 -0.00300
C 	C 	0.13140 0.03100 0.80830 -0.20500
H 	H 	0.06650 0.02240 0.76890 0.12900
N 	N 	0.17380 0.89420 0.07260 -0.22200
N 	N 	0.17160 0.76670 0.22420 -0.24500
N 	N 	0.23860 0.99962 0.91610 -0.22700
N 	N 	0.20740 0.12950 0.76770 -0.24500
O 	O 	0.21560 0.50715 0.44197 -0.39700
O 	O 	0.43580 0.56078 0.46709 -0.36500
O 	O 	0.26860 0.37651 0.56305 -0.37700
O 	O 	0.04190 0.35270 0.50420 -0.28900
O 	O 	0.03550 0.09040 0.68730 -0.22500
O 	O 	0.00510 0.69680 0.17820 -0.23000
Cu	Cu	0.28705 0.44572 0.50552 0.91900
H 	H 	0.23000 0.77900 0.25980 0.12700
H 	H 	0.26950 0.16000 0.77710 0.12800
C 	C 	0.19200 0.05110 0.06560 0.34800
C 	C 	0.24870 0.09380 0.11990 -0.07400
C 	C 	0.14650 0.13810 0.13780 -0.01100
H 	H 	0.04420 0.14240 0.11450 0.05400
C 	C 	0.19230 0.17640 0.18970 -0.03800
H 	H 	0.11930 0.20560 0.20290 0.04200
C 	C 	0.34130 0.17220 0.22160 -0.03100
C 	C 	0.44670 0.12840 0.20420 -0.04100
H 	H 	0.54960 0.12500 0.22720 0.06300
C 	C 	0.40070 0.08920 0.15230 0.00100
H 	H 	0.47330 0.05970 0.13960 0.04700
C 	C 	0.39800 0.21200 0.27790 0.22400
C 	C 	0.43360 0.35000 0.43070 0.12000
H 	H 	0.50790 0.34850 0.46850 0.00500
C 	C 	0.44400 0.30690 0.38330 -0.20200
H 	H 	0.52120 0.27630 0.38900 0.12600
C 	C 	0.33740 0.30920 0.32620 0.20200
C 	C 	0.23340 0.35740 0.31980 -0.20300
H 	H 	0.16420 0.36200 0.28070 0.10200
C 	C 	0.23140 0.39790 0.37000 0.11300
H 	H 	0.16000 0.43030 0.36440 0.00200
C 	C 	0.35190 0.84330 0.95240 0.31600
C 	C 	0.35640 0.78700 0.91120 -0.06100
C 	C 	0.24760 0.77550 0.86100 -0.01100
H 	H 	0.16030 0.80200 0.85320 0.04700
C 	C 	0.25560 0.72760 0.82060 -0.03300
H 	H 	0.18070 0.72400 0.78310 0.03700
C 	C 	0.36630 0.68540 0.83230 -0.04000
C 	C 	0.47760 0.69690 0.88280 -0.03500
H 	H 	0.55990 0.66880 0.89320 0.06000
C 	C 	0.47540 0.74820 0.92000 -0.01000
H 	H 	0.56090 0.75570 0.95250 0.05200
C 	C 	0.38070 0.63190 0.79270 0.21700
C 	C 	0.28600 0.58500 0.68470 0.20700
C 	C 	0.18730 0.59340 0.62710 -0.20800
H 	H 	0.12510 0.62830 0.62190 0.11200
C 	C 	0.17860 0.55150 0.57730 0.11400
H 	H 	0.11370 0.55880 0.53750 0.00100
C 	C 	0.35340 0.49120 0.64040 0.11700
H 	H 	0.41180 0.45550 0.64520 -0.00300
C 	C 	0.36860 0.53100 0.69170 -0.20600
H 	H 	0.43350 0.52240 0.73110 0.12900
N 	N 	0.32620 0.39420 0.42740 -0.22200
N 	N 	0.32840 0.26670 0.27580 -0.24500
N 	N 	0.26140 0.49962 0.58390 -0.22600
N 	N 	0.29260 0.62950 0.73230 -0.24500
O 	O 	0.28440 0.00715 0.05803 -0.39700
O 	O 	0.06420 0.06078 0.03291 -0.36400
O 	O 	0.23140 0.87651 0.93695 -0.37800
O 	O 	0.45810 0.85270 0.99580 -0.28900
O 	O 	0.46450 0.59040 0.81270 -0.22500
O 	O 	0.49490 0.19680 0.32180 -0.23100
Cu	Cu	0.21295 0.94572 0.99448 0.91900
H 	H 	0.27000 0.27900 0.24020 0.12700
H 	H 	0.23050 0.66000 0.72290 0.12700
