data_crystal

_cell_length_a 12.23300
_cell_length_b 26.12600
_cell_length_c 26.12600
_cell_angle_alpha 90.00000
_cell_angle_beta  90.00000
_cell_angle_gamma 90.00000

_symmetry_space_group_name_	'P 1'
_symmetry_space_group_name_H-M	'P 1'

loop_
_symmetry_equiv_pos_as_xyz
  x,y,z

loop_
_atom_site_label
_atom_site_type_symbol
_atom_site_fract_x
_atom_site_fract_y
_atom_site_fract_z
_atom_site_charge
O 	O 	0.70262 0.26258 0.19545 -0.45400
O 	O 	0.54369 0.19022 0.19704 -0.45100
C 	C 	0.65770 0.30265 0.17974 0.34600
C 	C 	0.70060 0.32792 0.13155 -0.02000
O 	O 	0.57258 0.32396 0.19836 -0.46200
O 	O 	0.41724 0.25137 0.19770 -0.46800
C 	C 	0.64470 0.36941 0.11235 -0.03500
C 	C 	0.78990 0.30630 0.10575 -0.13200
H 	H 	0.58430 0.38280 0.12930 0.07200
C 	C 	0.68240 0.39105 0.06588 -0.02000
C 	C 	0.82399 0.32828 0.05909 0.19200
H 	H 	0.82610 0.27800 0.11920 0.09400
C 	C 	0.76900 0.37070 0.03894 -0.13000
C 	C 	0.61650 0.43446 0.04307 0.34400
O 	O 	0.90428 0.30970 0.02940 -0.22900
H 	H 	0.79050 0.38490 0.00790 0.10100
O 	O 	0.52890 0.44637 0.06441 -0.46400
O 	O 	0.65690 0.45492 0.00260 -0.45500
C 	C 	0.96310 0.26586 0.04428 0.00100
O 	O 	0.37044 0.05929 0.00832 -0.46900
Co	Co	0.42415 0.49493 0.03641 1.14900
H 	H 	0.91310 0.23840 0.05310 0.05100
H 	H 	0.00780 0.27340 0.07400 0.04800
O 	O 	0.49511 0.05111 0.06840 -0.46700
C 	C 	0.10730 0.20521 0.01471 -0.01000
H 	H 	0.06310 0.17540 0.02260 0.05200
H 	H 	0.15590 0.19660 0.98670 0.05400
O 	O 	0.16942 0.22040 0.05879 -0.22500
C 	C 	0.25190 0.19132 0.07657 0.19100
C 	C 	0.28440 0.14602 0.05313 -0.12300
C 	C 	0.30420 0.21236 0.11754 -0.12500
H 	H 	0.24820 0.13330 0.02450 0.09100
C 	C 	0.37300 0.12057 0.07417 -0.04600
C 	C 	0.39400 0.18586 0.13797 -0.04300
H 	H 	0.28120 0.24330 0.13150 0.10000
C 	C 	0.43160 0.14015 0.11608 -0.01400
C 	C 	0.41630 0.07412 0.04833 0.38000
C 	C 	0.45460 0.21084 0.17996 0.35900
H 	H 	0.49290 0.12340 0.12880 0.06000
O 	O 	0.29738 0.73742 0.69545 -0.45500
O 	O 	0.45631 0.80978 0.69704 -0.45200
C 	C 	0.34230 0.69735 0.67974 0.34500
C 	C 	0.29940 0.67208 0.63155 -0.02100
O 	O 	0.42742 0.67604 0.69836 -0.46300
O 	O 	0.58276 0.74863 0.69770 -0.46900
C 	C 	0.35530 0.63059 0.61235 -0.03600
C 	C 	0.21010 0.69370 0.60575 -0.13300
H 	H 	0.41570 0.61720 0.62930 0.07100
C 	C 	0.31760 0.60895 0.56588 -0.02100
C 	C 	0.17601 0.67172 0.55909 0.19100
H 	H 	0.17390 0.72200 0.61920 0.09400
C 	C 	0.23100 0.62930 0.53894 -0.13000
C 	C 	0.38350 0.56554 0.54307 0.34400
O 	O 	0.09572 0.69030 0.52940 -0.22800
H 	H 	0.20950 0.61510 0.50790 0.10100
O 	O 	0.47110 0.55363 0.56441 -0.46300
O 	O 	0.34310 0.54508 0.50260 -0.45500
C 	C 	0.03690 0.73414 0.54428 -0.00000
O 	O 	0.62956 0.94071 0.50832 -0.47000
Co	Co	0.57585 0.50507 0.53641 1.15000
H 	H 	0.08690 0.76160 0.55310 0.05100
H 	H 	0.99220 0.72660 0.57400 0.04800
O 	O 	0.50489 0.94889 0.56840 -0.46800
C 	C 	0.89270 0.79479 0.51471 -0.01000
H 	H 	0.93690 0.82460 0.52260 0.05300
H 	H 	0.84410 0.80340 0.48670 0.05400
O 	O 	0.83058 0.77960 0.55879 -0.22500
C 	C 	0.74810 0.80868 0.57657 0.19100
C 	C 	0.71560 0.85398 0.55313 -0.12300
C 	C 	0.69580 0.78764 0.61754 -0.12500
H 	H 	0.75180 0.86670 0.52450 0.09100
C 	C 	0.62700 0.87943 0.57417 -0.04600
C 	C 	0.60600 0.81414 0.63797 -0.04300
H 	H 	0.71880 0.75670 0.63150 0.10000
C 	C 	0.56840 0.85985 0.61608 -0.01400
C 	C 	0.58370 0.92588 0.54833 0.38000
C 	C 	0.54540 0.78916 0.67996 0.35900
H 	H 	0.50710 0.87660 0.62880 0.06000
O 	O 	0.29738 0.76258 0.30455 -0.45500
O 	O 	0.45631 0.69022 0.30296 -0.45200
C 	C 	0.34230 0.80265 0.32026 0.34500
C 	C 	0.29940 0.82792 0.36845 -0.02100
O 	O 	0.42742 0.82396 0.30164 -0.46300
O 	O 	0.58276 0.75137 0.30230 -0.46900
C 	C 	0.35530 0.86941 0.38765 -0.03600
C 	C 	0.21010 0.80630 0.39425 -0.13300
H 	H 	0.41570 0.88280 0.37070 0.07100
C 	C 	0.31760 0.89105 0.43412 -0.02100
C 	C 	0.17601 0.82828 0.44091 0.19100
H 	H 	0.17390 0.77800 0.38080 0.09400
C 	C 	0.23100 0.87070 0.46106 -0.13000
C 	C 	0.38350 0.93446 0.45693 0.34400
O 	O 	0.09572 0.80970 0.47060 -0.22800
H 	H 	0.20950 0.88490 0.49210 0.10200
O 	O 	0.47110 0.94637 0.43559 -0.46300
O 	O 	0.34310 0.95492 0.49740 -0.45400
C 	C 	0.03690 0.76586 0.45572 -0.00000
O 	O 	0.62956 0.55929 0.49168 -0.47000
Co	Co	0.57585 0.99493 0.46359 1.15000
H 	H 	0.08690 0.73840 0.44690 0.05100
H 	H 	0.99220 0.77340 0.42600 0.04800
O 	O 	0.50489 0.55111 0.43160 -0.46800
C 	C 	0.89270 0.70521 0.48529 -0.01000
H 	H 	0.93690 0.67540 0.47740 0.05300
H 	H 	0.84410 0.69660 0.51330 0.05400
O 	O 	0.83058 0.72040 0.44121 -0.22500
C 	C 	0.74810 0.69132 0.42343 0.19100
C 	C 	0.71560 0.64602 0.44687 -0.12300
C 	C 	0.69580 0.71236 0.38246 -0.12500
H 	H 	0.75180 0.63330 0.47550 0.09100
C 	C 	0.62700 0.62057 0.42583 -0.04600
C 	C 	0.60600 0.68586 0.36203 -0.04300
H 	H 	0.71880 0.74330 0.36850 0.10000
C 	C 	0.56840 0.64015 0.38392 -0.01400
C 	C 	0.58370 0.57412 0.45167 0.38000
C 	C 	0.54540 0.71084 0.32004 0.35900
H 	H 	0.50710 0.62340 0.37120 0.06000
O 	O 	0.70262 0.23742 0.80455 -0.45500
O 	O 	0.54369 0.30978 0.80296 -0.45200
C 	C 	0.65770 0.19735 0.82026 0.34500
C 	C 	0.70060 0.17208 0.86845 -0.02100
O 	O 	0.57258 0.17604 0.80164 -0.46300
O 	O 	0.41724 0.24863 0.80230 -0.46900
C 	C 	0.64470 0.13059 0.88765 -0.03600
C 	C 	0.78990 0.19370 0.89425 -0.13300
H 	H 	0.58430 0.11720 0.87070 0.07100
C 	C 	0.68240 0.10895 0.93412 -0.02100
C 	C 	0.82399 0.17172 0.94091 0.19100
H 	H 	0.82610 0.22200 0.88080 0.09400
C 	C 	0.76900 0.12930 0.96106 -0.13000
C 	C 	0.61650 0.06554 0.95693 0.34400
O 	O 	0.90428 0.19030 0.97060 -0.22800
H 	H 	0.79050 0.11510 0.99210 0.10200
O 	O 	0.52890 0.05363 0.93559 -0.46300
O 	O 	0.65690 0.04508 0.99740 -0.45500
C 	C 	0.96310 0.23414 0.95572 0.00100
O 	O 	0.37044 0.44071 0.99168 -0.47000
Co	Co	0.42415 0.00507 0.96359 1.15000
H 	H 	0.91310 0.26160 0.94690 0.05100
H 	H 	0.00780 0.22660 0.92600 0.04800
O 	O 	0.49511 0.44889 0.93160 -0.46800
C 	C 	0.10730 0.29479 0.98529 -0.00900
H 	H 	0.06310 0.32460 0.97740 0.05200
H 	H 	0.15590 0.30340 0.01330 0.05300
O 	O 	0.16942 0.27960 0.94121 -0.22500
C 	C 	0.25190 0.30868 0.92343 0.19100
C 	C 	0.28440 0.35398 0.94687 -0.12300
C 	C 	0.30420 0.28764 0.88246 -0.12500
H 	H 	0.24820 0.36670 0.97550 0.09100
C 	C 	0.37300 0.37943 0.92583 -0.04600
C 	C 	0.39400 0.31414 0.86203 -0.04300
H 	H 	0.28120 0.25670 0.86850 0.10000
C 	C 	0.43160 0.35985 0.88392 -0.01400
C 	C 	0.41630 0.42588 0.95167 0.38000
C 	C 	0.45460 0.28916 0.82004 0.35900
H 	H 	0.49290 0.37660 0.87120 0.06000
O 	O 	0.29738 0.73742 0.80455 -0.45500
O 	O 	0.45631 0.80978 0.80296 -0.45200
C 	C 	0.34230 0.69735 0.82026 0.34500
C 	C 	0.29940 0.67208 0.86845 -0.02100
O 	O 	0.42742 0.67604 0.80164 -0.46300
O 	O 	0.58276 0.74863 0.80230 -0.46900
C 	C 	0.35530 0.63059 0.88765 -0.03600
C 	C 	0.21010 0.69370 0.89425 -0.13300
H 	H 	0.41570 0.61720 0.87070 0.07100
C 	C 	0.31760 0.60895 0.93412 -0.02100
C 	C 	0.17601 0.67172 0.94091 0.19100
H 	H 	0.17390 0.72200 0.88080 0.09400
C 	C 	0.23100 0.62930 0.96106 -0.13000
C 	C 	0.38350 0.56554 0.95693 0.34400
O 	O 	0.09572 0.69030 0.97060 -0.22800
H 	H 	0.20950 0.61510 0.99210 0.10200
O 	O 	0.47110 0.55363 0.93559 -0.46300
O 	O 	0.34310 0.54508 0.99740 -0.45500
C 	C 	0.03690 0.73414 0.95572 0.00300
O 	O 	0.62956 0.94071 0.99168 -0.46900
Co	Co	0.57585 0.50507 0.96359 1.15000
H 	H 	0.08690 0.76160 0.94690 0.05100
H 	H 	0.99220 0.72660 0.92600 0.04700
O 	O 	0.50489 0.94889 0.93160 -0.46700
C 	C 	0.89270 0.79479 0.98529 -0.00500
H 	H 	0.93690 0.82460 0.97740 0.05100
H 	H 	0.84410 0.80340 0.01330 0.05100
O 	O 	0.83058 0.77960 0.94121 -0.22600
C 	C 	0.74810 0.80868 0.92343 0.19200
C 	C 	0.71560 0.85398 0.94687 -0.12300
C 	C 	0.69580 0.78764 0.88246 -0.12500
H 	H 	0.75180 0.86670 0.97550 0.09200
C 	C 	0.62700 0.87943 0.92583 -0.04600
C 	C 	0.60600 0.81414 0.86203 -0.04200
H 	H 	0.71880 0.75670 0.86850 0.10100
C 	C 	0.56840 0.85985 0.88392 -0.01400
C 	C 	0.58370 0.92588 0.95167 0.37900
C 	C 	0.54540 0.78916 0.82004 0.35900
H 	H 	0.50710 0.87660 0.87120 0.06100
O 	O 	0.70262 0.26258 0.30455 -0.45500
O 	O 	0.54369 0.19022 0.30296 -0.45200
C 	C 	0.65770 0.30265 0.32026 0.34500
C 	C 	0.70060 0.32792 0.36845 -0.02100
O 	O 	0.57258 0.32396 0.30164 -0.46300
O 	O 	0.41724 0.25137 0.30230 -0.46900
C 	C 	0.64470 0.36941 0.38765 -0.03600
C 	C 	0.78990 0.30630 0.39425 -0.13300
H 	H 	0.58430 0.38280 0.37070 0.07100
C 	C 	0.68240 0.39105 0.43412 -0.02100
C 	C 	0.82399 0.32828 0.44091 0.19100
H 	H 	0.82610 0.27800 0.38080 0.09400
C 	C 	0.76900 0.37070 0.46106 -0.13000
C 	C 	0.61650 0.43446 0.45693 0.34400
O 	O 	0.90428 0.30970 0.47060 -0.22800
H 	H 	0.79050 0.38490 0.49210 0.10100
O 	O 	0.52890 0.44637 0.43559 -0.46300
O 	O 	0.65690 0.45492 0.49740 -0.45500
C 	C 	0.96310 0.26586 0.45572 0.00000
O 	O 	0.37044 0.05929 0.49168 -0.47000
Co	Co	0.42415 0.49493 0.46359 1.15000
H 	H 	0.91310 0.23840 0.44690 0.05100
H 	H 	0.00780 0.27340 0.42600 0.04800
O 	O 	0.49511 0.05111 0.43160 -0.46800
C 	C 	0.10730 0.20521 0.48529 -0.01000
H 	H 	0.06310 0.17540 0.47740 0.05300
H 	H 	0.15590 0.19660 0.51330 0.05400
O 	O 	0.16942 0.22040 0.44121 -0.22500
C 	C 	0.25190 0.19132 0.42343 0.19100
C 	C 	0.28440 0.14602 0.44687 -0.12300
C 	C 	0.30420 0.21236 0.38246 -0.12500
H 	H 	0.24820 0.13330 0.47550 0.09100
C 	C 	0.37300 0.12057 0.42583 -0.04600
C 	C 	0.39400 0.18586 0.36203 -0.04300
H 	H 	0.28120 0.24330 0.36850 0.10000
C 	C 	0.43160 0.14015 0.38392 -0.01400
C 	C 	0.41630 0.07412 0.45167 0.38000
C 	C 	0.45460 0.21084 0.32004 0.35900
H 	H 	0.49290 0.12340 0.37120 0.06000
O 	O 	0.70262 0.23742 0.69545 -0.45500
O 	O 	0.54369 0.30978 0.69704 -0.45200
C 	C 	0.65770 0.19735 0.67974 0.34500
C 	C 	0.70060 0.17208 0.63155 -0.02100
O 	O 	0.57258 0.17604 0.69836 -0.46300
O 	O 	0.41724 0.24863 0.69770 -0.46900
C 	C 	0.64470 0.13059 0.61235 -0.03600
C 	C 	0.78990 0.19370 0.60575 -0.13300
H 	H 	0.58430 0.11720 0.62930 0.07100
C 	C 	0.68240 0.10895 0.56588 -0.02100
C 	C 	0.82399 0.17172 0.55909 0.19100
H 	H 	0.82610 0.22200 0.61920 0.09400
C 	C 	0.76900 0.12930 0.53894 -0.13000
C 	C 	0.61650 0.06554 0.54307 0.34400
O 	O 	0.90428 0.19030 0.52940 -0.22800
H 	H 	0.79050 0.11510 0.50790 0.10200
O 	O 	0.52890 0.05363 0.56441 -0.46300
O 	O 	0.65690 0.04508 0.50260 -0.45400
C 	C 	0.96310 0.23414 0.54428 0.00100
O 	O 	0.37044 0.44071 0.50832 -0.47000
Co	Co	0.42415 0.00507 0.53641 1.15000
H 	H 	0.91310 0.26160 0.55310 0.05100
H 	H 	0.00780 0.22660 0.57400 0.04800
O 	O 	0.49511 0.44889 0.56840 -0.46800
C 	C 	0.10730 0.29479 0.51471 -0.01000
H 	H 	0.06310 0.32460 0.52260 0.05300
H 	H 	0.15590 0.30340 0.48670 0.05400
O 	O 	0.16942 0.27960 0.55879 -0.22500
C 	C 	0.25190 0.30868 0.57657 0.19100
C 	C 	0.28440 0.35398 0.55313 -0.12300
C 	C 	0.30420 0.28764 0.61754 -0.12500
H 	H 	0.24820 0.36670 0.52450 0.09100
C 	C 	0.37300 0.37943 0.57417 -0.04600
C 	C 	0.39400 0.31414 0.63797 -0.04300
H 	H 	0.28120 0.25670 0.63150 0.10000
C 	C 	0.43160 0.35985 0.61608 -0.01400
C 	C 	0.41630 0.42588 0.54833 0.38000
C 	C 	0.45460 0.28916 0.67996 0.35900
H 	H 	0.49290 0.37660 0.62880 0.06000
O 	O 	0.29738 0.76258 0.19545 -0.45500
O 	O 	0.45631 0.69022 0.19704 -0.45200
C 	C 	0.34230 0.80265 0.17974 0.34500
C 	C 	0.29940 0.82792 0.13155 -0.02100
O 	O 	0.42742 0.82396 0.19836 -0.46300
O 	O 	0.58276 0.75137 0.19770 -0.46900
C 	C 	0.35530 0.86941 0.11235 -0.03600
C 	C 	0.21010 0.80630 0.10575 -0.13300
H 	H 	0.41570 0.88280 0.12930 0.07100
C 	C 	0.31760 0.89105 0.06588 -0.02100
C 	C 	0.17601 0.82828 0.05909 0.19100
H 	H 	0.17390 0.77800 0.11920 0.09400
C 	C 	0.23100 0.87070 0.03894 -0.13000
C 	C 	0.38350 0.93446 0.04307 0.34400
O 	O 	0.09572 0.80970 0.02940 -0.22900
H 	H 	0.20950 0.88490 0.00790 0.10100
O 	O 	0.47110 0.94637 0.06441 -0.46400
O 	O 	0.34310 0.95492 0.00260 -0.45500
C 	C 	0.03690 0.76586 0.04428 0.00200
O 	O 	0.62956 0.55929 0.00832 -0.47000
Co	Co	0.57585 0.99493 0.03641 1.14900
H 	H 	0.08690 0.73840 0.05310 0.05000
H 	H 	0.99220 0.77340 0.07400 0.04800
O 	O 	0.50489 0.55111 0.06840 -0.46800
C 	C 	0.89270 0.70521 0.01471 -0.01100
H 	H 	0.93690 0.67540 0.02260 0.05200
H 	H 	0.84410 0.69660 0.98670 0.05500
O 	O 	0.83058 0.72040 0.05879 -0.22500
C 	C 	0.74810 0.69132 0.07657 0.19100
C 	C 	0.71560 0.64602 0.05313 -0.12300
C 	C 	0.69580 0.71236 0.11754 -0.12400
H 	H 	0.75180 0.63330 0.02450 0.09100
C 	C 	0.62700 0.62057 0.07417 -0.04700
C 	C 	0.60600 0.68586 0.13797 -0.04300
H 	H 	0.71880 0.74330 0.13150 0.10000
C 	C 	0.56840 0.64015 0.11608 -0.01400
C 	C 	0.58370 0.57412 0.04833 0.38000
C 	C 	0.54540 0.71084 0.17996 0.35900
H 	H 	0.50710 0.62340 0.12880 0.06000
Co	Co	0.63617 0.22058 0.25000 1.14400
Co	Co	0.48268 0.29358 0.25000 1.15700
Co	Co	0.36383 0.77942 0.75000 1.14400
Co	Co	0.51732 0.70642 0.75000 1.15700
Co	Co	0.36383 0.72058 0.25000 1.14400
Co	Co	0.51732 0.79358 0.25000 1.15700
Co	Co	0.63617 0.27942 0.75000 1.14400
Co	Co	0.48268 0.20642 0.75000 1.15700
C 	C 	0.03460 0.25000 -0.00000 0.02800
C 	C 	0.96540 0.75000 0.50000 0.02900
C 	C 	0.96540 0.75000 -0.00000 0.02500
C 	C 	0.03460 0.25000 0.50000 0.02900
