data_crystal

_cell_length_a 15.61520
_cell_length_b 15.61520
_cell_length_c 7.49630
_cell_angle_alpha 90.00000
_cell_angle_beta  90.00000
_cell_angle_gamma 90.00000

_symmetry_space_group_name_	'P 1'
_symmetry_space_group_name_H-M	'P 1'

loop_
_symmetry_equiv_pos_as_xyz
  x,y,z

loop_
_atom_site_label
_atom_site_type_symbol
_atom_site_fract_x
_atom_site_fract_y
_atom_site_fract_z
_atom_site_charge
Zr	Zr	-0.00000 0.00000 0.25000 3.17200
Zr	Zr	-0.00000 -0.00000 0.75000 3.16800
N 	N 	0.45773 -0.00000 0.15250 -0.08200
C 	C 	0.27682 0.00000 0.16058 -0.14800
C 	C 	0.18780 0.00000 0.16058 0.06700
H 	H 	0.30660 0.00000 0.26802 0.11000
O 	O 	0.14618 0.00000 0.31077 -0.52300
N 	N 	0.54227 -0.00000 0.15250 -0.07900
C 	C 	0.72318 0.00000 0.16058 -0.14700
C 	C 	0.81220 0.00000 0.16058 0.11900
H 	H 	0.69340 0.00000 0.26802 0.12600
O 	O 	0.85382 0.00000 0.31077 -0.42200
N 	N 	-0.00000 0.45773 0.65250 -0.08600
C 	C 	-0.00000 0.27682 0.66058 -0.14600
C 	C 	-0.00000 0.18780 0.66058 0.07400
H 	H 	-0.00000 0.30660 0.76802 0.09900
O 	O 	0.00000 0.14618 0.81077 -0.54900
N 	N 	-0.00000 0.54227 0.65250 -0.08300
C 	C 	-0.00000 0.72318 0.66058 -0.14500
C 	C 	-0.00000 0.81220 0.66058 0.12700
H 	H 	-0.00000 0.69340 0.76802 0.11400
O 	O 	-0.00000 0.85382 0.81077 -0.44600
N 	N 	0.54227 0.00000 0.84750 -0.10800
C 	C 	0.72318 0.00000 0.83942 -0.20200
C 	C 	0.81220 0.00000 0.83942 0.07900
H 	H 	0.69340 0.00000 0.73198 0.13600
O 	O 	0.85382 0.00000 0.68923 -0.42300
N 	N 	0.45773 0.00000 0.84750 -0.11200
C 	C 	0.27682 0.00000 0.83942 -0.20300
C 	C 	0.18780 0.00000 0.83942 0.02700
H 	H 	0.30660 0.00000 0.73198 0.12100
O 	O 	0.14618 0.00000 0.68923 -0.52400
N 	N 	-0.00000 0.45773 0.34750 -0.07500
C 	C 	-0.00000 0.27682 0.33942 -0.14200
C 	C 	0.00000 0.18780 0.33942 0.07500
H 	H 	-0.00000 0.30660 0.23198 0.11900
O 	O 	-0.00000 0.14618 0.18923 -0.51200
N 	N 	-0.00000 0.54227 0.34750 -0.07100
C 	C 	-0.00000 0.72318 0.33942 -0.14100
C 	C 	-0.00000 0.81220 0.33942 0.12700
H 	H 	-0.00000 0.69340 0.23198 0.13400
O 	O 	-0.00000 0.85382 0.18923 -0.41000
C 	C 	0.41547 0.00000 -0.00000 0.12800
C 	C 	0.32133 0.00000 -0.00000 0.11300
C 	C 	0.14330 0.00000 -0.00000 0.22400
O 	O 	0.06643 0.00000 -0.00000 -1.06100
C 	C 	0.58453 0.00000 -0.00000 0.13100
C 	C 	0.67867 0.00000 -0.00000 0.13600
C 	C 	0.85670 0.00000 -0.00000 0.19400
O 	O 	0.93357 0.00000 -0.00000 -0.81500
C 	C 	-0.00000 0.41547 0.50000 0.09300
C 	C 	-0.00000 0.32133 0.50000 0.05800
C 	C 	-0.00000 0.14330 0.50000 0.16100
O 	O 	-0.00000 0.06643 0.50000 -1.07100
C 	C 	-0.00000 0.58453 0.50000 0.09600
C 	C 	0.00000 0.67867 0.50000 0.08300
C 	C 	-0.00000 0.85670 0.50000 0.13200
O 	O 	0.00000 0.93357 0.50000 -0.81700
