data_crystal

_cell_length_a 13.55900
_cell_length_b 13.55900
_cell_length_c 14.99900
_cell_angle_alpha 90.00000
_cell_angle_beta  90.00000
_cell_angle_gamma 120.00000

_symmetry_space_group_name_	'P 1'
_symmetry_space_group_name_H-M	'P 1'

loop_
_symmetry_equiv_pos_as_xyz
  x,y,z

loop_
_atom_site_label
_atom_site_type_symbol
_atom_site_fract_x
_atom_site_fract_y
_atom_site_fract_z
_atom_site_charge
La	La	0.33333 0.66666 0.83048 1.72200
La	La	0.66667 0.33334 0.66952 1.71200
La	La	0.66667 0.33334 0.16952 1.71100
La	La	0.33333 0.66666 0.33048 1.72100
Cu	Cu	0.50000 0.50000 -0.00000 0.91400
Cu	Cu	1.00000 0.50000 -0.00000 0.88000
Cu	Cu	0.50000 0.00000 1.00000 0.90100
Cu	Cu	1.00000 0.50000 0.50000 0.89100
Cu	Cu	0.50000 0.50000 0.50000 0.92600
Cu	Cu	0.50000 0.00000 0.50000 0.89000
H 	H 	0.67320 0.64750 0.07640 0.09500
H 	H 	0.54250 0.72830 0.12790 0.15500
H 	H 	0.60190 0.67920 0.18850 0.14600
H 	H 	0.70730 0.74490 0.95300 0.11100
H 	H 	0.68100 0.81680 0.02080 0.09600
H 	H 	0.97430 0.32680 0.07640 0.02200
H 	H 	0.18580 0.45750 0.12790 0.15500
H 	H 	0.07730 0.39810 0.18850 0.16800
H 	H 	0.03760 0.29270 0.95300 0.13900
H 	H 	0.13580 0.31900 0.02080 0.10200
H 	H 	0.35250 0.02570 0.07640 0.02800
H 	H 	0.27170 0.81420 0.12790 0.16200
H 	H 	0.32080 0.92270 0.18850 0.17600
H 	H 	0.25510 0.96240 0.95300 0.15400
H 	H 	0.18320 0.86420 0.02080 0.12000
H 	H 	0.02570 0.35250 0.42360 0.16500
H 	H 	0.81420 0.27170 0.37210 0.14700
H 	H 	0.92270 0.32080 0.31150 0.11200
H 	H 	0.96240 0.25510 0.54700 0.08200
H 	H 	0.86420 0.18320 0.47920 0.09600
H 	H 	0.64750 0.67320 0.42360 0.09600
H 	H 	0.72830 0.54250 0.37210 0.15400
H 	H 	0.67920 0.60190 0.31150 0.14300
H 	H 	0.74490 0.70730 0.54700 0.12400
H 	H 	0.81680 0.68100 0.47920 0.11900
H 	H 	0.32680 0.97430 0.42360 0.17000
H 	H 	0.45750 0.18580 0.37210 0.15400
H 	H 	0.39810 0.07730 0.31150 0.12100
H 	H 	0.29270 0.03760 0.54700 0.09700
H 	H 	0.31900 0.13580 0.47920 0.11800
H 	H 	0.32680 0.35250 0.92360 0.09700
H 	H 	0.45750 0.27170 0.87210 0.15900
H 	H 	0.39810 0.32080 0.81150 0.14400
H 	H 	0.29270 0.25510 0.04700 0.14100
H 	H 	0.31900 0.18320 0.97920 0.15400
H 	H 	0.02570 0.67320 0.92360 0.16800
H 	H 	0.81420 0.54250 0.87210 0.15900
H 	H 	0.92270 0.60190 0.81150 0.12300
H 	H 	0.96240 0.70730 0.04700 0.11700
H 	H 	0.86420 0.68100 0.97920 0.16000
H 	H 	0.64750 0.97430 0.92360 0.16700
H 	H 	0.72830 0.18580 0.87210 0.15200
H 	H 	0.67920 0.07730 0.81150 0.11400
H 	H 	0.74490 0.03760 0.04700 0.09900
H 	H 	0.81680 0.13580 0.97920 0.13400
H 	H 	0.97430 0.64750 0.57640 0.02800
H 	H 	0.18580 0.72830 0.62790 0.16600
H 	H 	0.07730 0.67920 0.68850 0.17700
H 	H 	0.03760 0.74490 0.45300 0.17200
H 	H 	0.13580 0.81680 0.52080 0.15900
H 	H 	0.35250 0.32680 0.57640 0.09500
H 	H 	0.27170 0.45750 0.62790 0.16100
H 	H 	0.32080 0.39810 0.68850 0.14800
H 	H 	0.25510 0.29270 0.45300 0.12900
H 	H 	0.18320 0.31900 0.52080 0.13800
H 	H 	0.67320 0.02570 0.57640 0.02200
H 	H 	0.54250 0.81420 0.62790 0.16000
H 	H 	0.60190 0.92270 0.68850 0.17000
H 	H 	0.70730 0.96240 0.45300 0.15600
H 	H 	0.68100 0.86420 0.52080 0.13800
C 	C 	0.55310 0.66340 0.13690 -0.37000
C 	C 	0.43860 0.55980 0.15640 0.44700
C 	C 	0.54900 0.72820 0.93200 0.35800
C 	C 	0.64850 0.74400 0.99040 -0.22900
C 	C 	0.11030 0.44690 0.13690 -0.37500
C 	C 	0.12120 0.56140 0.15640 0.45400
C 	C 	0.17920 0.45100 0.93200 0.37000
C 	C 	0.09550 0.35150 0.99040 -0.25000
C 	C 	0.33660 0.88970 0.13690 -0.38200
C 	C 	0.44020 0.87880 0.15640 0.45600
C 	C 	0.27180 0.82080 0.93200 0.37400
C 	C 	0.25600 0.90450 0.99040 -0.25700
C 	C 	0.88970 0.33660 0.36310 -0.35400
C 	C 	0.87880 0.44020 0.34360 0.43800
C 	C 	0.82080 0.27180 0.56800 0.35800
C 	C 	0.90450 0.25600 0.50960 -0.27500
C 	C 	0.66340 0.55310 0.36310 -0.37000
C 	C 	0.55980 0.43860 0.34360 0.44900
C 	C 	0.72820 0.54900 0.56800 0.37300
C 	C 	0.74400 0.64850 0.50960 -0.30200
C 	C 	0.44690 0.11030 0.36310 -0.36000
C 	C 	0.56140 0.12120 0.34360 0.44000
C 	C 	0.45100 0.17920 0.56800 0.36300
C 	C 	0.35150 0.09550 0.50960 -0.28800
C 	C 	0.44690 0.33660 0.86310 -0.37200
C 	C 	0.56140 0.44020 0.84360 0.45100
C 	C 	0.45100 0.27180 0.06800 0.39000
C 	C 	0.35150 0.25600 0.00960 -0.37100
C 	C 	0.88970 0.55310 0.86310 -0.36300
C 	C 	0.87880 0.43860 0.84360 0.44300
C 	C 	0.82080 0.54900 0.06800 0.38200
C 	C 	0.90450 0.64850 0.00960 -0.36900
C 	C 	0.66340 0.11030 0.86310 -0.35800
C 	C 	0.55980 0.12120 0.84360 0.44000
C 	C 	0.72820 0.17920 0.06800 0.37500
C 	C 	0.74400 0.09550 0.00960 -0.34700
C 	C 	0.11030 0.66340 0.63690 -0.38400
C 	C 	0.12120 0.55980 0.65640 0.45800
C 	C 	0.17920 0.72820 0.43200 0.39200
C 	C 	0.09550 0.74400 0.49040 -0.33400
C 	C 	0.33660 0.44690 0.63690 -0.37500
C 	C 	0.44020 0.56140 0.65640 0.45000
C 	C 	0.27180 0.45100 0.43200 0.37600
C 	C 	0.25600 0.35150 0.49040 -0.31100
C 	C 	0.55310 0.88970 0.63690 -0.37900
C 	C 	0.43860 0.87880 0.65640 0.45600
C 	C 	0.54900 0.82080 0.43200 0.38600
C 	C 	0.64850 0.90450 0.49040 -0.32000
N 	N 	0.61110 0.65090 0.05780 -0.17100
N 	N 	0.03980 0.38890 0.05780 -0.09900
N 	N 	0.34910 0.96020 0.05780 -0.10200
N 	N 	0.96020 0.34910 0.44220 -0.22000
N 	N 	0.65090 0.61110 0.44220 -0.15400
N 	N 	0.38890 0.03980 0.44220 -0.21700
N 	N 	0.38890 0.34910 0.94220 -0.13500
N 	N 	0.96020 0.61110 0.94220 -0.19400
N 	N 	0.65090 0.03980 0.94220 -0.20400
N 	N 	0.03980 0.65090 0.55780 -0.08000
N 	N 	0.34910 0.38890 0.55780 -0.15200
N 	N 	0.61110 0.96020 0.55780 -0.08200
O 	O 	0.45340 0.63630 0.94320 -0.43400
O 	O 	0.56220 0.80120 0.87680 -0.35800
O 	O 	0.40200 0.47660 0.10450 -0.42300
O 	O 	0.38830 0.56450 0.22410 -0.44100
O 	O 	0.18290 0.54660 0.94320 -0.42500
O 	O 	0.23900 0.43780 0.87680 -0.36600
O 	O 	0.07460 0.59800 0.10450 -0.38400
O 	O 	0.17620 0.61170 0.22410 -0.43100
O 	O 	0.36370 0.81710 0.94320 -0.42600
O 	O 	0.19880 0.76100 0.87680 -0.35400
O 	O 	0.52340 0.92540 0.10450 -0.39200
O 	O 	0.43550 0.82380 0.22410 -0.43300
O 	O 	0.81710 0.36370 0.55680 -0.44900
O 	O 	0.76100 0.19880 0.62320 -0.38400
O 	O 	0.92540 0.52340 0.39550 -0.44300
O 	O 	0.82380 0.43550 0.27590 -0.44800
O 	O 	0.63630 0.45340 0.55680 -0.44600
O 	O 	0.80120 0.56220 0.62320 -0.37900
O 	O 	0.47660 0.40200 0.39550 -0.42000
O 	O 	0.56450 0.38830 0.27590 -0.44100
O 	O 	0.54660 0.18290 0.55680 -0.44900
O 	O 	0.43780 0.23900 0.62320 -0.37400
O 	O 	0.59800 0.07460 0.39550 -0.44600
O 	O 	0.61170 0.17620 0.27590 -0.45000
O 	O 	0.54660 0.36370 0.05680 -0.45600
O 	O 	0.43780 0.19880 0.12320 -0.38700
O 	O 	0.59800 0.52340 0.89550 -0.41200
O 	O 	0.61170 0.43550 0.77590 -0.44100
O 	O 	0.81710 0.45340 0.05680 -0.46000
O 	O 	0.76100 0.56220 0.12320 -0.38300
O 	O 	0.92540 0.40200 0.89550 -0.43700
O 	O 	0.82380 0.38830 0.77590 -0.45000
O 	O 	0.63630 0.18290 0.05680 -0.46000
O 	O 	0.80120 0.23900 0.12320 -0.39200
O 	O 	0.47660 0.07460 0.89550 -0.44000
O 	O 	0.56450 0.17620 0.77590 -0.44800
O 	O 	0.18290 0.63630 0.44320 -0.43700
O 	O 	0.23900 0.80120 0.37680 -0.36300
O 	O 	0.07460 0.47660 0.60450 -0.38400
O 	O 	0.17620 0.56450 0.72410 -0.43300
O 	O 	0.36370 0.54660 0.44320 -0.44700
O 	O 	0.19880 0.43780 0.37680 -0.36700
O 	O 	0.52340 0.59800 0.60450 -0.42000
O 	O 	0.43550 0.61170 0.72410 -0.44100
O 	O 	0.45340 0.81710 0.44320 -0.43600
O 	O 	0.56220 0.76100 0.37680 -0.37400
O 	O 	0.40200 0.92540 0.60450 -0.38100
O 	O 	0.38830 0.82380 0.72410 -0.43100
