data_crystal

_cell_length_a 13.40270
_cell_length_b 13.40270
_cell_length_c 14.66900
_cell_angle_alpha 90.00000
_cell_angle_beta  90.00000
_cell_angle_gamma 120.00000

_symmetry_space_group_name_	'P 1'
_symmetry_space_group_name_H-M	'P 1'

loop_
_symmetry_equiv_pos_as_xyz
  x,y,z

loop_
_atom_site_label
_atom_site_type_symbol
_atom_site_fract_x
_atom_site_fract_y
_atom_site_fract_z
_atom_site_charge
Nd	Nd	0.33333 0.66666 0.83111 2.39000
Nd	Nd	0.66667 0.33334 0.66889 2.36600
Nd	Nd	0.66667 0.33334 0.16889 2.35800
Nd	Nd	0.33333 0.66666 0.33111 2.38200
Cu	Cu	1.00000 0.50000 -0.00000 0.86400
Cu	Cu	0.50000 0.00000 -0.00000 0.86500
Cu	Cu	0.50000 0.50000 -0.00000 0.90100
Cu	Cu	0.50000 0.50000 0.50000 0.92900
Cu	Cu	0.50000 0.00000 0.50000 0.89300
Cu	Cu	1.00000 0.50000 0.50000 0.89300
H 	H 	0.04040 0.29250 0.95190 0.10600
H 	H 	0.13950 0.32000 0.02170 0.03300
H 	H 	0.97520 0.32630 0.07730 0.01700
H 	H 	0.19080 0.45890 0.12680 0.14600
H 	H 	0.08260 0.39730 0.19020 0.16500
H 	H 	0.25210 0.95960 0.95190 0.12500
H 	H 	0.18050 0.86050 0.02170 0.06100
H 	H 	0.35110 0.02480 0.07730 0.02100
H 	H 	0.26810 0.80920 0.12680 0.15300
H 	H 	0.31470 0.91740 0.19020 0.17400
H 	H 	0.70750 0.74790 0.95190 0.07900
H 	H 	0.68000 0.81950 0.02170 0.03200
H 	H 	0.67370 0.64890 0.07730 0.09200
H 	H 	0.54110 0.73190 0.12680 0.14700
H 	H 	0.60270 0.68530 0.19020 0.14300
H 	H 	0.74790 0.70750 0.54810 0.12400
H 	H 	0.81950 0.68000 0.47830 0.11700
H 	H 	0.64890 0.67370 0.42270 0.09400
H 	H 	0.73190 0.54110 0.37320 0.15400
H 	H 	0.68530 0.60270 0.30980 0.14300
H 	H 	0.29250 0.04040 0.54810 0.09600
H 	H 	0.32000 0.13950 0.47830 0.11600
H 	H 	0.32630 0.97520 0.42270 0.16900
H 	H 	0.45890 0.19080 0.37320 0.15300
H 	H 	0.39730 0.08260 0.30980 0.12000
H 	H 	0.95960 0.25210 0.54810 0.08000
H 	H 	0.86050 0.18050 0.47830 0.09400
H 	H 	0.02480 0.35110 0.42270 0.16500
H 	H 	0.80920 0.26810 0.37320 0.14600
H 	H 	0.91740 0.31470 0.30980 0.11100
H 	H 	0.95960 0.70750 0.04810 0.14700
H 	H 	0.86050 0.68000 0.97830 0.22400
H 	H 	0.02480 0.67370 0.92270 0.16800
H 	H 	0.80920 0.54110 0.87320 0.16600
H 	H 	0.91740 0.60270 0.80980 0.12400
H 	H 	0.74790 0.04040 0.04810 0.13100
H 	H 	0.81950 0.13950 0.97830 0.20500
H 	H 	0.64890 0.97520 0.92270 0.16400
H 	H 	0.73190 0.19080 0.87320 0.16000
H 	H 	0.68530 0.08260 0.80980 0.11600
H 	H 	0.29250 0.25210 0.04810 0.17400
H 	H 	0.32000 0.18050 0.97830 0.22400
H 	H 	0.32630 0.35110 0.92270 0.09600
H 	H 	0.45890 0.26810 0.87320 0.16700
H 	H 	0.39730 0.31470 0.80980 0.14600
H 	H 	0.25210 0.29250 0.45190 0.12800
H 	H 	0.18050 0.32000 0.52170 0.13700
H 	H 	0.35110 0.32630 0.57730 0.09400
H 	H 	0.26810 0.45890 0.62680 0.16000
H 	H 	0.31470 0.39730 0.69020 0.14800
H 	H 	0.70750 0.95960 0.45190 0.15500
H 	H 	0.68000 0.86050 0.52170 0.13700
H 	H 	0.67370 0.02480 0.57730 0.02000
H 	H 	0.54110 0.80920 0.62680 0.16000
H 	H 	0.60270 0.91740 0.69020 0.16900
H 	H 	0.04040 0.74790 0.45190 0.17200
H 	H 	0.13950 0.81950 0.52170 0.15900
H 	H 	0.97520 0.64890 0.57730 0.02400
H 	H 	0.19080 0.73190 0.62680 0.16600
H 	H 	0.08260 0.68530 0.69020 0.17800
C 	C 	0.18180 0.45310 0.93220 0.36700
C 	C 	0.09820 0.35210 0.99040 -0.11800
C 	C 	0.11420 0.44700 0.13760 -0.39000
C 	C 	0.12260 0.56050 0.15720 0.50600
C 	C 	0.27130 0.81820 0.93220 0.37600
C 	C 	0.25390 0.90180 0.99040 -0.14200
C 	C 	0.33280 0.88580 0.13760 -0.39700
C 	C 	0.43790 0.87740 0.15720 0.50900
C 	C 	0.54690 0.72870 0.93220 0.35700
C 	C 	0.64790 0.74610 0.99040 -0.10400
C 	C 	0.55300 0.66720 0.13760 -0.38500
C 	C 	0.43950 0.56210 0.15720 0.49900
C 	C 	0.72870 0.54690 0.56780 0.40400
C 	C 	0.74610 0.64790 0.50960 -0.30400
C 	C 	0.66720 0.55300 0.36240 -0.39100
C 	C 	0.56210 0.43950 0.34280 0.50400
C 	C 	0.45310 0.18180 0.56780 0.39400
C 	C 	0.35210 0.09820 0.50960 -0.29000
C 	C 	0.44700 0.11420 0.36240 -0.37900
C 	C 	0.56050 0.12260 0.34280 0.49500
C 	C 	0.81820 0.27130 0.56780 0.38800
C 	C 	0.90180 0.25390 0.50960 -0.27500
C 	C 	0.88580 0.33280 0.36240 -0.37300
C 	C 	0.87740 0.43790 0.34280 0.49200
C 	C 	0.81820 0.54690 0.06780 0.44600
C 	C 	0.90180 0.64790 0.00960 -0.50200
C 	C 	0.88580 0.55300 0.86240 -0.38700
C 	C 	0.87740 0.43950 0.84280 0.50200
C 	C 	0.72870 0.18180 0.06780 0.44200
C 	C 	0.74610 0.09820 0.00960 -0.49400
C 	C 	0.66720 0.11420 0.86240 -0.38100
C 	C 	0.56210 0.12260 0.84280 0.50000
C 	C 	0.45310 0.27130 0.06780 0.45700
C 	C 	0.35210 0.25390 0.00960 -0.51500
C 	C 	0.44700 0.33280 0.86240 -0.39800
C 	C 	0.56050 0.43790 0.84280 0.51100
C 	C 	0.27130 0.45310 0.43220 0.40800
C 	C 	0.25390 0.35210 0.49040 -0.31400
C 	C 	0.33280 0.44700 0.63760 -0.39600
C 	C 	0.43790 0.56050 0.65720 0.50700
C 	C 	0.54690 0.81820 0.43220 0.41800
C 	C 	0.64790 0.90180 0.49040 -0.32400
C 	C 	0.55300 0.88580 0.63760 -0.40200
C 	C 	0.43950 0.87740 0.65720 0.51300
C 	C 	0.18180 0.72870 0.43220 0.42400
C 	C 	0.09820 0.74610 0.49040 -0.33900
C 	C 	0.11420 0.66720 0.63760 -0.40700
C 	C 	0.12260 0.56210 0.65720 0.51600
N 	N 	0.04110 0.38940 0.05801 -0.12800
N 	N 	0.34830 0.95890 0.05801 -0.12200
N 	N 	0.61060 0.65170 0.05801 -0.20100
N 	N 	0.65170 0.61060 0.44199 -0.15400
N 	N 	0.38940 0.04110 0.44199 -0.21900
N 	N 	0.95890 0.34830 0.44199 -0.22200
N 	N 	0.95890 0.61060 0.94199 -0.15800
N 	N 	0.65170 0.04110 0.94199 -0.16000
N 	N 	0.38940 0.34830 0.94199 -0.09700
N 	N 	0.34830 0.38940 0.55801 -0.15100
N 	N 	0.61060 0.95890 0.55801 -0.08000
N 	N 	0.04110 0.65170 0.55801 -0.07700
O 	O 	0.24234 0.43902 0.87592 -0.40200
O 	O 	0.18480 0.54780 0.94309 -0.49900
O 	O 	0.07410 0.59800 0.10552 -0.41000
O 	O 	0.17830 0.61500 0.22561 -0.54300
O 	O 	0.19668 0.75766 0.87592 -0.39300
O 	O 	0.36300 0.81520 0.94309 -0.50100
O 	O 	0.52390 0.92590 0.10552 -0.41300
O 	O 	0.43670 0.82170 0.22561 -0.54500
O 	O 	0.56098 0.80332 0.87592 -0.39500
O 	O 	0.45220 0.63700 0.94309 -0.50900
O 	O 	0.40200 0.47610 0.10552 -0.45100
O 	O 	0.38500 0.56330 0.22561 -0.55300
O 	O 	0.80332 0.56098 0.62408 -0.43000
O 	O 	0.63700 0.45220 0.55691 -0.54100
O 	O 	0.47610 0.40200 0.39448 -0.44100
O 	O 	0.56330 0.38500 0.27439 -0.55000
O 	O 	0.43902 0.24234 0.62408 -0.42500
O 	O 	0.54780 0.18480 0.55691 -0.54400
O 	O 	0.59800 0.07410 0.39448 -0.46800
O 	O 	0.61500 0.17830 0.27439 -0.55900
O 	O 	0.75766 0.19668 0.62408 -0.43400
O 	O 	0.81520 0.36300 0.55691 -0.54400
O 	O 	0.92590 0.52390 0.39448 -0.46500
O 	O 	0.82170 0.43670 0.27439 -0.55700
O 	O 	0.75766 0.56098 0.12408 -0.44800
O 	O 	0.81520 0.45220 0.05691 -0.57400
O 	O 	0.92590 0.40200 0.89448 -0.44700
O 	O 	0.82170 0.38500 0.77439 -0.56000
O 	O 	0.80332 0.24234 0.12408 -0.45800
O 	O 	0.63700 0.18480 0.05691 -0.57400
O 	O 	0.47610 0.07410 0.89448 -0.44400
O 	O 	0.56330 0.17830 0.77439 -0.55800
O 	O 	0.43902 0.19668 0.12408 -0.45300
O 	O 	0.54780 0.36300 0.05691 -0.57100
O 	O 	0.59800 0.52390 0.89448 -0.42200
O 	O 	0.61500 0.43670 0.77439 -0.55100
O 	O 	0.19668 0.43902 0.37592 -0.41900
O 	O 	0.36300 0.54780 0.44309 -0.54400
O 	O 	0.52390 0.59800 0.60552 -0.44200
O 	O 	0.43670 0.61500 0.72561 -0.55400
O 	O 	0.56098 0.75766 0.37592 -0.42600
O 	O 	0.45220 0.81520 0.44309 -0.53300
O 	O 	0.40200 0.92590 0.60552 -0.40200
O 	O 	0.38500 0.82170 0.72561 -0.54400
O 	O 	0.24234 0.80332 0.37592 -0.41500
O 	O 	0.18480 0.63700 0.44309 -0.53300
O 	O 	0.07410 0.47610 0.60552 -0.40500
O 	O 	0.17830 0.56330 0.72561 -0.54600
