data_crystal

_cell_length_a 13.47130
_cell_length_b 13.47130
_cell_length_c 14.92200
_cell_angle_alpha 90.00000
_cell_angle_beta  90.00000
_cell_angle_gamma 120.00000

_symmetry_space_group_name_	'P 1'
_symmetry_space_group_name_H-M	'P 1'

loop_
_symmetry_equiv_pos_as_xyz
  x,y,z

loop_
_atom_site_label
_atom_site_type_symbol
_atom_site_fract_x
_atom_site_fract_y
_atom_site_fract_z
_atom_site_charge
La	La	0.66667 0.33334 0.16956 1.72500
La	La	0.33333 0.66666 0.33044 1.72300
La	La	0.33333 0.66666 0.83044 1.72400
La	La	0.66667 0.33334 0.66956 1.72400
Cu	Cu	0.50000 0.50000 -0.00000 0.91900
Cu	Cu	0.00000 0.50000 1.00000 0.90700
Cu	Cu	0.50000 0.00000 -0.00000 0.88800
Cu	Cu	-0.00000 0.50000 0.50000 0.89900
Cu	Cu	0.50000 0.50000 0.50000 0.92800
Cu	Cu	0.50000 0.00000 0.50000 0.89800
H 	H 	0.32010 0.18250 0.97760 0.14700
H 	H 	0.29220 0.25340 0.04640 0.13100
H 	H 	0.39630 0.31680 0.81150 0.14000
H 	H 	0.45730 0.26930 0.87320 0.15700
H 	H 	0.32590 0.35190 0.92390 0.09300
H 	H 	0.86240 0.67990 0.97760 0.18500
H 	H 	0.96120 0.70780 0.04640 0.18100
H 	H 	0.92050 0.60370 0.81150 0.17300
H 	H 	0.81200 0.54270 0.87320 0.16700
H 	H 	0.02600 0.67410 0.92390 0.03700
H 	H 	0.81750 0.13760 0.97760 0.17000
H 	H 	0.74660 0.03880 0.04640 0.12400
H 	H 	0.68320 0.07950 0.81150 0.12900
H 	H 	0.73070 0.18800 0.87320 0.16200
H 	H 	0.64810 0.97400 0.92390 0.15600
H 	H 	0.13760 0.81750 0.52240 0.12900
H 	H 	0.03880 0.74660 0.45360 0.10500
H 	H 	0.07950 0.68320 0.68850 0.12700
H 	H 	0.18800 0.73070 0.62680 0.15700
H 	H 	0.97400 0.64810 0.57610 0.15800
H 	H 	0.18250 0.32010 0.52240 0.11100
H 	H 	0.25340 0.29220 0.45360 0.11400
H 	H 	0.31680 0.39630 0.68850 0.13900
H 	H 	0.26930 0.45730 0.62680 0.15200
H 	H 	0.35190 0.32590 0.57610 0.09200
H 	H 	0.67990 0.86240 0.52240 0.14800
H 	H 	0.70780 0.96120 0.45360 0.16400
H 	H 	0.60370 0.92050 0.68850 0.17100
H 	H 	0.54270 0.81200 0.62680 0.16200
H 	H 	0.67410 0.02600 0.57610 0.03800
H 	H 	0.67990 0.81750 0.02240 0.11500
H 	H 	0.70780 0.74660 0.95360 0.12600
H 	H 	0.60370 0.68320 0.18850 0.15200
H 	H 	0.54270 0.73070 0.12680 0.15900
H 	H 	0.67410 0.64810 0.07610 0.09900
H 	H 	0.13760 0.32010 0.02240 0.07900
H 	H 	0.03880 0.29220 0.95360 0.07600
H 	H 	0.07950 0.39630 0.18850 0.12000
H 	H 	0.18800 0.45730 0.12680 0.14800
H 	H 	0.97400 0.32590 0.07610 0.15000
H 	H 	0.18250 0.86240 0.02240 0.10200
H 	H 	0.25340 0.96120 0.95360 0.13700
H 	H 	0.31680 0.92050 0.18850 0.16300
H 	H 	0.26930 0.81200 0.12680 0.15300
H 	H 	0.35190 0.02600 0.07610 0.03200
H 	H 	0.86240 0.18250 0.47760 0.12900
H 	H 	0.96120 0.25340 0.54640 0.15100
H 	H 	0.92050 0.31680 0.31150 0.16300
H 	H 	0.81200 0.26930 0.37320 0.15700
H 	H 	0.02600 0.35190 0.42390 0.03500
H 	H 	0.81750 0.67990 0.47760 0.14800
H 	H 	0.74660 0.70780 0.54640 0.14200
H 	H 	0.68320 0.60370 0.31150 0.15300
H 	H 	0.73070 0.54270 0.37320 0.16300
H 	H 	0.64810 0.67410 0.42390 0.09900
H 	H 	0.32010 0.13760 0.47760 0.11000
H 	H 	0.29220 0.03880 0.54640 0.09200
H 	H 	0.39630 0.07950 0.31150 0.11900
H 	H 	0.45730 0.18800 0.37320 0.15100
H 	H 	0.32590 0.97400 0.42390 0.15500
C 	C 	0.45150 0.27190 0.06680 0.39300
C 	C 	0.35180 0.25530 0.00870 -0.37000
C 	C 	0.44580 0.33400 0.86330 -0.37000
C 	C 	0.55970 0.43880 0.84370 0.44100
C 	C 	0.82040 0.54850 0.06680 0.41200
C 	C 	0.90350 0.64820 0.00870 -0.40700
C 	C 	0.88820 0.55420 0.86330 -0.38500
C 	C 	0.87910 0.44030 0.84370 0.45200
C 	C 	0.72810 0.17960 0.06680 0.39200
C 	C 	0.74470 0.09650 0.00870 -0.38000
C 	C 	0.66600 0.11180 0.86330 -0.36700
C 	C 	0.56120 0.12090 0.84370 0.43600
C 	C 	0.17960 0.72810 0.43320 0.37300
C 	C 	0.09650 0.74470 0.49130 -0.29900
C 	C 	0.11180 0.66600 0.63670 -0.36400
C 	C 	0.12090 0.56120 0.65630 0.43400
C 	C 	0.27190 0.45150 0.43320 0.37600
C 	C 	0.25530 0.35180 0.49130 -0.30000
C 	C 	0.33400 0.44580 0.63670 -0.36800
C 	C 	0.43880 0.55970 0.65630 0.43900
C 	C 	0.54850 0.82040 0.43320 0.39400
C 	C 	0.64820 0.90350 0.49130 -0.33200
C 	C 	0.55420 0.88820 0.63670 -0.38100
C 	C 	0.44030 0.87910 0.65630 0.44900
C 	C 	0.54850 0.72810 0.93320 0.37000
C 	C 	0.64820 0.74470 0.99130 -0.25600
C 	C 	0.55420 0.66600 0.13670 -0.37400
C 	C 	0.44030 0.56120 0.15630 0.44100
C 	C 	0.17960 0.45150 0.93320 0.35200
C 	C 	0.09650 0.35180 0.99130 -0.22400
C 	C 	0.11180 0.44580 0.13670 -0.35700
C 	C 	0.12090 0.55970 0.15630 0.43000
C 	C 	0.27190 0.82040 0.93320 0.37600
C 	C 	0.25530 0.90350 0.99130 -0.26400
C 	C 	0.33400 0.88820 0.13670 -0.37400
C 	C 	0.43880 0.87910 0.15630 0.44500
C 	C 	0.82040 0.27190 0.56680 0.39000
C 	C 	0.90350 0.25530 0.50870 -0.32000
C 	C 	0.88820 0.33400 0.36330 -0.37700
C 	C 	0.87910 0.43880 0.34370 0.44700
C 	C 	0.72810 0.54850 0.56680 0.38600
C 	C 	0.74470 0.64820 0.50870 -0.32400
C 	C 	0.66600 0.55420 0.36330 -0.37700
C 	C 	0.56120 0.44030 0.34370 0.44300
C 	C 	0.45150 0.17960 0.56680 0.36700
C 	C 	0.35180 0.09650 0.50870 -0.28700
C 	C 	0.44580 0.11180 0.36330 -0.35900
C 	C 	0.55970 0.12090 0.34370 0.43200
N 	N 	0.38850 0.34860 0.94247 -0.13500
N 	N 	0.96010 0.61150 0.94247 -0.07100
N 	N 	0.65140 0.03990 0.94247 -0.18100
N 	N 	0.03990 0.65140 0.55753 -0.20500
N 	N 	0.34860 0.38850 0.55753 -0.15400
N 	N 	0.61150 0.96010 0.55753 -0.09000
N 	N 	0.61150 0.65140 0.05753 -0.16500
N 	N 	0.03990 0.38850 0.05753 -0.22200
N 	N 	0.34860 0.96010 0.05753 -0.10500
N 	N 	0.96010 0.34860 0.44247 -0.09300
N 	N 	0.65140 0.61150 0.44247 -0.14900
N 	N 	0.38850 0.03990 0.44247 -0.20800
O 	O 	0.43780 0.19700 0.12298 -0.38800
O 	O 	0.54600 0.36330 0.05682 -0.46500
O 	O 	0.59740 0.52340 0.89543 -0.40900
O 	O 	0.61340 0.43760 0.77561 -0.43500
O 	O 	0.75920 0.56220 0.12298 -0.37700
O 	O 	0.81730 0.45400 0.05682 -0.45900
O 	O 	0.92600 0.40260 0.89543 -0.38300
O 	O 	0.82420 0.38660 0.77561 -0.43000
O 	O 	0.80300 0.24080 0.12298 -0.37600
O 	O 	0.63670 0.18270 0.05682 -0.46900
O 	O 	0.47660 0.07400 0.89543 -0.43200
O 	O 	0.56240 0.17580 0.77561 -0.44500
O 	O 	0.24080 0.80300 0.37702 -0.36700
O 	O 	0.18270 0.63670 0.44318 -0.45800
O 	O 	0.07400 0.47660 0.60457 -0.43900
O 	O 	0.17580 0.56240 0.72439 -0.44500
O 	O 	0.19700 0.43780 0.37702 -0.38100
O 	O 	0.36330 0.54600 0.44318 -0.45500
O 	O 	0.52340 0.59740 0.60457 -0.41500
O 	O 	0.43760 0.61340 0.72439 -0.43500
O 	O 	0.56220 0.75920 0.37702 -0.36900
O 	O 	0.45400 0.81730 0.44318 -0.44600
O 	O 	0.40260 0.92600 0.60457 -0.38700
O 	O 	0.38660 0.82420 0.72439 -0.43000
O 	O 	0.56220 0.80300 0.87702 -0.35600
O 	O 	0.45400 0.63670 0.94318 -0.44400
O 	O 	0.40260 0.47660 0.10457 -0.42300
O 	O 	0.38660 0.56240 0.22439 -0.43900
O 	O 	0.24080 0.43780 0.87702 -0.36900
O 	O 	0.18270 0.54600 0.94318 -0.44900
O 	O 	0.07400 0.59740 0.10457 -0.44100
O 	O 	0.17580 0.61340 0.22439 -0.44300
O 	O 	0.19700 0.75920 0.87702 -0.37100
O 	O 	0.36330 0.81730 0.94318 -0.43600
O 	O 	0.52340 0.92600 0.10457 -0.38700
O 	O 	0.43760 0.82420 0.22439 -0.42800
O 	O 	0.75920 0.19700 0.62298 -0.37700
O 	O 	0.81730 0.36330 0.55682 -0.44600
O 	O 	0.92600 0.52340 0.39543 -0.38500
O 	O 	0.82420 0.43760 0.27561 -0.42800
O 	O 	0.80300 0.56220 0.62298 -0.36300
O 	O 	0.63670 0.45400 0.55682 -0.45600
O 	O 	0.47660 0.40260 0.39543 -0.42000
O 	O 	0.56240 0.38660 0.27561 -0.43900
O 	O 	0.43780 0.24080 0.62298 -0.37600
O 	O 	0.54600 0.18270 0.55682 -0.45700
O 	O 	0.59740 0.07400 0.39543 -0.43700
O 	O 	0.61340 0.17580 0.27561 -0.44300
