data_crystal

_cell_length_a 13.30600
_cell_length_b 13.30600
_cell_length_c 14.52800
_cell_angle_alpha 90.00000
_cell_angle_beta  90.00000
_cell_angle_gamma 120.00000

_symmetry_space_group_name_	'P 1'
_symmetry_space_group_name_H-M	'P 1'

loop_
_symmetry_equiv_pos_as_xyz
  x,y,z

loop_
_atom_site_label
_atom_site_type_symbol
_atom_site_fract_x
_atom_site_fract_y
_atom_site_fract_z
_atom_site_charge
Eu	Eu	0.33333 0.66666 0.83186 2.10500
Eu	Eu	0.66667 0.33334 0.66814 2.10400
Eu	Eu	0.66667 0.33334 0.16814 2.10200
Eu	Eu	0.33333 0.66666 0.33186 2.10200
Cu	Cu	0.50000 0.00000 -0.00000 0.89100
Cu	Cu	0.50000 0.50000 1.00000 0.93900
Cu	Cu	-0.00000 0.50000 -0.00000 0.89200
Cu	Cu	0.50000 0.00000 0.50000 0.90000
Cu	Cu	0.00000 0.50000 0.50000 0.90000
Cu	Cu	0.50000 0.50000 0.50000 0.93000
H 	H 	0.67540 0.02470 0.07800 0.03500
H 	H 	0.68210 0.86150 0.02040 0.11700
H 	H 	0.70730 0.96090 0.95010 0.14900
H 	H 	0.60280 0.91660 0.19270 0.17400
H 	H 	0.54090 0.80750 0.12850 0.16300
H 	H 	0.34930 0.32460 0.07800 0.09000
H 	H 	0.17940 0.31790 0.02040 0.07400
H 	H 	0.25360 0.29270 0.95010 0.09600
H 	H 	0.31380 0.39720 0.19270 0.14100
H 	H 	0.26660 0.45910 0.12850 0.15300
H 	H 	0.97530 0.65070 0.07800 0.15800
H 	H 	0.13850 0.82060 0.02040 0.09400
H 	H 	0.03910 0.74640 0.95010 0.08800
H 	H 	0.08340 0.68620 0.19270 0.13000
H 	H 	0.19250 0.73340 0.12850 0.15700
H 	H 	0.65070 0.97530 0.42200 0.15800
H 	H 	0.82060 0.13850 0.47960 0.12600
H 	H 	0.74640 0.03910 0.54990 0.10200
H 	H 	0.68620 0.08340 0.30730 0.13100
H 	H 	0.73340 0.19250 0.37150 0.16100
H 	H 	0.02470 0.67540 0.42200 0.03700
H 	H 	0.86150 0.68210 0.47960 0.14600
H 	H 	0.96090 0.70730 0.54990 0.16300
H 	H 	0.91660 0.60280 0.30730 0.17400
H 	H 	0.80750 0.54090 0.37150 0.16600
H 	H 	0.32460 0.34930 0.42200 0.09100
H 	H 	0.31790 0.17940 0.47960 0.10800
H 	H 	0.29270 0.25360 0.54990 0.11200
H 	H 	0.39720 0.31380 0.30730 0.14200
H 	H 	0.45910 0.26660 0.37150 0.15600
H 	H 	0.32460 0.97530 0.92200 0.15300
H 	H 	0.31790 0.13850 0.97960 0.14200
H 	H 	0.29270 0.03910 0.04990 0.10500
H 	H 	0.39720 0.08340 0.80730 0.12500
H 	H 	0.45910 0.19250 0.87150 0.16000
H 	H 	0.65070 0.67540 0.92200 0.09900
H 	H 	0.82060 0.68210 0.97960 0.17500
H 	H 	0.74640 0.70730 0.04990 0.15400
H 	H 	0.68620 0.60280 0.80730 0.15800
H 	H 	0.73340 0.54090 0.87150 0.17100
H 	H 	0.02470 0.34930 0.92200 0.03700
H 	H 	0.86150 0.17940 0.97960 0.15700
H 	H 	0.96090 0.25360 0.04990 0.16300
H 	H 	0.91660 0.31380 0.80730 0.16700
H 	H 	0.80750 0.26660 0.87150 0.16500
H 	H 	0.34930 0.02470 0.57800 0.03300
H 	H 	0.17940 0.86150 0.52040 0.12700
H 	H 	0.25360 0.96090 0.45010 0.15000
H 	H 	0.31380 0.91660 0.69270 0.16700
H 	H 	0.26660 0.80750 0.62850 0.16100
H 	H 	0.97530 0.32460 0.57800 0.15300
H 	H 	0.13850 0.31790 0.52040 0.10700
H 	H 	0.03910 0.29270 0.45010 0.08900
H 	H 	0.08340 0.39720 0.69270 0.12500
H 	H 	0.19250 0.45910 0.62850 0.15600
H 	H 	0.67540 0.65070 0.57800 0.09900
H 	H 	0.68210 0.82060 0.52040 0.14700
H 	H 	0.70730 0.74640 0.45010 0.14000
H 	H 	0.60280 0.68620 0.69270 0.15700
H 	H 	0.54090 0.73340 0.62850 0.16700
C 	C 	0.54680 0.81620 0.93010 0.40600
C 	C 	0.64820 0.90200 0.98930 -0.27300
C 	C 	0.55290 0.88470 0.13930 -0.39700
C 	C 	0.43820 0.87580 0.15940 0.50300
C 	C 	0.26940 0.45320 0.93010 0.38400
C 	C 	0.25380 0.35180 0.98930 -0.22700
C 	C 	0.33180 0.44710 0.13930 -0.38500
C 	C 	0.43760 0.56180 0.15940 0.49400
C 	C 	0.18380 0.73060 0.93010 0.38100
C 	C 	0.09800 0.74620 0.98930 -0.23000
C 	C 	0.11530 0.66820 0.13930 -0.38000
C 	C 	0.12420 0.56240 0.15940 0.48900
C 	C 	0.73060 0.18380 0.56990 0.39700
C 	C 	0.74620 0.09800 0.51070 -0.29500
C 	C 	0.66820 0.11530 0.36070 -0.38300
C 	C 	0.56240 0.12420 0.34060 0.49100
C 	C 	0.81620 0.54680 0.56990 0.42000
C 	C 	0.90200 0.64820 0.51070 -0.33000
C 	C 	0.88470 0.55290 0.36070 -0.40000
C 	C 	0.87580 0.43820 0.34060 0.50600
C 	C 	0.45320 0.26940 0.56990 0.40100
C 	C 	0.35180 0.25380 0.51070 -0.29600
C 	C 	0.44710 0.33180 0.36070 -0.38700
C 	C 	0.56180 0.43760 0.34060 0.49600
C 	C 	0.45320 0.18380 0.06990 0.40900
C 	C 	0.35180 0.09800 0.01070 -0.35200
C 	C 	0.44710 0.11530 0.86070 -0.38100
C 	C 	0.56180 0.12420 0.84060 0.49100
C 	C 	0.73060 0.54680 0.06990 0.42600
C 	C 	0.74620 0.64820 0.01070 -0.37900
C 	C 	0.66820 0.55290 0.86070 -0.40000
C 	C 	0.56240 0.43820 0.84060 0.50300
C 	C 	0.81620 0.26940 0.06990 0.42900
C 	C 	0.90200 0.25380 0.01070 -0.37600
C 	C 	0.88470 0.33180 0.86070 -0.39700
C 	C 	0.87580 0.43760 0.84060 0.50500
C 	C 	0.26940 0.81620 0.43010 0.41500
C 	C 	0.25380 0.90200 0.48930 -0.31800
C 	C 	0.33180 0.88470 0.63930 -0.39600
C 	C 	0.43760 0.87580 0.65940 0.50300
C 	C 	0.18380 0.45320 0.43010 0.39200
C 	C 	0.09800 0.35180 0.48930 -0.28400
C 	C 	0.11530 0.44710 0.63930 -0.37900
C 	C 	0.12420 0.56180 0.65940 0.48900
C 	C 	0.54680 0.73060 0.43010 0.41100
C 	C 	0.64820 0.74620 0.48930 -0.32100
C 	C 	0.55290 0.66820 0.63930 -0.39700
C 	C 	0.43820 0.56240 0.65940 0.50000
N 	N 	0.61170 0.95830 0.05840 -0.10100
N 	N 	0.34660 0.38830 0.05840 -0.17100
N 	N 	0.04170 0.65340 0.05840 -0.22000
N 	N 	0.65340 0.04170 0.44160 -0.20500
N 	N 	0.95830 0.61170 0.44160 -0.08900
N 	N 	0.38830 0.34660 0.44160 -0.15300
N 	N 	0.38830 0.04170 0.94160 -0.18700
N 	N 	0.65340 0.61170 0.94160 -0.13300
N 	N 	0.95830 0.34660 0.94160 -0.07700
N 	N 	0.34660 0.95830 0.55840 -0.09000
N 	N 	0.04170 0.38830 0.55840 -0.20600
N 	N 	0.61170 0.65340 0.55840 -0.14800
O 	O 	0.45190 0.81270 0.94210 -0.50000
O 	O 	0.56090 0.75540 0.87310 -0.39500
O 	O 	0.40220 0.92610 0.10700 -0.40700
O 	O 	0.38230 0.81950 0.22780 -0.51300
O 	O 	0.36080 0.54810 0.94210 -0.50800
O 	O 	0.19450 0.43910 0.87310 -0.40500
O 	O 	0.52390 0.59780 0.10700 -0.44000
O 	O 	0.43720 0.61770 0.22780 -0.51800
O 	O 	0.18730 0.63920 0.94210 -0.50900
O 	O 	0.24460 0.80550 0.87310 -0.39100
O 	O 	0.07390 0.47610 0.10700 -0.46200
O 	O 	0.18050 0.56280 0.22780 -0.52800
O 	O 	0.63920 0.18730 0.55790 -0.52000
O 	O 	0.80550 0.24460 0.62690 -0.39900
O 	O 	0.47610 0.07390 0.39300 -0.46000
O 	O 	0.56280 0.18050 0.27220 -0.52700
O 	O 	0.81270 0.45190 0.55790 -0.51000
O 	O 	0.75540 0.56090 0.62690 -0.40100
O 	O 	0.92610 0.40220 0.39300 -0.40500
O 	O 	0.81950 0.38230 0.27220 -0.51300
O 	O 	0.54810 0.36080 0.55790 -0.51800
O 	O 	0.43910 0.19450 0.62690 -0.41200
O 	O 	0.59780 0.52390 0.39300 -0.43400
O 	O 	0.61770 0.43720 0.27220 -0.51800
O 	O 	0.54810 0.18730 0.05790 -0.52900
O 	O 	0.43910 0.24460 0.12690 -0.41500
O 	O 	0.59780 0.07390 0.89300 -0.45100
O 	O 	0.61770 0.18050 0.77220 -0.52600
O 	O 	0.63920 0.45190 0.05790 -0.52900
O 	O 	0.80550 0.56090 0.12690 -0.40200
O 	O 	0.47610 0.40220 0.89300 -0.43600
O 	O 	0.56280 0.38230 0.77220 -0.52200
O 	O 	0.81270 0.36080 0.05790 -0.51700
O 	O 	0.75540 0.19450 0.12690 -0.41600
O 	O 	0.92610 0.52390 0.89300 -0.39900
O 	O 	0.81950 0.43720 0.77220 -0.51100
O 	O 	0.36080 0.81270 0.44210 -0.50900
O 	O 	0.19450 0.75540 0.37310 -0.40900
O 	O 	0.52390 0.92610 0.60700 -0.40300
O 	O 	0.43720 0.81950 0.72780 -0.51200
O 	O 	0.18730 0.54810 0.44210 -0.52000
O 	O 	0.24460 0.43910 0.37310 -0.40800
O 	O 	0.07390 0.59780 0.60700 -0.45700
O 	O 	0.18050 0.61770 0.72780 -0.52600
O 	O 	0.45190 0.63920 0.44210 -0.51800
O 	O 	0.56090 0.80550 0.37310 -0.39500
O 	O 	0.40220 0.47610 0.60700 -0.43900
O 	O 	0.38230 0.56280 0.72780 -0.52200
