data_crystal

_cell_length_a 13.30310
_cell_length_b 13.30310
_cell_length_c 14.56600
_cell_angle_alpha 90.00000
_cell_angle_beta  90.00000
_cell_angle_gamma 120.00000

_symmetry_space_group_name_	'P 1'
_symmetry_space_group_name_H-M	'P 1'

loop_
_symmetry_equiv_pos_as_xyz
  x,y,z

loop_
_atom_site_label
_atom_site_type_symbol
_atom_site_fract_x
_atom_site_fract_y
_atom_site_fract_z
_atom_site_charge
Eu	Eu	0.33333 0.66666 0.66859 2.12000
Eu	Eu	0.66667 0.33334 0.83142 2.11900
Eu	Eu	0.66667 0.33334 0.33142 2.11300
Eu	Eu	0.33333 0.66666 0.16858 2.11500
Cu	Cu	0.50000 -0.00000 0.50000 0.90000
Cu	Cu	0.50000 0.50000 0.50000 0.92900
Cu	Cu	-0.00000 0.50000 0.50000 0.89800
Cu	Cu	0.50000 0.00000 -0.00000 0.87300
Cu	Cu	-0.00000 0.50000 -0.00000 0.87100
Cu	Cu	0.50000 0.50000 -0.00000 0.90100
H 	H 	0.70760 0.96150 0.55050 0.16500
H 	H 	0.68270 0.86170 0.48090 0.14900
H 	H 	0.67580 0.02460 0.42250 0.03900
H 	H 	0.54160 0.80750 0.37210 0.16600
H 	H 	0.60380 0.91640 0.30820 0.17200
H 	H 	0.25390 0.29240 0.55050 0.11500
H 	H 	0.17900 0.31730 0.48090 0.11100
H 	H 	0.34880 0.32420 0.42250 0.09100
H 	H 	0.26590 0.45840 0.37210 0.15600
H 	H 	0.31260 0.39620 0.30820 0.14100
H 	H 	0.03850 0.74610 0.55050 0.10500
H 	H 	0.13830 0.82100 0.48090 0.12800
H 	H 	0.97540 0.65120 0.42250 0.15900
H 	H 	0.19250 0.73410 0.37210 0.16100
H 	H 	0.08360 0.68740 0.30820 0.12900
H 	H 	0.74610 0.03850 0.94950 0.05800
H 	H 	0.82100 0.13830 0.01910 0.02700
H 	H 	0.65120 0.97540 0.07750 0.15500
H 	H 	0.73410 0.19250 0.12790 0.14800
H 	H 	0.68740 0.08360 0.19180 0.12600
H 	H 	0.96150 0.70760 0.94950 0.11800
H 	H 	0.86170 0.68270 0.01910 0.05000
H 	H 	0.02460 0.67580 0.07750 0.03400
H 	H 	0.80750 0.54160 0.12790 0.15400
H 	H 	0.91640 0.60380 0.19180 0.17000
H 	H 	0.29240 0.25390 0.94950 0.06500
H 	H 	0.31730 0.17900 0.01910 0.00600
H 	H 	0.32420 0.34880 0.07750 0.09000
H 	H 	0.45840 0.26590 0.12790 0.14300
H 	H 	0.39620 0.31260 0.19180 0.13700
H 	H 	0.29240 0.03850 0.44950 0.09200
H 	H 	0.31730 0.13830 0.51910 0.11100
H 	H 	0.32420 0.97540 0.57750 0.15100
H 	H 	0.45840 0.19250 0.62790 0.15600
H 	H 	0.39620 0.08360 0.69180 0.12400
H 	H 	0.74610 0.70760 0.44950 0.14200
H 	H 	0.82100 0.68270 0.51910 0.15000
H 	H 	0.65120 0.67580 0.57750 0.09900
H 	H 	0.73410 0.54160 0.62790 0.16800
H 	H 	0.68740 0.60380 0.69180 0.15600
H 	H 	0.96150 0.25390 0.44950 0.15300
H 	H 	0.86170 0.17900 0.51910 0.13100
H 	H 	0.02460 0.34880 0.57750 0.03200
H 	H 	0.80750 0.26590 0.62790 0.16200
H 	H 	0.91640 0.31260 0.69180 0.16700
H 	H 	0.25390 0.96150 0.05050 0.19900
H 	H 	0.17900 0.86170 0.98090 0.22900
H 	H 	0.34880 0.02460 0.92250 0.04000
H 	H 	0.26590 0.80750 0.87210 0.17300
H 	H 	0.31260 0.91640 0.80820 0.16700
H 	H 	0.03850 0.29240 0.05050 0.14100
H 	H 	0.13830 0.31730 0.98090 0.21600
H 	H 	0.97540 0.32420 0.92250 0.15500
H 	H 	0.19250 0.45840 0.87210 0.16800
H 	H 	0.08360 0.39620 0.80820 0.12600
H 	H 	0.70760 0.74610 0.05050 0.19000
H 	H 	0.68270 0.82100 0.98090 0.24900
H 	H 	0.67580 0.65120 0.92250 0.10000
H 	H 	0.54160 0.73410 0.87210 0.17900
H 	H 	0.60380 0.68740 0.80820 0.15800
C 	C 	0.54840 0.81770 0.57000 0.42500
C 	C 	0.64860 0.90230 0.51150 -0.34200
C 	C 	0.55360 0.88460 0.36130 -0.39700
C 	C 	0.43910 0.87580 0.34060 0.49400
C 	C 	0.26930 0.45160 0.57000 0.40600
C 	C 	0.25370 0.35140 0.51150 -0.30800
C 	C 	0.33100 0.44640 0.36130 -0.38300
C 	C 	0.43670 0.56090 0.34060 0.48400
C 	C 	0.18230 0.73070 0.57000 0.40200
C 	C 	0.09770 0.74630 0.51150 -0.30700
C 	C 	0.11540 0.66900 0.36130 -0.37900
C 	C 	0.12420 0.56330 0.34060 0.47800
C 	C 	0.73070 0.18230 0.93000 0.35000
C 	C 	0.74630 0.09770 0.98850 -0.10100
C 	C 	0.66900 0.11540 0.13870 -0.36900
C 	C 	0.56330 0.12420 0.15940 0.47100
C 	C 	0.81770 0.54840 0.93000 0.37500
C 	C 	0.90230 0.64860 0.98850 -0.14300
C 	C 	0.88460 0.55360 0.13870 -0.38700
C 	C 	0.87580 0.43910 0.15940 0.48700
C 	C 	0.45160 0.26930 0.93000 0.35300
C 	C 	0.35140 0.25370 0.98850 -0.09500
C 	C 	0.44640 0.33100 0.13870 -0.37200
C 	C 	0.56090 0.43670 0.15940 0.47600
C 	C 	0.45160 0.18230 0.43000 0.39700
C 	C 	0.35140 0.09770 0.48850 -0.29500
C 	C 	0.44640 0.11540 0.63870 -0.37600
C 	C 	0.56090 0.12420 0.65940 0.47700
C 	C 	0.73070 0.54840 0.43000 0.41600
C 	C 	0.74630 0.64860 0.48850 -0.33200
C 	C 	0.66900 0.55360 0.63870 -0.39300
C 	C 	0.56330 0.43910 0.65940 0.48800
C 	C 	0.81770 0.26930 0.43000 0.42000
C 	C 	0.90230 0.25370 0.48850 -0.33000
C 	C 	0.88460 0.33100 0.63870 -0.39300
C 	C 	0.87580 0.43670 0.65940 0.49300
C 	C 	0.26930 0.81770 0.07000 0.47000
C 	C 	0.25370 0.90230 0.01150 -0.52700
C 	C 	0.33100 0.88460 0.86130 -0.39800
C 	C 	0.43670 0.87580 0.84060 0.49800
C 	C 	0.18230 0.45160 0.07000 0.45000
C 	C 	0.09770 0.35140 0.01150 -0.50400
C 	C 	0.11540 0.44640 0.86130 -0.38200
C 	C 	0.12420 0.56090 0.84060 0.48300
C 	C 	0.54840 0.73070 0.07000 0.46700
C 	C 	0.64860 0.74630 0.01150 -0.53100
C 	C 	0.55360 0.66900 0.86130 -0.39900
C 	C 	0.43910 0.56330 0.84060 0.49400
N 	N 	0.61220 0.95830 0.44198 -0.09000
N 	N 	0.34610 0.38780 0.44198 -0.15300
N 	N 	0.04170 0.65390 0.44198 -0.20500
N 	N 	0.65390 0.04170 0.05802 -0.25200
N 	N 	0.95830 0.61220 0.05802 -0.13400
N 	N 	0.38780 0.34610 0.05802 -0.20400
N 	N 	0.38780 0.04170 0.55802 -0.20400
N 	N 	0.65390 0.61220 0.55802 -0.14700
N 	N 	0.95830 0.34610 0.55802 -0.08900
N 	N 	0.34610 0.95830 0.94198 -0.04100
N 	N 	0.04170 0.38780 0.94198 -0.15000
N 	N 	0.61220 0.65390 0.94198 -0.09300
O 	O 	0.45210 0.81270 0.55906 -0.51200
O 	O 	0.56170 0.75600 0.62670 -0.40100
O 	O 	0.40110 0.92490 0.39370 -0.40000
O 	O 	0.38290 0.81860 0.27233 -0.51200
O 	O 	0.36060 0.54790 0.55906 -0.51900
O 	O 	0.19430 0.43830 0.62670 -0.41200
O 	O 	0.52380 0.59890 0.39370 -0.42800
O 	O 	0.43570 0.61710 0.27233 -0.51600
O 	O 	0.18730 0.63940 0.55906 -0.52200
O 	O 	0.24400 0.80570 0.62670 -0.39800
O 	O 	0.07510 0.47620 0.39370 -0.45300
O 	O 	0.18140 0.56430 0.27233 -0.52600
O 	O 	0.63940 0.18730 0.94094 -0.48700
O 	O 	0.80570 0.24400 0.87330 -0.37400
O 	O 	0.47620 0.07510 0.10630 -0.46100
O 	O 	0.56430 0.18140 0.22767 -0.52600
O 	O 	0.81270 0.45210 0.94094 -0.47800
O 	O 	0.75600 0.56170 0.87330 -0.37900
O 	O 	0.92490 0.40110 0.10630 -0.40700
O 	O 	0.81860 0.38290 0.22767 -0.51200
O 	O 	0.54790 0.36060 0.94094 -0.48400
O 	O 	0.43830 0.19430 0.87330 -0.38800
O 	O 	0.59890 0.52380 0.10630 -0.43600
O 	O 	0.61710 0.43570 0.22767 -0.51700
O 	O 	0.54790 0.18730 0.44094 -0.52100
O 	O 	0.43830 0.24400 0.37330 -0.40800
O 	O 	0.59890 0.07510 0.60630 -0.44900
O 	O 	0.61710 0.18140 0.72767 -0.52500
O 	O 	0.63940 0.45210 0.44094 -0.51900
O 	O 	0.80570 0.56170 0.37330 -0.39500
O 	O 	0.47620 0.40110 0.60630 -0.43200
O 	O 	0.56430 0.38290 0.72767 -0.52100
O 	O 	0.81270 0.36060 0.44094 -0.51000
O 	O 	0.75600 0.19430 0.37330 -0.40900
O 	O 	0.92490 0.52380 0.60630 -0.39600
O 	O 	0.81860 0.43570 0.72767 -0.51100
O 	O 	0.36060 0.81270 0.05906 -0.53900
O 	O 	0.19430 0.75600 0.12670 -0.43100
O 	O 	0.52380 0.92490 0.89370 -0.38100
O 	O 	0.43570 0.81860 0.77233 -0.51100
O 	O 	0.18730 0.54790 0.05906 -0.55000
O 	O 	0.24400 0.43830 0.12670 -0.43000
O 	O 	0.07510 0.59890 0.89370 -0.43100
O 	O 	0.18140 0.61710 0.77233 -0.52500
O 	O 	0.45210 0.63940 0.05906 -0.54800
O 	O 	0.56170 0.80570 0.12670 -0.41700
O 	O 	0.40110 0.47620 0.89370 -0.41300
O 	O 	0.38290 0.56430 0.77233 -0.52000
