data_crystal

_cell_length_a 14.19500
_cell_length_b 25.64500
_cell_length_c 18.21000
_cell_angle_alpha 90.00000
_cell_angle_beta  90.00000
_cell_angle_gamma 90.00000

_symmetry_space_group_name_	'P 1'
_symmetry_space_group_name_H-M	'P 1'

loop_
_symmetry_equiv_pos_as_xyz
  x,y,z

loop_
_atom_site_label
_atom_site_type_symbol
_atom_site_fract_x
_atom_site_fract_y
_atom_site_fract_z
_atom_site_charge
Co	Co	0.46858 0.35487 0.05727 1.17100
O 	O 	0.57700 0.40880 0.19060 -0.65500
O 	O 	0.54700 0.42130 0.20200 0.18600
O 	O 	0.53930 0.41929 0.07394 -0.48600
O 	O 	0.92120 0.80080 0.19360 -0.25100
O 	O 	0.96180 0.78930 0.19900 -0.17000
O 	O 	0.96750 0.78934 0.07742 -0.44500
O 	O 	0.39330 0.35746 0.17069 -0.49800
O 	O 	0.32860 0.34499 0.06586 -0.44100
N 	N 	0.48440 0.35491 0.94400 -0.24100
C 	C 	0.57620 0.43400 0.13380 0.45400
C 	C 	0.63420 0.48280 0.13250 -0.17300
C 	C 	0.66910 0.50230 0.19720 0.08200
H 	H 	0.65930 0.48430 0.24090 0.00800
C 	C 	0.71890 0.54860 0.19780 -0.13700
H 	H 	0.74040 0.56200 0.24230 0.08000
C 	C 	0.73760 0.57550 0.13330 0.06200
C 	C 	0.70450 0.55450 0.06770 -0.14100
H 	H 	0.71720 0.57140 0.02370 0.07800
C 	C 	0.65290 0.50870 0.06730 0.08000
H 	H 	0.63070 0.49520 0.02320 0.01100
C 	C 	0.78910 0.62610 0.13420 0.05900
C 	C 	0.78240 0.65950 0.19270 -0.12400
H 	H 	0.74540 0.65000 0.23270 0.07700
C 	C 	0.82880 0.70700 0.19420 0.06800
H 	H 	0.82370 0.72850 0.23520 0.02700
C 	C 	0.88260 0.72240 0.13520 -0.14400
C 	C 	0.88350 0.69150 0.07570 0.07900
H 	H 	0.91560 0.70240 0.03390 0.02100
C 	C 	0.83800 0.64400 0.07510 -0.12800
H 	H 	0.84090 0.62350 0.03300 0.08300
C 	C 	0.93030 0.77400 0.13710 0.40800
C 	C 	0.32130 0.34820 0.13460 0.38400
C 	C 	0.22840 0.34280 0.17020 -0.11500
C 	C 	0.21630 0.35100 0.24460 0.01000
H 	H 	0.26810 0.35830 0.27420 0.04900
C 	C 	0.12690 0.34840 0.27510 -0.06000
H 	H 	0.11970 0.35470 0.32510 0.04400
C 	C 	0.04810 0.33690 0.23370 -0.03900
C 	C 	0.06190 0.32700 0.16010 -0.06700
H 	H 	0.01050 0.31820 0.13100 0.03800
C 	C 	0.14990 0.32980 0.12850 0.01400
H 	H 	0.15690 0.32290 0.07870 0.03300
C 	C 	0.46100 0.31300 0.90500 0.08500
H 	H 	0.44010 0.28350 0.92990 -0.00800
C 	C 	0.46600 0.31090 0.82900 -0.13800
H 	H 	0.44900 0.28080 0.80390 0.08100
C 	C 	0.49690 0.35470 0.79100 0.05600
C 	C 	0.52110 0.39840 0.83120 -0.13100
H 	H 	0.54140 0.42850 0.80750 0.07400
C 	C 	0.51490 0.39690 0.90720 0.07400
H 	H 	0.53270 0.42620 0.93380 0.00200
Co	Co	0.53142 0.35487 0.44273 1.17300
O 	O 	0.42300 0.40880 0.30940 -0.71000
O 	O 	0.45300 0.42130 0.29800 0.24100
O 	O 	0.46070 0.41929 0.42606 -0.48700
O 	O 	0.07880 0.80080 0.30640 -0.24300
O 	O 	0.03820 0.78930 0.30100 -0.21800
O 	O 	0.03250 0.78934 0.42258 -0.48300
O 	O 	0.60670 0.35746 0.32931 -0.50500
O 	O 	0.67140 0.34499 0.43414 -0.44500
N 	N 	0.51560 0.35491 0.55600 -0.24100
C 	C 	0.42380 0.43400 0.36620 0.46200
C 	C 	0.36580 0.48280 0.36750 -0.17700
C 	C 	0.33090 0.50230 0.30280 0.07900
H 	H 	0.34070 0.48430 0.25910 0.00700
C 	C 	0.28110 0.54860 0.30220 -0.13600
H 	H 	0.25960 0.56200 0.25770 0.07400
C 	C 	0.26240 0.57550 0.36670 0.05600
C 	C 	0.29550 0.55450 0.43230 -0.14100
H 	H 	0.28280 0.57140 0.47630 0.07600
C 	C 	0.34710 0.50870 0.43270 0.07900
H 	H 	0.36930 0.49520 0.47680 0.01000
C 	C 	0.21090 0.62610 0.36580 0.06300
C 	C 	0.21760 0.65950 0.30730 -0.13600
H 	H 	0.25460 0.65000 0.26730 0.07800
C 	C 	0.17120 0.70700 0.30580 0.07600
H 	H 	0.17630 0.72850 0.26480 0.01700
C 	C 	0.11740 0.72240 0.36480 -0.16400
C 	C 	0.11650 0.69150 0.42430 0.08800
H 	H 	0.08440 0.70240 0.46610 0.00800
C 	C 	0.16200 0.64400 0.42490 -0.14200
H 	H 	0.15910 0.62350 0.46700 0.08200
C 	C 	0.06970 0.77400 0.36290 0.41700
C 	C 	0.67870 0.34820 0.36540 0.41000
C 	C 	0.77160 0.34280 0.32980 -0.17800
C 	C 	0.78370 0.35100 0.25540 0.10100
H 	H 	0.73190 0.35830 0.22580 0.01900
C 	C 	0.87310 0.34840 0.22490 -0.17500
H 	H 	0.88030 0.35470 0.17490 0.10100
C 	C 	0.95190 0.33690 0.26630 0.13500
C 	C 	0.93810 0.32700 0.33990 -0.18100
H 	H 	0.98950 0.31820 0.36900 0.10500
C 	C 	0.85010 0.32980 0.37150 0.10700
H 	H 	0.84310 0.32290 0.42130 0.00700
C 	C 	0.53900 0.31300 0.59500 0.08400
H 	H 	0.55990 0.28350 0.57010 -0.00800
C 	C 	0.53400 0.31090 0.67100 -0.13900
H 	H 	0.55100 0.28080 0.69610 0.08100
C 	C 	0.50310 0.35470 0.70900 0.05600
C 	C 	0.47890 0.39840 0.66880 -0.13200
H 	H 	0.45860 0.42850 0.69250 0.07300
C 	C 	0.48510 0.39690 0.59280 0.07300
H 	H 	0.46730 0.42620 0.56620 0.00100
Co	Co	0.96858 0.85487 0.44273 1.18600
O 	O 	0.07700 0.90880 0.30940 -0.44900
O 	O 	0.04700 0.92130 0.29800 -0.02600
O 	O 	0.03930 0.91929 0.42606 -0.49000
O 	O 	0.42120 0.30080 0.30640 -0.24900
O 	O 	0.46180 0.28930 0.30100 -0.19500
O 	O 	0.46750 0.28934 0.42258 -0.46500
O 	O 	0.89330 0.85746 0.32931 -0.48100
O 	O 	0.82860 0.84499 0.43414 -0.43600
N 	N 	0.98440 0.85491 0.55600 -0.23400
C 	C 	0.07620 0.93400 0.36620 0.41700
C 	C 	0.13420 0.98280 0.36750 -0.15900
C 	C 	0.16910 0.00230 0.30280 0.06500
H 	H 	0.15930 0.98430 0.25910 0.00800
C 	C 	0.21890 0.04860 0.30220 -0.12900
H 	H 	0.24040 0.06200 0.25770 0.07300
C 	C 	0.23760 0.07550 0.36670 0.05100
C 	C 	0.20450 0.05450 0.43230 -0.13400
H 	H 	0.21720 0.07140 0.47630 0.07300
C 	C 	0.15290 0.00870 0.43270 0.06300
H 	H 	0.13070 0.99520 0.47680 0.01200
C 	C 	0.28910 0.12610 0.36580 0.06400
C 	C 	0.28240 0.15950 0.30730 -0.13300
H 	H 	0.24540 0.15000 0.26730 0.07700
C 	C 	0.32880 0.20700 0.30580 0.07300
H 	H 	0.32370 0.22850 0.26480 0.02100
C 	C 	0.38260 0.22240 0.36480 -0.15600
C 	C 	0.38350 0.19150 0.42430 0.08600
H 	H 	0.41560 0.20240 0.46610 0.01300
C 	C 	0.33800 0.14400 0.42490 -0.13800
H 	H 	0.34090 0.12350 0.46700 0.08300
C 	C 	0.43030 0.27400 0.36290 0.41300
C 	C 	0.82130 0.84820 0.36540 0.39000
C 	C 	0.72840 0.84280 0.32980 -0.13400
C 	C 	0.71630 0.85100 0.25540 0.04300
H 	H 	0.76810 0.85830 0.22580 0.04700
C 	C 	0.62690 0.84840 0.22490 -0.10500
H 	H 	0.61970 0.85470 0.17490 0.06900
C 	C 	0.54810 0.83690 0.26630 0.03800
C 	C 	0.56190 0.82700 0.33990 -0.11400
H 	H 	0.51050 0.81820 0.36900 0.06800
C 	C 	0.64990 0.82980 0.37150 0.05100
H 	H 	0.65690 0.82290 0.42130 0.02500
C 	C 	0.96100 0.81300 0.59500 0.12200
H 	H 	0.94010 0.78350 0.57010 -0.01300
C 	C 	0.96600 0.81090 0.67100 -0.19400
H 	H 	0.94900 0.78080 0.69610 0.11000
C 	C 	0.99690 0.85470 0.70900 0.16900
C 	C 	0.02110 0.89840 0.66880 -0.21900
H 	H 	0.04140 0.92850 0.69250 0.09600
C 	C 	0.01490 0.89690 0.59280 0.07800
H 	H 	0.03270 0.92620 0.56620 -0.00900
Co	Co	0.03142 0.85487 0.05727 1.15900
O 	O 	0.92300 0.90880 0.19060 -0.91400
O 	O 	0.95300 0.92130 0.20200 0.45700
O 	O 	0.96070 0.91929 0.07394 -0.47900
O 	O 	0.57880 0.30080 0.19360 -0.24600
O 	O 	0.53820 0.28930 0.19900 -0.19700
O 	O 	0.53250 0.28934 0.07742 -0.46500
O 	O 	0.10670 0.85746 0.17069 -0.51700
O 	O 	0.17140 0.84499 0.06586 -0.45000
N 	N 	0.01560 0.85491 0.94400 -0.24600
C 	C 	0.92380 0.93400 0.13380 0.49700
C 	C 	0.86580 0.98280 0.13250 -0.18800
C 	C 	0.83090 0.00230 0.19720 0.09300
H 	H 	0.84070 0.98430 0.24090 0.00800
C 	C 	0.78110 0.04860 0.19780 -0.14100
H 	H 	0.75960 0.06200 0.24230 0.08000
C 	C 	0.76240 0.07550 0.13330 0.06500
C 	C 	0.79550 0.05450 0.06770 -0.14600
H 	H 	0.78280 0.07140 0.02370 0.08100
C 	C 	0.84710 0.00870 0.06730 0.09300
H 	H 	0.86930 0.99520 0.02320 0.01100
C 	C 	0.71090 0.12610 0.13420 0.05900
C 	C 	0.71760 0.15950 0.19270 -0.12900
H 	H 	0.75460 0.15000 0.23270 0.07900
C 	C 	0.67120 0.20700 0.19420 0.07200
H 	H 	0.67630 0.22850 0.23520 0.02300
C 	C 	0.61740 0.22240 0.13520 -0.15400
C 	C 	0.61650 0.19150 0.07570 0.08300
H 	H 	0.58440 0.20240 0.03390 0.01400
C 	C 	0.66200 0.14400 0.07510 -0.13400
H 	H 	0.65910 0.12350 0.03300 0.08200
C 	C 	0.56970 0.27400 0.13710 0.41300
C 	C 	0.17870 0.84820 0.13460 0.40100
C 	C 	0.27160 0.84280 0.17020 -0.15800
C 	C 	0.28370 0.85100 0.24460 0.06700
H 	H 	0.23190 0.85830 0.27420 0.02200
C 	C 	0.37310 0.84840 0.27510 -0.12800
H 	H 	0.38030 0.85470 0.32510 0.07500
C 	C 	0.45190 0.83690 0.23370 0.05600
C 	C 	0.43810 0.82700 0.16010 -0.13300
H 	H 	0.48950 0.81820 0.13100 0.07500
C 	C 	0.35010 0.82980 0.12850 0.06900
H 	H 	0.34310 0.82290 0.07870 0.01600
C 	C 	0.03900 0.81300 0.90500 0.04800
H 	H 	0.05990 0.78350 0.92990 -0.00300
C 	C 	0.03400 0.81090 0.82900 -0.08200
H 	H 	0.05100 0.78080 0.80390 0.05200
C 	C 	0.00310 0.85470 0.79100 -0.05700
C 	C 	0.97890 0.89840 0.83120 -0.04400
H 	H 	0.95860 0.92850 0.80750 0.05100
C 	C 	0.98510 0.89690 0.90720 0.06500
H 	H 	0.96730 0.92620 0.93380 0.01200
Co	Co	0.50000 0.35523 0.25000 1.21500
Co	Co	-0.00000 0.85523 0.25000 1.20100
Co	Co	0.03142 0.14513 0.55727 1.16100
O 	O 	0.92300 0.09120 0.69060 -0.89100
O 	O 	0.95300 0.07870 0.70200 0.43300
O 	O 	0.96070 0.08071 0.57394 -0.48000
O 	O 	0.57880 0.69920 0.69360 -0.24600
O 	O 	0.53820 0.71070 0.69900 -0.19700
O 	O 	0.53250 0.71066 0.57742 -0.46400
O 	O 	0.10670 0.14254 0.67069 -0.51600
O 	O 	0.17140 0.15501 0.56586 -0.44800
N 	N 	0.01560 0.14509 0.44400 -0.24700
C 	C 	0.92380 0.06600 0.63380 0.49400
C 	C 	0.86580 0.01720 0.63250 -0.18700
C 	C 	0.83090 0.99770 0.69720 0.09200
H 	H 	0.84070 0.01570 0.74090 0.00800
C 	C 	0.78110 0.95140 0.69780 -0.14100
H 	H 	0.75960 0.93800 0.74230 0.08000
C 	C 	0.76240 0.92450 0.63330 0.06500
C 	C 	0.79550 0.94550 0.56770 -0.14500
H 	H 	0.78280 0.92860 0.52370 0.08100
C 	C 	0.84710 0.99130 0.56730 0.09300
H 	H 	0.86930 0.00480 0.52320 0.01100
C 	C 	0.71090 0.87390 0.63420 0.05900
C 	C 	0.71760 0.84050 0.69270 -0.12900
H 	H 	0.75460 0.85000 0.73270 0.07800
C 	C 	0.67120 0.79300 0.69420 0.07200
H 	H 	0.67630 0.77150 0.73520 0.02300
C 	C 	0.61740 0.77760 0.63520 -0.15300
C 	C 	0.61650 0.80850 0.57570 0.08300
H 	H 	0.58440 0.79760 0.53390 0.01500
C 	C 	0.66200 0.85600 0.57510 -0.13400
H 	H 	0.65910 0.87650 0.53300 0.08200
C 	C 	0.56970 0.72600 0.63710 0.41300
C 	C 	0.17870 0.15180 0.63460 0.40000
C 	C 	0.27160 0.15720 0.67020 -0.15600
C 	C 	0.28370 0.14900 0.74460 0.06600
H 	H 	0.23190 0.14170 0.77420 0.02300
C 	C 	0.37310 0.15160 0.77510 -0.12700
H 	H 	0.38030 0.14530 0.82510 0.07500
C 	C 	0.45190 0.16310 0.73370 0.05500
C 	C 	0.43810 0.17300 0.66010 -0.13200
H 	H 	0.48950 0.18180 0.63100 0.07500
C 	C 	0.35010 0.17020 0.62850 0.06800
H 	H 	0.34310 0.17710 0.57870 0.01800
C 	C 	0.03900 0.18700 0.40500 0.04300
H 	H 	0.05990 0.21650 0.42990 -0.00200
C 	C 	0.03400 0.18910 0.32900 -0.07600
H 	H 	0.05100 0.21920 0.30390 0.04900
C 	C 	0.00310 0.14530 0.29100 -0.07000
C 	C 	0.97890 0.10160 0.33120 -0.03400
H 	H 	0.95860 0.07150 0.30750 0.04900
C 	C 	0.98510 0.10310 0.40720 0.06500
H 	H 	0.96730 0.07380 0.43380 0.01400
Co	Co	0.96858 0.14513 0.94273 1.18400
O 	O 	0.07700 0.09120 0.80940 -0.47100
O 	O 	0.04700 0.07870 0.79800 -0.00300
O 	O 	0.03930 0.08071 0.92606 -0.48800
O 	O 	0.42120 0.69920 0.80640 -0.24900
O 	O 	0.46180 0.71070 0.80100 -0.19500
O 	O 	0.46750 0.71066 0.92258 -0.46500
O 	O 	0.89330 0.14254 0.82931 -0.48300
O 	O 	0.82860 0.15501 0.93414 -0.43700
N 	N 	0.98440 0.14509 0.05600 -0.23400
C 	C 	0.07620 0.06600 0.86620 0.42000
C 	C 	0.13420 0.01720 0.86750 -0.16000
C 	C 	0.16910 0.99770 0.80280 0.06600
H 	H 	0.15930 0.01570 0.75910 0.00900
C 	C 	0.21890 0.95140 0.80220 -0.13000
H 	H 	0.24040 0.93800 0.75770 0.07300
C 	C 	0.23760 0.92450 0.86670 0.05100
C 	C 	0.20450 0.94550 0.93230 -0.13400
H 	H 	0.21720 0.92860 0.97630 0.07400
C 	C 	0.15290 0.99130 0.93270 0.06400
H 	H 	0.13070 0.00480 0.97680 0.01300
C 	C 	0.28910 0.87390 0.86580 0.06400
C 	C 	0.28240 0.84050 0.80730 -0.13300
H 	H 	0.24540 0.85000 0.76730 0.07700
C 	C 	0.32880 0.79300 0.80580 0.07300
H 	H 	0.32370 0.77150 0.76480 0.02100
C 	C 	0.38260 0.77760 0.86480 -0.15600
C 	C 	0.38350 0.80850 0.92430 0.08600
H 	H 	0.41560 0.79760 0.96610 0.01400
C 	C 	0.33800 0.85600 0.92490 -0.13800
H 	H 	0.34090 0.87650 0.96700 0.08400
C 	C 	0.43030 0.72600 0.86290 0.41300
C 	C 	0.82130 0.15180 0.86540 0.39100
C 	C 	0.72840 0.15720 0.82980 -0.13500
C 	C 	0.71630 0.14900 0.75540 0.04400
H 	H 	0.76810 0.14170 0.72580 0.04600
C 	C 	0.62690 0.15160 0.72490 -0.10700
H 	H 	0.61970 0.14530 0.67490 0.07000
C 	C 	0.54810 0.16310 0.76630 0.03900
C 	C 	0.56190 0.17300 0.83990 -0.11500
H 	H 	0.51050 0.18180 0.86900 0.06900
C 	C 	0.64990 0.17020 0.87150 0.05200
H 	H 	0.65690 0.17710 0.92130 0.02400
C 	C 	0.96100 0.18700 0.09500 0.12600
H 	H 	0.94010 0.21650 0.07010 -0.01500
C 	C 	0.96600 0.18910 0.17100 -0.20100
H 	H 	0.94900 0.21920 0.19610 0.11300
C 	C 	0.99690 0.14530 0.20900 0.18300
C 	C 	0.02110 0.10160 0.16880 -0.22900
H 	H 	0.04140 0.07150 0.19250 0.09800
C 	C 	0.01490 0.10310 0.09280 0.08000
H 	H 	0.03270 0.07380 0.06620 -0.01100
Co	Co	0.53142 0.64513 0.94273 1.17300
O 	O 	0.42300 0.59120 0.80940 -0.70600
O 	O 	0.45300 0.57870 0.79800 0.23700
O 	O 	0.46070 0.58071 0.92606 -0.48600
O 	O 	0.07880 0.19920 0.80640 -0.24400
O 	O 	0.03820 0.21070 0.80100 -0.21600
O 	O 	0.03250 0.21066 0.92258 -0.48100
O 	O 	0.60670 0.64254 0.82931 -0.50500
O 	O 	0.67140 0.65501 0.93414 -0.44500
N 	N 	0.51560 0.64509 0.05600 -0.24200
C 	C 	0.42380 0.56600 0.86620 0.46100
C 	C 	0.36580 0.51720 0.86750 -0.17600
C 	C 	0.33090 0.49770 0.80280 0.08000
H 	H 	0.34070 0.51570 0.75910 0.00700
C 	C 	0.28110 0.45140 0.80220 -0.13600
H 	H 	0.25960 0.43800 0.75770 0.07400
C 	C 	0.26240 0.42450 0.86670 0.05600
C 	C 	0.29550 0.44550 0.93230 -0.14100
H 	H 	0.28280 0.42860 0.97630 0.07700
C 	C 	0.34710 0.49130 0.93270 0.07900
H 	H 	0.36930 0.50480 0.97680 0.01100
C 	C 	0.21090 0.37390 0.86580 0.06300
C 	C 	0.21760 0.34050 0.80730 -0.13600
H 	H 	0.25460 0.35000 0.76730 0.07800
C 	C 	0.17120 0.29300 0.80580 0.07500
H 	H 	0.17630 0.27150 0.76480 0.01800
C 	C 	0.11740 0.27760 0.86480 -0.16300
C 	C 	0.11650 0.30850 0.92430 0.08800
H 	H 	0.08440 0.29760 0.96610 0.00900
C 	C 	0.16200 0.35600 0.92490 -0.14200
H 	H 	0.15910 0.37650 0.96700 0.08200
C 	C 	0.06970 0.22600 0.86290 0.41600
C 	C 	0.67870 0.65180 0.86540 0.40800
C 	C 	0.77160 0.65720 0.82980 -0.17500
C 	C 	0.78370 0.64900 0.75540 0.09600
H 	H 	0.73190 0.64170 0.72580 0.02000
C 	C 	0.87310 0.65160 0.72490 -0.16900
H 	H 	0.88030 0.64530 0.67490 0.09900
C 	C 	0.95190 0.66310 0.76630 0.12600
C 	C 	0.93810 0.67300 0.83990 -0.17600
H 	H 	0.98950 0.68180 0.86900 0.10100
C 	C 	0.85010 0.67020 0.87150 0.10300
H 	H 	0.84310 0.67710 0.92130 0.00800
C 	C 	0.53900 0.68700 0.09500 0.08400
H 	H 	0.55990 0.71650 0.07010 -0.00900
C 	C 	0.53400 0.68910 0.17100 -0.13900
H 	H 	0.55100 0.71920 0.19610 0.08100
C 	C 	0.50310 0.64530 0.20900 0.05600
C 	C 	0.47890 0.60160 0.16880 -0.13200
H 	H 	0.45860 0.57150 0.19250 0.07300
C 	C 	0.48510 0.60310 0.09280 0.07300
H 	H 	0.46730 0.57380 0.06620 0.00100
Co	Co	0.46858 0.64513 0.55727 1.17300
O 	O 	0.57700 0.59120 0.69060 -0.65700
O 	O 	0.54700 0.57870 0.70200 0.19000
O 	O 	0.53930 0.58071 0.57394 -0.48400
O 	O 	0.92120 0.19920 0.69360 -0.25000
O 	O 	0.96180 0.21070 0.69900 -0.17300
O 	O 	0.96750 0.21066 0.57742 -0.44600
O 	O 	0.39330 0.64254 0.67069 -0.49800
O 	O 	0.32860 0.65501 0.56586 -0.44000
N 	N 	0.48440 0.64509 0.44400 -0.24100
C 	C 	0.57620 0.56600 0.63380 0.45400
C 	C 	0.63420 0.51720 0.63250 -0.17300
C 	C 	0.66910 0.49770 0.69720 0.08100
H 	H 	0.65930 0.51570 0.74090 0.00800
C 	C 	0.71890 0.45140 0.69780 -0.13600
H 	H 	0.74040 0.43800 0.74230 0.07900
C 	C 	0.73760 0.42450 0.63330 0.06200
C 	C 	0.70450 0.44550 0.56770 -0.14100
H 	H 	0.71720 0.42860 0.52370 0.07900
C 	C 	0.65290 0.49130 0.56730 0.08000
H 	H 	0.63070 0.50480 0.52320 0.01100
C 	C 	0.78910 0.37390 0.63420 0.05900
C 	C 	0.78240 0.34050 0.69270 -0.12400
H 	H 	0.74540 0.35000 0.73270 0.07700
C 	C 	0.82880 0.29300 0.69420 0.06800
H 	H 	0.82370 0.27150 0.73520 0.02700
C 	C 	0.88260 0.27760 0.63520 -0.14400
C 	C 	0.88350 0.30850 0.57570 0.07900
H 	H 	0.91560 0.29760 0.53390 0.02100
C 	C 	0.83800 0.35600 0.57510 -0.12900
H 	H 	0.84090 0.37650 0.53300 0.08400
C 	C 	0.93030 0.22600 0.63710 0.40800
C 	C 	0.32130 0.65180 0.63460 0.38500
C 	C 	0.22840 0.65720 0.67020 -0.11800
C 	C 	0.21630 0.64900 0.74460 0.01500
H 	H 	0.26810 0.64170 0.77420 0.04800
C 	C 	0.12690 0.65160 0.77510 -0.06500
H 	H 	0.11970 0.64530 0.82510 0.04700
C 	C 	0.04810 0.66310 0.73370 -0.03100
C 	C 	0.06190 0.67300 0.66010 -0.07200
H 	H 	0.01050 0.68180 0.63100 0.04200
C 	C 	0.14990 0.67020 0.62850 0.01800
H 	H 	0.15690 0.67710 0.57870 0.03300
C 	C 	0.46100 0.68700 0.40500 0.08500
H 	H 	0.44010 0.71650 0.42990 -0.00900
C 	C 	0.46600 0.68910 0.32900 -0.13800
H 	H 	0.44900 0.71920 0.30390 0.08100
C 	C 	0.49690 0.64530 0.29100 0.05600
C 	C 	0.52110 0.60160 0.33120 -0.13100
H 	H 	0.54140 0.57150 0.30750 0.07400
C 	C 	0.51490 0.60310 0.40720 0.07400
H 	H 	0.53270 0.57380 0.43380 0.00200
Co	Co	0.00000 0.14477 0.75000 1.20200
Co	Co	0.50000 0.64477 0.75000 1.21500
