data_crystal

_cell_length_a 11.06070
_cell_length_b 12.80790
_cell_length_c 12.93600
_cell_angle_alpha 107.50200
_cell_angle_beta  105.81000
_cell_angle_gamma 106.09700

_symmetry_space_group_name_	'P 1'
_symmetry_space_group_name_H-M	'P 1'

loop_
_symmetry_equiv_pos_as_xyz
  x,y,z

loop_
_atom_site_label
_atom_site_type_symbol
_atom_site_fract_x
_atom_site_fract_y
_atom_site_fract_z
_atom_site_charge
B 	B 	0.85590 0.01390 0.92970 0.21700
H 	H 	0.76080 0.02260 0.88170 -0.12700
B 	B 	0.02410 0.11990 0.96680 0.19500
H 	H 	0.03940 0.19870 0.94340 -0.12400
B 	B 	0.86780 0.95820 0.03890 0.21800
H 	H 	0.78080 0.93060 0.06660 -0.11100
B 	B 	0.96270 0.11030 0.07920 0.27800
H 	H 	0.93880 0.18280 0.13200 -0.14000
B 	B 	0.86500 0.87340 0.90160 0.24300
H 	H 	0.77570 0.79010 0.83520 -0.12500
B 	B 	0.33330 0.47740 0.95480 0.24700
H 	H 	0.22210 0.46090 0.92350 -0.12800
B 	B 	0.43800 0.53270 0.88460 0.22800
H 	H 	0.39590 0.55240 0.80690 -0.12900
B 	B 	0.43590 0.52960 0.10520 0.23900
H 	H 	0.39530 0.55100 0.17590 -0.12800
B 	B 	0.46250 0.62250 0.02720 0.22000
H 	H 	0.43900 0.70420 0.04680 -0.12500
B 	B 	0.39440 0.38080 0.00910 0.24600
H 	H 	0.32420 0.30150 0.01320 -0.13300
B 	B 	0.06430 0.50560 0.63600 0.22500
H 	H 	0.10780 0.50830 0.72620 -0.12900
B 	B 	0.16880 0.52970 0.55380 0.23600
H 	H 	0.28030 0.54790 0.58960 -0.12300
B 	B 	0.93430 0.55640 0.59710 0.22100
H 	H 	0.89130 0.59470 0.66120 -0.12100
B 	B 	0.10180 0.63600 0.60870 0.24600
H 	H 	0.16840 0.72670 0.68010 -0.12500
B 	B 	0.89740 0.40370 0.53490 0.22000
H 	H 	0.83010 0.33890 0.55760 -0.12300
C 	C 	0.93040 0.95210 0.73700 0.45600
C 	C 	0.96670 0.97540 0.86790 -0.56300
C 	C 	0.30930 0.28560 0.76530 0.50800
C 	C 	0.40370 0.39360 0.88290 -0.58300
C 	C 	0.07710 0.29340 0.51850 0.48900
C 	C 	0.04030 0.39330 0.50890 -0.57300
Co	Co	0.02067 0.10043 0.61367 1.14400
Co	Co	0.73423 0.83185 0.48893 1.12600
O 	O 	0.86090 0.96500 0.47050 -0.61900
O 	O 	0.80540 0.89090 0.66940 -0.51200
O 	O 	0.02890 0.99870 0.71400 -0.47500
O 	O 	0.18570 0.24350 0.75050 -0.50100
O 	O 	0.36490 0.25300 0.69710 -0.50800
O 	O 	0.98700 0.21190 0.52770 -0.48000
O 	O 	0.19090 0.29750 0.51450 -0.49800
B 	B 	0.14410 0.98610 0.07030 0.21800
H 	H 	0.23920 0.97740 0.11830 -0.12600
B 	B 	0.97590 0.88010 0.03320 0.19500
H 	H 	0.96060 0.80130 0.05660 -0.12400
B 	B 	0.13220 0.04180 0.96110 0.21800
H 	H 	0.21920 0.06940 0.93340 -0.11100
B 	B 	0.03730 0.88970 0.92080 0.27800
H 	H 	0.06120 0.81720 0.86800 -0.14000
B 	B 	0.13500 0.12660 0.09840 0.24300
H 	H 	0.22430 0.20990 0.16480 -0.12500
B 	B 	0.66670 0.52260 0.04520 0.24700
H 	H 	0.77790 0.53910 0.07650 -0.12800
B 	B 	0.56200 0.46730 0.11540 0.22800
H 	H 	0.60410 0.44760 0.19310 -0.12900
B 	B 	0.56410 0.47040 0.89480 0.23900
H 	H 	0.60470 0.44900 0.82410 -0.12800
B 	B 	0.53750 0.37750 0.97280 0.22000
H 	H 	0.56100 0.29580 0.95320 -0.12500
B 	B 	0.60560 0.61920 0.99090 0.24600
H 	H 	0.67580 0.69850 0.98680 -0.13300
B 	B 	0.93570 0.49440 0.36400 0.22500
H 	H 	0.89220 0.49170 0.27380 -0.12900
B 	B 	0.83120 0.47030 0.44620 0.23600
H 	H 	0.71970 0.45210 0.41040 -0.12300
B 	B 	0.06570 0.44360 0.40290 0.22100
H 	H 	0.10870 0.40530 0.33880 -0.12100
B 	B 	0.89820 0.36400 0.39130 0.24600
H 	H 	0.83160 0.27330 0.31990 -0.12500
B 	B 	0.10260 0.59630 0.46510 0.22000
H 	H 	0.16990 0.66110 0.44240 -0.12300
C 	C 	0.06960 0.04790 0.26300 0.45600
C 	C 	0.03330 0.02460 0.13210 -0.56300
C 	C 	0.69070 0.71440 0.23470 0.50800
C 	C 	0.59630 0.60640 0.11710 -0.58300
C 	C 	0.92290 0.70660 0.48150 0.48900
C 	C 	0.95970 0.60670 0.49110 -0.57300
Co	Co	0.97933 0.89957 0.38633 1.14400
Co	Co	0.26577 0.16815 0.51107 1.12600
O 	O 	0.13910 0.03500 0.52950 -0.61900
O 	O 	0.19460 0.10910 0.33060 -0.51200
O 	O 	0.97110 0.00130 0.28600 -0.47500
O 	O 	0.81430 0.75650 0.24950 -0.50100
O 	O 	0.63510 0.74700 0.30290 -0.50800
O 	O 	0.01300 0.78810 0.47230 -0.48000
O 	O 	0.80910 0.70250 0.48550 -0.49800
