data_crystal

_cell_length_a 12.21310
_cell_length_b 15.05100
_cell_length_c 15.83000
_cell_angle_alpha 70.70600
_cell_angle_beta  67.51900
_cell_angle_gamma 74.23100

_symmetry_space_group_name_	'P 1'
_symmetry_space_group_name_H-M	'P 1'

loop_
_symmetry_equiv_pos_as_xyz
  x,y,z

loop_
_atom_site_label
_atom_site_type_symbol
_atom_site_fract_x
_atom_site_fract_y
_atom_site_fract_z
_atom_site_charge
Ag	Ag	0.44117 0.56816 0.14895 0.47100
S 	S 	0.42292 0.57653 0.30861 -0.07100
S 	S 	0.58887 0.56416 0.89826 -0.12700
C 	C 	0.26110 0.61260 0.36430 -0.23000
C 	C 	0.23490 0.61620 0.46110 0.09000
C 	C 	0.21500 0.61750 0.54060 -0.10900
C 	C 	0.18920 0.61740 0.63750 0.14000
C 	C 	0.07520 0.60750 0.70260 -0.17600
C 	C 	0.05080 0.60860 0.79530 0.07200
C 	C 	0.13900 0.62100 0.82350 -0.17200
C 	C 	0.25390 0.63090 0.75870 0.12500
C 	C 	0.27890 0.62830 0.66560 -0.18900
C 	C 	0.34420 0.64550 0.78790 -0.12200
C 	C 	0.41750 0.65940 0.81300 0.04400
C 	C 	0.50490 0.67580 0.84550 -0.21200
C 	C 	0.74210 0.58130 0.82340 -0.20800
C 	C 	0.76380 0.59380 0.72330 0.04600
C 	C 	0.78120 0.60810 0.64090 -0.10500
C 	C 	0.80570 0.61930 0.54130 0.12700
C 	C 	0.92380 0.61530 0.47950 -0.16800
C 	C 	0.94770 0.62100 0.38530 0.07700
C 	C 	0.85440 0.63080 0.35110 -0.16700
C 	C 	0.73570 0.63690 0.41200 0.13200
C 	C 	0.71150 0.63120 0.50720 -0.18200
C 	C 	0.64020 0.65190 0.37480 -0.10900
C 	C 	0.56390 0.66760 0.33930 0.07000
C 	C 	0.47260 0.68660 0.29530 -0.21300
H 	H 	0.23550 0.67420 0.32880 0.08000
H 	H 	0.21870 0.56800 0.36460 0.09100
H 	H 	0.01410 0.60010 0.68340 0.08600
H 	H 	0.97320 0.60090 0.83980 -0.01300
H 	H 	0.12150 0.62280 0.88690 0.07000
H 	H 	0.35720 0.63390 0.62160 0.10000
H 	H 	0.46390 0.71160 0.89140 0.06600
H 	H 	0.56000 0.71130 0.79310 0.09700
H 	H 	0.75780 0.63620 0.83090 0.08300
H 	H 	0.79570 0.52670 0.84390 0.07000
H 	H 	0.98780 0.60880 0.50240 0.08700
H 	H 	0.02810 0.61840 0.34350 -0.01300
H 	H 	0.87120 0.63300 0.28680 0.07400
H 	H 	0.63090 0.63590 0.54850 0.09500
H 	H 	0.50490 0.71580 0.22990 0.05100
H 	H 	0.40550 0.72880 0.32380 0.09200
Ag	Ag	0.55883 0.43184 0.85105 0.47200
S 	S 	0.57708 0.42347 0.69139 -0.07000
S 	S 	0.41113 0.43584 0.10174 -0.12600
C 	C 	0.73890 0.38740 0.63570 -0.22900
C 	C 	0.76510 0.38380 0.53890 0.09100
C 	C 	0.78500 0.38250 0.45940 -0.10800
C 	C 	0.81080 0.38260 0.36250 0.14100
C 	C 	0.92480 0.39250 0.29740 -0.17500
C 	C 	0.94920 0.39140 0.20470 0.07300
C 	C 	0.86100 0.37900 0.17650 -0.17100
C 	C 	0.74610 0.36910 0.24130 0.12500
C 	C 	0.72110 0.37170 0.33440 -0.18900
C 	C 	0.65580 0.35450 0.21210 -0.12200
C 	C 	0.58250 0.34060 0.18700 0.04400
C 	C 	0.49510 0.32420 0.15450 -0.21200
C 	C 	0.25790 0.41870 0.17660 -0.20800
C 	C 	0.23620 0.40620 0.27670 0.04600
C 	C 	0.21880 0.39190 0.35910 -0.10500
C 	C 	0.19430 0.38070 0.45870 0.12700
C 	C 	0.07620 0.38470 0.52050 -0.16800
C 	C 	0.05230 0.37900 0.61470 0.07700
C 	C 	0.14560 0.36920 0.64890 -0.16700
C 	C 	0.26430 0.36310 0.58800 0.13200
C 	C 	0.28850 0.36880 0.49280 -0.18200
C 	C 	0.35980 0.34810 0.62520 -0.10900
C 	C 	0.43610 0.33240 0.66070 0.07000
C 	C 	0.52740 0.31340 0.70470 -0.21300
H 	H 	0.76450 0.32580 0.67120 0.08000
H 	H 	0.78130 0.43200 0.63540 0.09100
H 	H 	0.98590 0.39990 0.31660 0.08600
H 	H 	0.02680 0.39910 0.16020 -0.01300
H 	H 	0.87850 0.37720 0.11310 0.07000
H 	H 	0.64280 0.36610 0.37840 0.10000
H 	H 	0.53610 0.28840 0.10860 0.06600
H 	H 	0.44000 0.28870 0.20690 0.09700
H 	H 	0.24220 0.36380 0.16910 0.08300
H 	H 	0.20430 0.47330 0.15610 0.07000
H 	H 	0.01220 0.39120 0.49760 0.08700
H 	H 	0.97190 0.38160 0.65650 -0.01300
H 	H 	0.12880 0.36700 0.71320 0.07400
H 	H 	0.36910 0.36410 0.45150 0.09500
H 	H 	0.49510 0.28420 0.77010 0.05100
H 	H 	0.59450 0.27120 0.67620 0.09200
Ag	Ag	0.73886 0.95993 0.00943 0.44700
S 	S 	0.80073 0.96301 0.14521 -0.09500
S 	S 	0.93721 0.95100 0.87689 -0.09000
C 	C 	0.73140 0.07330 0.18300 -0.21700
C 	C 	0.60230 0.08280 0.23260 0.05300
C 	C 	0.49820 0.09430 0.27810 -0.11400
C 	C 	0.37790 0.11430 0.34080 0.11700
C 	C 	0.27640 0.14450 0.31080 -0.15100
C 	C 	0.16340 0.16460 0.37540 0.06400
C 	C 	0.14970 0.15640 0.46860 -0.15300
C 	C 	0.25050 0.12720 0.49920 0.12800
C 	C 	0.36360 0.10520 0.43520 -0.17300
C 	C 	0.24470 0.12310 0.59290 -0.10300
C 	C 	0.25320 0.12390 0.66530 0.07900
C 	C 	0.72830 0.87520 0.24920 -0.21100
C 	C 	0.93700 0.05960 0.78110 -0.21700
C 	C 	0.85840 0.07070 0.72690 0.04900
C 	C 	0.80290 0.08210 0.67540 -0.11400
C 	C 	0.75130 0.10060 0.60170 0.12100
C 	C 	0.62750 0.11960 0.61750 -0.15400
C 	C 	0.58370 0.14240 0.54260 0.06800
C 	C 	0.66190 0.14540 0.45140 -0.15800
C 	C 	0.78640 0.12520 0.43460 0.13200
C 	C 	0.82970 0.10220 0.51030 -0.17700
C 	C 	0.87190 0.12950 0.34180 -0.10300
C 	C 	0.95140 0.13520 0.26790 0.07800
C 	C 	0.94670 0.86170 0.81910 -0.20800
H 	H 	0.76940 0.07650 0.22410 0.10500
H 	H 	0.74530 0.12540 0.12850 0.07300
H 	H 	0.28480 0.15090 0.24700 0.06000
H 	H 	0.09460 0.18420 0.35520 0.00600
H 	H 	0.07210 0.17070 0.51170 0.08300
H 	H 	0.43190 0.08350 0.45610 0.09200
H 	H 	0.64440 0.88860 0.25860 0.07800
H 	H 	0.76040 0.81350 0.23820 0.07700
H 	H 	0.01680 0.06020 0.73860 0.10300
H 	H 	0.91240 0.11260 0.80790 0.07000
H 	H 	0.57310 0.11700 0.67980 0.06300
H 	H 	0.49940 0.15590 0.55390 0.00600
H 	H 	0.63130 0.16120 0.40040 0.08600
H 	H 	0.91390 0.08730 0.49940 0.09500
H 	H 	0.87470 0.87260 0.80460 0.07500
H 	H 	0.95570 0.80020 0.86100 0.07500
Ag	Ag	0.26114 0.04007 0.99057 0.44700
S 	S 	0.19927 0.03699 0.85479 -0.09500
S 	S 	0.06279 0.04900 0.12311 -0.09000
C 	C 	0.26860 0.92670 0.81700 -0.21700
C 	C 	0.39770 0.91720 0.76740 0.05300
C 	C 	0.50180 0.90570 0.72190 -0.11400
C 	C 	0.62210 0.88570 0.65920 0.11700
C 	C 	0.72360 0.85550 0.68920 -0.15100
C 	C 	0.83660 0.83540 0.62460 0.06400
C 	C 	0.85030 0.84360 0.53140 -0.15300
C 	C 	0.74950 0.87280 0.50080 0.12800
C 	C 	0.63640 0.89480 0.56480 -0.17300
C 	C 	0.75530 0.87690 0.40710 -0.10300
C 	C 	0.74680 0.87610 0.33470 0.07900
C 	C 	0.27170 0.12480 0.75080 -0.21100
C 	C 	0.06300 0.94040 0.21890 -0.21700
C 	C 	0.14160 0.92930 0.27310 0.04900
C 	C 	0.19710 0.91790 0.32460 -0.11400
C 	C 	0.24870 0.89940 0.39830 0.12100
C 	C 	0.37250 0.88040 0.38250 -0.15400
C 	C 	0.41630 0.85760 0.45740 0.06800
C 	C 	0.33810 0.85460 0.54860 -0.15800
C 	C 	0.21360 0.87480 0.56540 0.13200
C 	C 	0.17030 0.89780 0.48970 -0.17700
C 	C 	0.12810 0.87050 0.65820 -0.10300
C 	C 	0.04860 0.86480 0.73210 0.07800
C 	C 	0.05330 0.13830 0.18090 -0.20800
H 	H 	0.23060 0.92350 0.77590 0.10500
H 	H 	0.25470 0.87460 0.87150 0.07300
H 	H 	0.71520 0.84910 0.75300 0.06000
H 	H 	0.90540 0.81580 0.64480 0.00600
H 	H 	0.92790 0.82930 0.48830 0.08300
H 	H 	0.56810 0.91650 0.54390 0.09200
H 	H 	0.35560 0.11140 0.74140 0.07800
H 	H 	0.23960 0.18650 0.76180 0.07700
H 	H 	0.98320 0.93980 0.26140 0.10300
H 	H 	0.08760 0.88740 0.19210 0.07000
H 	H 	0.42690 0.88300 0.32020 0.06300
H 	H 	0.50060 0.84410 0.44610 0.00600
H 	H 	0.36870 0.83880 0.59960 0.08600
H 	H 	0.08610 0.91270 0.50060 0.09500
H 	H 	0.12530 0.12740 0.19540 0.07500
H 	H 	0.04430 0.19980 0.13900 0.07500
