data_crystal

_cell_length_a 10.82000
_cell_length_b 11.41600
_cell_length_c 12.43200
_cell_angle_alpha 87.44000
_cell_angle_beta  72.45000
_cell_angle_gamma 70.11000

_symmetry_space_group_name_	'P 1'
_symmetry_space_group_name_H-M	'P 1'

loop_
_symmetry_equiv_pos_as_xyz
  x,y,z

loop_
_atom_site_label
_atom_site_type_symbol
_atom_site_fract_x
_atom_site_fract_y
_atom_site_fract_z
_atom_site_charge
Cd	Cd	0.89303 0.04648 0.13271 1.23100
Cd	Cd	0.23466 0.92872 0.10909 1.23200
Cd	Cd	0.60544 0.86361 0.02083 1.23100
Cd	Cd	0.10697 0.95352 0.86729 1.23100
Cd	Cd	0.76534 0.07128 0.89091 1.23200
Cd	Cd	0.39456 0.13639 0.97917 1.23100
H 	H 	0.86570 0.06860 0.51550 0.11800
H 	H 	0.84300 0.29750 0.92210 -0.02600
H 	H 	0.39930 0.51150 0.09840 0.11200
H 	H 	0.86600 0.30780 0.10280 0.20300
H 	H 	0.94590 0.38410 0.01960 0.23700
H 	H 	0.30180 0.04810 0.28290 -0.02400
H 	H 	0.44210 0.14500 0.31690 0.23200
H 	H 	0.39280 0.20380 0.21450 0.19500
H 	H 	0.13430 0.93140 0.48450 0.11800
H 	H 	0.15700 0.70250 0.07790 -0.02600
H 	H 	0.60070 0.48850 0.90160 0.11200
H 	H 	0.13400 0.69220 0.89720 0.20300
H 	H 	0.05410 0.61590 0.98040 0.23700
H 	H 	0.69820 0.95190 0.71710 -0.02400
H 	H 	0.55790 0.85500 0.68310 0.23200
H 	H 	0.60720 0.79620 0.78550 0.19500
C 	C 	0.95590 0.02350 0.47350 -0.12500
C 	C 	0.07450 0.22210 0.05750 0.54100
C 	C 	0.92690 0.24210 0.93710 0.21200
C 	C 	0.48740 0.90880 0.27680 0.20700
C 	C 	0.45780 0.66920 0.04840 0.40000
C 	C 	0.45990 0.53770 0.04060 -0.13300
C 	C 	0.98950 0.01020 0.34790 0.39500
C 	C 	0.59970 0.10630 0.16860 0.50200
C 	C 	0.94360 0.30090 0.03610 -0.60300
C 	C 	0.39670 0.02430 0.23210 0.19800
C 	C 	0.45110 0.12890 0.23850 -0.55000
C 	C 	0.04930 0.23640 0.83430 0.20000
C 	C 	0.04410 0.97650 0.52650 -0.12500
C 	C 	0.92550 0.77790 0.94250 0.54100
C 	C 	0.07310 0.75790 0.06290 0.21200
C 	C 	0.51260 0.09120 0.72320 0.20700
C 	C 	0.54220 0.33080 0.95160 0.40000
C 	C 	0.54010 0.46230 0.95940 -0.13300
C 	C 	0.01050 0.98980 0.65210 0.39500
C 	C 	0.40030 0.89370 0.83140 0.50200
C 	C 	0.05640 0.69910 0.96390 -0.60300
C 	C 	0.60330 0.97570 0.76790 0.19800
C 	C 	0.54890 0.87110 0.76150 -0.55000
C 	C 	0.95070 0.76360 0.16570 0.20000
O 	O 	0.07750 0.12140 0.10500 -0.58500
O 	O 	0.65490 0.03910 0.07680 -0.59900
O 	O 	0.58340 0.82600 0.20600 -0.31200
O 	O 	0.35360 0.73430 0.12110 -0.44800
O 	O 	0.47440 0.90160 0.37760 -0.18300
O 	O 	0.11280 0.94650 0.29140 -0.42300
O 	O 	0.89260 0.06550 0.31200 -0.40400
O 	O 	0.17850 0.25690 0.02530 -0.45500
O 	O 	0.05430 0.33350 0.78780 -0.18700
O 	O 	0.91340 0.12310 0.95770 -0.60000
O 	O 	0.39570 0.00160 0.12090 -0.58700
O 	O 	0.14670 0.13310 0.80080 -0.32000
O 	O 	0.54880 0.70540 0.98480 -0.44600
O 	O 	0.66670 0.15530 0.20690 -0.43600
O 	O 	0.92250 0.87860 0.89500 -0.58500
O 	O 	0.34510 0.96090 0.92320 -0.59900
O 	O 	0.41660 0.17400 0.79400 -0.31200
O 	O 	0.64640 0.26570 0.87890 -0.44800
O 	O 	0.52560 0.09840 0.62240 -0.18300
O 	O 	0.88720 0.05350 0.70860 -0.42300
O 	O 	0.10740 0.93450 0.68800 -0.40400
O 	O 	0.82150 0.74310 0.97470 -0.45500
O 	O 	0.94570 0.66650 0.21220 -0.18700
O 	O 	0.08660 0.87690 0.04230 -0.60000
O 	O 	0.60430 0.99840 0.87910 -0.58700
O 	O 	0.85330 0.86690 0.19920 -0.32000
O 	O 	0.45120 0.29460 0.01520 -0.44600
O 	O 	0.33330 0.84470 0.79310 -0.43600
