data_crystal

_cell_length_a 8.25080
_cell_length_b 8.25080
_cell_length_c 18.74500
_cell_angle_alpha 90.00000
_cell_angle_beta  90.00000
_cell_angle_gamma 120.00000

_symmetry_space_group_name_	'P 1'
_symmetry_space_group_name_H-M	'P 1'

loop_
_symmetry_equiv_pos_as_xyz
  x,y,z

loop_
_atom_site_label
_atom_site_type_symbol
_atom_site_fract_x
_atom_site_fract_y
_atom_site_fract_z
_atom_site_charge
S 	S 	0.34540 0.16300 0.42850 -0.46200
C 	C 	0.33020 0.32360 0.38050 0.06500
N 	N 	0.32570 0.43310 0.34520 -0.28500
S 	S 	0.83700 0.18240 0.42850 -0.24400
C 	C 	0.67640 0.00660 0.38050 -0.09800
N 	N 	0.56690 0.89260 0.34520 -0.14000
S 	S 	0.81760 0.65460 0.42850 -0.28800
C 	C 	0.99340 0.66980 0.38050 0.29000
N 	N 	0.10740 0.67430 0.34520 -0.38600
S 	S 	0.65460 0.83700 0.92850 -0.14100
C 	C 	0.66980 0.67640 0.88050 0.09700
N 	N 	0.67430 0.56690 0.84520 -0.24200
S 	S 	0.16300 0.81760 0.92850 -0.34400
C 	C 	0.32360 0.99340 0.88050 0.26700
N 	N 	0.43310 0.10740 0.84520 -0.38900
S 	S 	0.18240 0.34540 0.92850 -0.31000
C 	C 	0.00660 0.33020 0.88050 -0.12900
N 	N 	0.89260 0.32570 0.84520 -0.13800
S 	S 	0.65460 0.83700 0.57150 -0.21100
C 	C 	0.66980 0.67640 0.61950 0.09500
N 	N 	0.67430 0.56690 0.65480 -0.24900
S 	S 	0.16300 0.81760 0.57150 -0.41700
C 	C 	0.32360 0.99340 0.61950 0.26600
N 	N 	0.43310 0.10740 0.65480 -0.39700
S 	S 	0.18240 0.34540 0.57150 -0.38300
C 	C 	0.00660 0.33020 0.61950 -0.13300
N 	N 	0.89260 0.32570 0.65480 -0.14300
S 	S 	0.34540 0.16300 0.07150 -0.52200
C 	C 	0.33020 0.32360 0.11950 0.06200
N 	N 	0.32570 0.43310 0.15480 -0.29100
S 	S 	0.83700 0.18240 0.07150 -0.30200
C 	C 	0.67640 0.00660 0.11950 -0.09900
N 	N 	0.56690 0.89260 0.15480 -0.14700
S 	S 	0.81760 0.65460 0.07150 -0.34800
C 	C 	0.99340 0.66980 0.11950 0.28900
N 	N 	0.10740 0.67430 0.15480 -0.39400
Bi	Bi	-0.00000 0.00000 0.50000 1.70300
Bi	Bi	-0.00000 0.00000 -0.00000 1.66600
La	La	0.33333 0.66667 0.25000 1.41100
La	La	0.66667 0.33333 0.75000 1.42100
