data_crystal

_cell_length_a 8.20000
_cell_length_b 8.20000
_cell_length_c 18.60600
_cell_angle_alpha 90.00000
_cell_angle_beta  90.00000
_cell_angle_gamma 120.00000

_symmetry_space_group_name_	'P 1'
_symmetry_space_group_name_H-M	'P 1'

loop_
_symmetry_equiv_pos_as_xyz
  x,y,z

loop_
_atom_site_label
_atom_site_type_symbol
_atom_site_fract_x
_atom_site_fract_y
_atom_site_fract_z
_atom_site_charge
S 	S 	0.34780 0.16840 0.42840 -0.46500
C 	C 	0.33100 0.32720 0.37930 0.06900
N 	N 	0.32590 0.43880 0.34370 -0.29500
S 	S 	0.83160 0.17940 0.42840 -0.25000
C 	C 	0.67280 0.00380 0.37930 -0.09100
N 	N 	0.56120 0.88710 0.34370 -0.15200
S 	S 	0.82060 0.65220 0.42840 -0.29000
C 	C 	0.99620 0.66900 0.37930 0.29400
N 	N 	0.11290 0.67410 0.34370 -0.39500
S 	S 	0.65220 0.83160 0.92840 -0.14400
C 	C 	0.66900 0.67280 0.87930 0.10200
N 	N 	0.67410 0.56120 0.84370 -0.25400
S 	S 	0.16840 0.82060 0.92840 -0.34500
C 	C 	0.32720 0.99620 0.87930 0.27000
N 	N 	0.43880 0.11290 0.84370 -0.39900
S 	S 	0.17940 0.34780 0.92840 -0.31500
C 	C 	0.00380 0.33100 0.87930 -0.12300
N 	N 	0.88710 0.32590 0.84370 -0.15100
S 	S 	0.65220 0.83160 0.57160 -0.21500
C 	C 	0.66900 0.67280 0.62070 0.10000
N 	N 	0.67410 0.56120 0.65630 -0.26100
S 	S 	0.16840 0.82060 0.57160 -0.41900
C 	C 	0.32720 0.99620 0.62070 0.27000
N 	N 	0.43880 0.11290 0.65630 -0.40700
S 	S 	0.17940 0.34780 0.57160 -0.38900
C 	C 	0.00380 0.33100 0.62070 -0.12700
N 	N 	0.88710 0.32590 0.65630 -0.15700
S 	S 	0.34780 0.16840 0.07160 -0.52700
C 	C 	0.33100 0.32720 0.12070 0.06700
N 	N 	0.32590 0.43880 0.15630 -0.30200
S 	S 	0.83160 0.17940 0.07160 -0.30900
C 	C 	0.67280 0.00380 0.12070 -0.09300
N 	N 	0.56120 0.88710 0.15630 -0.15900
S 	S 	0.82060 0.65220 0.07160 -0.35000
C 	C 	0.99620 0.66900 0.12070 0.29400
N 	N 	0.11290 0.67410 0.15630 -0.40300
Bi	Bi	0.00000 0.00000 0.50000 1.70100
Bi	Bi	-0.00000 0.00000 -0.00000 1.66300
Nd	Nd	0.33333 0.66667 0.25000 1.46800
Nd	Nd	0.66667 0.33333 0.75000 1.48900
