data_crystal

_cell_length_a 6.65400
_cell_length_b 8.93900
_cell_length_c 11.50500
_cell_angle_alpha 94.20000
_cell_angle_beta  90.57000
_cell_angle_gamma 107.12000

_symmetry_space_group_name_	'P 1'
_symmetry_space_group_name_H-M	'P 1'

loop_
_symmetry_equiv_pos_as_xyz
  x,y,z

loop_
_atom_site_label
_atom_site_type_symbol
_atom_site_fract_x
_atom_site_fract_y
_atom_site_fract_z
_atom_site_charge
Zr	Zr	0.16896 0.27749 0.90169 3.21300
Zr	Zr	0.77480 0.55838 0.64844 3.22000
P 	P 	0.70970 0.38320 0.91433 0.77800
P 	P 	0.23410 0.45580 0.63912 0.75400
P 	P 	0.85990 0.90210 0.82960 0.42700
P 	P 	0.00610 0.12760 0.16430 0.37100
F 	F 	0.68100 0.33770 0.57930 -0.75500
O 	O 	0.48100 0.28010 0.90140 -0.69200
O 	O 	0.74410 0.49370 0.02680 -0.74800
O 	O 	0.85080 0.27380 0.91900 -0.64400
O 	O 	0.76620 0.48150 0.81040 -0.78100
O 	O 	0.20620 0.36420 0.51870 -0.66500
O 	O 	0.46250 0.56010 0.65700 -0.68300
O 	O 	0.08900 0.56260 0.64450 -0.67800
O 	O 	0.18170 0.34140 0.73370 -0.72400
O 	O 	0.05720 0.04520 0.83060 -0.67700
O 	O 	0.85230 0.81410 0.93630 -0.73200
O 	O 	0.87010 0.79290 0.71820 -0.64300
O 	O 	0.66500 0.96740 0.81880 -0.16300
O 	O 	0.78990 0.16840 0.14940 -0.17800
Zr	Zr	0.83104 0.72251 0.09831 3.21300
Zr	Zr	0.22520 0.44162 0.35156 3.22000
P 	P 	0.29030 0.61680 0.08567 0.77800
P 	P 	0.76590 0.54420 0.36088 0.75400
P 	P 	0.14010 0.09790 0.17040 0.42700
P 	P 	0.99390 0.87240 0.83570 0.37100
F 	F 	0.31900 0.66230 0.42070 -0.75500
O 	O 	0.51900 0.71990 0.09860 -0.69200
O 	O 	0.25590 0.50630 0.97320 -0.74800
O 	O 	0.14920 0.72620 0.08100 -0.64400
O 	O 	0.23380 0.51850 0.18960 -0.78100
O 	O 	0.79380 0.63580 0.48130 -0.66500
O 	O 	0.53750 0.43990 0.34300 -0.68300
O 	O 	0.91100 0.43740 0.35550 -0.67800
O 	O 	0.81830 0.65860 0.26630 -0.72400
O 	O 	0.94280 0.95480 0.16940 -0.67700
O 	O 	0.14770 0.18590 0.06370 -0.73200
O 	O 	0.12990 0.20710 0.28180 -0.64300
O 	O 	0.33500 0.03260 0.18120 -0.16300
O 	O 	0.21010 0.83160 0.85060 -0.17800
