data_crystal

_cell_length_a 11.53900
_cell_length_b 6.63700
_cell_length_c 17.09200
_cell_angle_alpha 90.00000
_cell_angle_beta  94.95000
_cell_angle_gamma 90.00000

_symmetry_space_group_name_	'P 1'
_symmetry_space_group_name_H-M	'P 1'

loop_
_symmetry_equiv_pos_as_xyz
  x,y,z

loop_
_atom_site_label
_atom_site_type_symbol
_atom_site_fract_x
_atom_site_fract_y
_atom_site_fract_z
_atom_site_charge
Zr	Zr	0.40222 0.06899 0.13890 3.21400
Zr	Zr	0.14851 0.57049 0.27945 3.22000
P 	P 	0.13999 0.06950 0.22857 0.74200
P 	P 	0.41349 0.56610 0.19103 0.77200
P 	P 	0.66911 0.09670 0.04922 0.44300
P 	P 	0.66960 0.95620 0.06500 0.33100
F 	F 	0.07840 0.56960 0.16831 -0.74900
O 	O 	0.15320 0.25840 0.28110 -0.68700
O 	O 	0.01930 0.07050 0.18230 -0.65700
O 	O 	0.23460 0.06780 0.17080 -0.71700
O 	O 	0.15120 0.88220 0.28210 -0.68500
O 	O 	0.41050 0.75180 0.13650 -0.65500
O 	O 	0.52630 0.56240 0.24590 -0.74700
O 	O 	0.31000 0.57170 0.24040 -0.77900
O 	O 	0.40520 0.37750 0.13790 -0.69400
O 	O 	0.56440 0.06950 0.09490 -0.73200
O 	O 	0.66780 0.95330 0.97890 -0.65400
O 	O 	0.78240 0.07130 0.10200 -0.64200
O 	O 	0.67190 0.32150 0.01730 -0.16100
O 	O 	0.66710 0.71500 0.07060 -0.15600
Zr	Zr	0.59778 0.56899 0.36110 3.21300
Zr	Zr	0.85149 0.07049 0.22055 3.21800
P 	P 	0.86001 0.56950 0.27143 0.74300
P 	P 	0.58651 0.06610 0.30897 0.76700
P 	P 	0.33089 0.59670 0.45078 0.46900
P 	P 	0.33040 0.45620 0.43500 0.29900
F 	F 	0.92160 0.06960 0.33169 -0.75400
O 	O 	0.84680 0.75840 0.21890 -0.68400
O 	O 	0.98070 0.57050 0.31770 -0.65800
O 	O 	0.76540 0.56780 0.32920 -0.71600
O 	O 	0.84880 0.38220 0.21790 -0.68800
O 	O 	0.58950 0.25180 0.36350 -0.65800
O 	O 	0.47370 0.06240 0.25410 -0.74900
O 	O 	0.69000 0.07170 0.25960 -0.78100
O 	O 	0.59480 0.87750 0.36210 -0.69000
O 	O 	0.43560 0.56950 0.40510 -0.73000
O 	O 	0.33220 0.45330 0.52110 -0.65200
O 	O 	0.21760 0.57130 0.39800 -0.63700
O 	O 	0.32810 0.82150 0.48270 -0.16500
O 	O 	0.33290 0.21500 0.42940 -0.15200
Zr	Zr	0.59778 0.93101 0.86110 3.21300
Zr	Zr	0.85149 0.42951 0.72055 3.21900
P 	P 	0.86001 0.93050 0.77143 0.74100
P 	P 	0.58651 0.43390 0.80897 0.77100
P 	P 	0.33089 0.90330 0.95078 0.44300
P 	P 	0.33040 0.04380 0.93500 0.33100
F 	F 	0.92160 0.43040 0.83169 -0.74900
O 	O 	0.84680 0.74160 0.71890 -0.68700
O 	O 	0.98070 0.92950 0.81770 -0.65700
O 	O 	0.76540 0.93220 0.82920 -0.71700
O 	O 	0.84880 0.11780 0.71790 -0.68500
O 	O 	0.58950 0.24820 0.86350 -0.65500
O 	O 	0.47370 0.43760 0.75410 -0.74700
O 	O 	0.69000 0.42830 0.75960 -0.77900
O 	O 	0.59480 0.62250 0.86210 -0.69400
O 	O 	0.43560 0.93050 0.90510 -0.73200
O 	O 	0.33220 0.04670 0.02110 -0.65400
O 	O 	0.21760 0.92870 0.89800 -0.64200
O 	O 	0.32810 0.67850 0.98270 -0.16100
O 	O 	0.33290 0.28500 0.92940 -0.15600
Zr	Zr	0.40222 0.43101 0.63890 3.21300
Zr	Zr	0.14851 0.92951 0.77945 3.21800
P 	P 	0.13999 0.43050 0.72857 0.74300
P 	P 	0.41349 0.93390 0.69103 0.76700
P 	P 	0.66911 0.40330 0.54922 0.46900
P 	P 	0.66960 0.54380 0.56500 0.29900
F 	F 	0.07840 0.93040 0.66831 -0.75400
O 	O 	0.15320 0.24160 0.78110 -0.68400
O 	O 	0.01930 0.42950 0.68230 -0.65800
O 	O 	0.23460 0.43220 0.67080 -0.71600
O 	O 	0.15120 0.61780 0.78210 -0.68800
O 	O 	0.41050 0.74820 0.63650 -0.65800
O 	O 	0.52630 0.93760 0.74590 -0.74900
O 	O 	0.31000 0.92830 0.74040 -0.78100
O 	O 	0.40520 0.12250 0.63790 -0.69000
O 	O 	0.56440 0.43050 0.59490 -0.73000
O 	O 	0.66780 0.54670 0.47890 -0.65200
O 	O 	0.78240 0.42870 0.60200 -0.63700
O 	O 	0.67190 0.17850 0.51730 -0.16500
O 	O 	0.66710 0.78500 0.57060 -0.15200
