data_crystal

_cell_length_a 11.50600
_cell_length_b 6.63800
_cell_length_c 17.14800
_cell_angle_alpha 90.00000
_cell_angle_beta  96.05000
_cell_angle_gamma 90.00000

_symmetry_space_group_name_	'P 1'
_symmetry_space_group_name_H-M	'P 1'

loop_
_symmetry_equiv_pos_as_xyz
  x,y,z

loop_
_atom_site_label
_atom_site_type_symbol
_atom_site_fract_x
_atom_site_fract_y
_atom_site_fract_z
_atom_site_charge
Zr	Zr	0.40212 0.07149 0.13798 3.21100
Zr	Zr	0.14752 0.57948 0.27762 3.21800
P 	P 	0.14088 0.07440 0.22681 0.73200
P 	P 	0.41307 0.57001 0.19047 0.77200
P 	P 	0.66979 0.09740 0.04984 0.69100
F 	F 	0.07060 0.58620 0.16850 -0.76200
O 	O 	0.15590 0.26670 0.27693 -0.68700
O 	O 	0.01820 0.07290 0.18150 -0.65600
O 	O 	0.23410 0.06690 0.16870 -0.71400
O 	O 	0.15450 0.89070 0.28280 -0.68600
O 	O 	0.41220 0.75410 0.13562 -0.65800
O 	O 	0.52540 0.56440 0.24660 -0.75400
O 	O 	0.30830 0.58330 0.23790 -0.77400
O 	O 	0.40350 0.37920 0.13810 -0.70500
O 	O 	0.56350 0.07380 0.09410 -0.72400
O 	O 	0.66800 0.95260 0.98030 -0.64000
O 	O 	0.78240 0.06960 0.10360 -0.63900
O 	O 	0.67390 0.32070 0.01810 -0.22400
Zr	Zr	0.59788 0.57149 0.36202 3.21200
Zr	Zr	0.85248 0.07948 0.22238 3.21800
P 	P 	0.85912 0.57440 0.27319 0.73400
P 	P 	0.58693 0.07001 0.30953 0.76800
P 	P 	0.33021 0.59740 0.45016 0.69400
F 	F 	0.92940 0.08620 0.33150 -0.76700
O 	O 	0.84410 0.76670 0.22307 -0.68300
O 	O 	0.98180 0.57290 0.31850 -0.65700
O 	O 	0.76590 0.56690 0.33130 -0.71300
O 	O 	0.84550 0.39070 0.21720 -0.68900
O 	O 	0.58780 0.25410 0.36438 -0.66100
O 	O 	0.47460 0.06440 0.25340 -0.75700
O 	O 	0.69170 0.08330 0.26210 -0.77700
O 	O 	0.59650 0.87920 0.36190 -0.70000
O 	O 	0.43650 0.57380 0.40590 -0.72300
O 	O 	0.33200 0.45260 0.51970 -0.64100
O 	O 	0.21760 0.56960 0.39640 -0.63600
O 	O 	0.32610 0.82070 0.48190 -0.22400
Zr	Zr	0.59788 0.92851 0.86202 3.21200
Zr	Zr	0.85248 0.42052 0.72238 3.21900
P 	P 	0.85912 0.92560 0.77319 0.73200
P 	P 	0.58693 0.42999 0.80953 0.77200
P 	P 	0.33021 0.90260 0.95016 0.69100
F 	F 	0.92940 0.41380 0.83150 -0.76200
O 	O 	0.84410 0.73330 0.72307 -0.68700
O 	O 	0.98180 0.92710 0.81850 -0.65600
O 	O 	0.76590 0.93310 0.83130 -0.71400
O 	O 	0.84550 0.10930 0.71720 -0.68600
O 	O 	0.58780 0.24590 0.86438 -0.65800
O 	O 	0.47460 0.43560 0.75340 -0.75400
O 	O 	0.69170 0.41670 0.76210 -0.77400
O 	O 	0.59650 0.62080 0.86190 -0.70500
O 	O 	0.43650 0.92620 0.90590 -0.72400
O 	O 	0.33200 0.04740 0.01970 -0.64000
O 	O 	0.21760 0.93040 0.89640 -0.63900
O 	O 	0.32610 0.67930 0.98190 -0.22400
Zr	Zr	0.40212 0.42851 0.63798 3.21200
Zr	Zr	0.14752 0.92052 0.77762 3.21800
P 	P 	0.14088 0.42560 0.72681 0.73400
P 	P 	0.41307 0.92999 0.69047 0.76800
P 	P 	0.66979 0.40260 0.54984 0.69400
F 	F 	0.07060 0.91380 0.66850 -0.76700
O 	O 	0.15590 0.23330 0.77693 -0.68300
O 	O 	0.01820 0.42710 0.68150 -0.65700
O 	O 	0.23410 0.43310 0.66870 -0.71300
O 	O 	0.15450 0.60930 0.78280 -0.68900
O 	O 	0.41220 0.74590 0.63562 -0.66100
O 	O 	0.52540 0.93560 0.74660 -0.75700
O 	O 	0.30830 0.91670 0.73790 -0.77700
O 	O 	0.40350 0.12080 0.63810 -0.70000
O 	O 	0.56350 0.42620 0.59410 -0.72300
O 	O 	0.66800 0.54740 0.48030 -0.64100
O 	O 	0.78240 0.43040 0.60360 -0.63600
O 	O 	0.67390 0.17930 0.51810 -0.22400
