data_crystal

_cell_length_a 11.88940
_cell_length_b 5.22990
_cell_length_c 17.46630
_cell_angle_alpha 90.00000
_cell_angle_beta  97.27900
_cell_angle_gamma 90.00000

_symmetry_space_group_name_	'P 1'
_symmetry_space_group_name_H-M	'P 1'

loop_
_symmetry_equiv_pos_as_xyz
  x,y,z

loop_
_atom_site_label
_atom_site_type_symbol
_atom_site_fract_x
_atom_site_fract_y
_atom_site_fract_z
_atom_site_charge
Na	Na	0.58991 0.89880 0.03331 0.57600
Na	Na	0.32142 0.93200 0.09161 0.57500
Na	Na	0.10692 0.36480 0.95889 0.59300
Na	Na	0.14741 0.97240 0.24034 0.57400
O 	O 	0.46920 0.62090 0.09643 -0.46100
O 	O 	0.25130 0.67750 0.96075 -0.44100
O 	O 	0.26390 0.09950 0.96916 -0.41300
O 	O 	0.20750 0.66260 0.16074 -0.42400
O 	O 	0.48980 0.20010 0.09105 -0.42300
O 	O 	0.33060 0.93840 0.33557 -0.33300
O 	O 	0.02190 0.50010 0.06690 -0.73700
H 	H 	0.01540 0.36380 0.09250 0.31100
H 	H 	0.08530 0.54500 0.09120 0.30100
O 	O 	0.25190 0.24730 0.17204 -0.35500
O 	O 	0.03330 0.55210 0.84599 -0.36100
O 	O 	0.27310 0.30010 0.70152 -0.23200
O 	O 	0.01160 0.71070 0.72686 -0.30800
N 	N 	0.36890 0.51800 0.31861 -0.23500
H 	H 	0.37750 0.36560 0.33990 0.15200
N 	N 	0.24050 0.72210 0.71953 -0.23500
H 	H 	0.24560 0.87760 0.70110 0.11900
C 	C 	0.48110 0.40390 0.12739 0.41700
C 	C 	0.27080 0.47750 0.18570 0.28400
C 	C 	0.24830 0.89460 0.93110 0.39800
C 	C 	0.26910 0.52350 0.67770 0.20600
C 	C 	0.48020 0.38840 0.21520 -0.37400
H 	H 	0.47100 0.20840 0.23090 0.16700
H 	H 	0.55280 0.45330 0.24220 0.14500
C 	C 	0.34370 0.71780 0.36150 0.21000
C 	C 	0.38210 0.54920 0.23700 0.04100
H 	H 	0.39910 0.73300 0.22770 -0.00300
C 	C 	0.20120 0.68920 0.79500 0.13900
H 	H 	0.24080 0.53930 0.82190 -0.00200
C 	C 	0.22840 0.92930 0.84370 -0.67700
H 	H 	0.29700 0.00910 0.82730 0.28700
H 	H 	0.16510 0.05150 0.83150 0.27500
C 	C 	0.33270 0.66510 0.44480 -0.05400
C 	C 	0.38260 0.45860 0.48610 -0.01800
H 	H 	0.42960 0.34400 0.46240 0.04900
C 	C 	0.36360 0.41960 0.56210 -0.03300
H 	H 	0.39820 0.27820 0.59000 0.06600
C 	C 	0.29500 0.58340 0.59790 -0.02900
C 	C 	0.24780 0.79740 0.55750 -0.03900
H 	H 	0.20280 0.91470 0.58190 0.02300
C 	C 	0.26710 0.83780 0.48150 -0.01500
H 	H 	0.23540 0.98350 0.45420 0.00600
C 	C 	0.07190 0.64510 0.78720 0.23200
C 	C 	0.26950 0.45300 0.46350 -0.02600
H 	H 	0.23940 0.33700 0.42430 0.05200
C 	C 	0.25100 0.41300 0.54000 -0.02300
H 	H 	0.20790 0.26880 0.55280 0.06500
C 	C 	0.35800 0.79400 0.57930 -0.02800
H 	H 	0.38780 0.91040 0.61850 0.01400
C 	C 	0.37700 0.83400 0.50280 -0.02900
H 	H 	0.41960 0.97780 0.49020 0.01500
Na	Na	0.41009 0.39880 0.96669 0.58700
Na	Na	0.67858 0.43200 0.90839 0.58500
Na	Na	0.89308 0.86480 0.04111 0.57700
Na	Na	0.85259 0.47240 0.75966 0.58400
O 	O 	0.53080 0.12090 0.90357 -0.36700
O 	O 	0.74870 0.17750 0.03925 -0.40300
O 	O 	0.73610 0.59950 0.03084 -0.48600
O 	O 	0.79250 0.16260 0.83926 -0.31000
O 	O 	0.51020 0.70010 0.90895 -0.44400
O 	O 	0.66940 0.43840 0.66443 -0.28600
O 	O 	0.97810 0.00010 0.93310 -0.58800
H 	H 	0.98460 0.86380 0.90750 0.19500
H 	H 	0.91470 0.04500 0.90880 0.28200
O 	O 	0.74810 0.74730 0.82796 -0.35300
O 	O 	0.96670 0.05210 0.15401 -0.34300
O 	O 	0.72690 0.80010 0.29848 -0.33800
O 	O 	0.98840 0.21070 0.27314 -0.29200
N 	N 	0.63110 0.01800 0.68139 -0.17500
H 	H 	0.62250 0.86560 0.66010 0.07500
N 	N 	0.75950 0.22210 0.28047 -0.23300
H 	H 	0.75440 0.37760 0.29890 0.14000
C 	C 	0.51890 0.90390 0.87261 0.33300
C 	C 	0.72920 0.97750 0.81430 0.09500
C 	C 	0.75170 0.39460 0.06890 0.40400
C 	C 	0.73090 0.02350 0.32230 0.29900
C 	C 	0.51980 0.88840 0.78480 -0.46000
H 	H 	0.52900 0.70840 0.76910 0.16800
H 	H 	0.44720 0.95330 0.75780 0.13900
C 	C 	0.65630 0.21780 0.63850 0.17700
C 	C 	0.61790 0.04920 0.76300 0.20600
H 	H 	0.60090 0.23300 0.77230 -0.02300
C 	C 	0.79880 0.18920 0.20500 0.05100
H 	H 	0.75920 0.03930 0.17810 0.04800
C 	C 	0.77160 0.42930 0.15630 -0.35200
H 	H 	0.70300 0.50910 0.17270 0.12700
H 	H 	0.83490 0.55150 0.16850 0.11300
C 	C 	0.66730 0.16510 0.55520 0.08700
C 	C 	0.61740 0.95860 0.51390 -0.09900
H 	H 	0.57040 0.84400 0.53760 0.05000
C 	C 	0.63640 0.91960 0.43790 -0.06500
H 	H 	0.60180 0.77820 0.41000 0.04600
C 	C 	0.70500 0.08340 0.40210 0.03100
C 	C 	0.75220 0.29740 0.44250 -0.01800
H 	H 	0.79720 0.41470 0.41810 0.03600
C 	C 	0.73290 0.33780 0.51850 -0.04300
H 	H 	0.76460 0.48350 0.54580 0.04400
C 	C 	0.92810 0.14510 0.21280 0.27100
C 	C 	0.73050 0.95300 0.53650 -0.09300
H 	H 	0.76060 0.83700 0.57570 0.04100
C 	C 	0.74900 0.91300 0.46000 -0.06900
H 	H 	0.79210 0.76880 0.44720 0.04300
C 	C 	0.64200 0.29400 0.42070 -0.01600
H 	H 	0.61220 0.41040 0.38150 0.03300
C 	C 	0.62300 0.33400 0.49720 -0.04100
H 	H 	0.58040 0.47780 0.50980 0.04600
