data_crystal

_cell_length_a 12.07900
_cell_length_b 5.24190
_cell_length_c 21.25400
_cell_angle_alpha 90.00000
_cell_angle_beta  103.88600
_cell_angle_gamma 90.00000

_symmetry_space_group_name_	'P 1'
_symmetry_space_group_name_H-M	'P 1'

loop_
_symmetry_equiv_pos_as_xyz
  x,y,z

loop_
_atom_site_label
_atom_site_type_symbol
_atom_site_fract_x
_atom_site_fract_y
_atom_site_fract_z
_atom_site_charge
Na	Na	0.40660 0.67000 0.96840 0.58700
Na	Na	0.66410 0.71400 0.93130 0.58700
Na	Na	0.88510 0.15100 0.02420 0.58500
Na	Na	0.82380 0.81300 0.81460 0.59000
O 	O 	0.74660 0.45900 0.03170 -0.45600
O 	O 	0.50010 0.97100 0.92550 -0.42800
O 	O 	0.74110 0.87800 0.03640 -0.44800
O 	O 	0.98060 0.30600 0.94720 -0.48900
H 	H 	0.92160 0.36060 0.90870 0.19200
H 	H 	0.02150 0.16030 0.93350 0.16000
O 	O 	0.98360 0.35300 0.12050 -0.37600
O 	O 	0.52090 0.39600 0.92060 -0.41400
O 	O 	0.77940 0.47300 0.87310 -0.38900
O 	O 	0.73530 0.06300 0.87750 -0.40600
O 	O 	0.65560 0.72000 0.73470 -0.29600
N 	N 	0.80530 0.41100 0.23510 -0.23800
H 	H 	0.83780 0.53720 0.26020 0.13200
N 	N 	0.60840 0.30600 0.74320 -0.22700
H 	H 	0.59150 0.15830 0.72340 0.12200
C 	C 	0.64100 0.49800 0.71170 0.21300
C 	C 	0.65300 0.45200 0.64360 -0.07600
O 	O 	0.00330 0.16500 0.21710 -0.29100
C 	C 	0.76000 0.65900 0.06280 0.43600
C 	C 	0.60000 0.33300 0.81040 0.01400
H 	H 	0.57750 0.51280 0.81650 0.03000
O 	O 	0.68900 0.07600 0.22540 -0.26500
C 	C 	0.82400 0.40300 0.17000 0.07200
H 	H 	0.77030 0.27500 0.14440 0.00900
C 	C 	0.50900 0.16500 0.89710 0.36700
C 	C 	0.79700 0.66700 0.13600 -0.40400
H 	H 	0.73650 0.74980 0.15260 0.16900
H 	H 	0.86630 0.77500 0.14850 0.15900
C 	C 	0.50500 0.15800 0.82250 -0.37300
H 	H 	0.51630 0.98120 0.80900 0.16700
H 	H 	0.42950 0.21830 0.79720 0.15100
C 	C 	0.68200 0.39300 0.51730 0.01700
C 	C 	0.70200 0.36300 0.45150 0.02700
C 	C 	0.73000 0.29700 0.32680 -0.05800
C 	C 	0.60000 0.25300 0.60640 -0.00500
H 	H 	0.55430 0.13550 0.62300 0.02300
C 	C 	0.71400 0.28600 0.85700 0.28800
C 	C 	0.74800 0.25900 0.25860 0.22000
C 	C 	0.73000 0.58900 0.55730 -0.08300
H 	H 	0.77690 0.70690 0.54160 0.05800
C 	C 	0.61400 0.22700 0.54390 -0.08500
H 	H 	0.57710 0.09030 0.51800 0.04700
C 	C 	0.71600 0.62400 0.61880 0.00400
H 	H 	0.74900 0.76620 0.64380 0.03700
C 	C 	0.94900 0.32000 0.16840 0.22800
C 	C 	0.62100 0.26500 0.40700 0.01000
H 	H 	0.55200 0.21610 0.41740 0.02100
C 	C 	0.63300 0.22700 0.34120 0.03300
H 	H 	0.57260 0.15500 0.30900 0.02100
C 	C 	0.82100 0.40600 0.37500 -0.00700
H 	H 	0.89010 0.45390 0.36430 0.02900
C 	C 	0.81100 0.44100 0.43690 -0.04900
H 	H 	0.87080 0.51280 0.46920 0.04400
C 	C 	0.72900 0.53900 0.35170 -0.02300
H 	H 	0.73650 0.68430 0.32640 0.03700
C 	C 	0.71700 0.56500 0.41700 -0.05900
H 	H 	0.72030 0.73050 0.43520 0.05000
C 	C 	0.66800 0.11900 0.41700 -0.11600
H 	H 	0.63560 0.98520 0.43660 0.07700
C 	C 	0.68500 0.09200 0.35750 -0.07600
H 	H 	0.66710 0.93460 0.33520 0.07400
Na	Na	0.59340 0.17000 0.03160 0.58300
Na	Na	0.33590 0.21400 0.06870 0.58100
Na	Na	0.11490 0.65100 0.97580 0.59100
Na	Na	0.17620 0.31300 0.18540 0.58500
O 	O 	0.25340 0.95900 0.96830 -0.41200
O 	O 	0.49990 0.47100 0.07450 -0.47700
O 	O 	0.25890 0.37800 0.96360 -0.46000
O 	O 	0.01940 0.80600 0.05280 -0.48100
H 	H 	0.07840 0.86060 0.09130 0.19800
H 	H 	0.97850 0.66030 0.06650 0.17400
O 	O 	0.01640 0.85300 0.87950 -0.35200
O 	O 	0.47910 0.89600 0.07940 -0.40600
O 	O 	0.22060 0.97300 0.12690 -0.36800
O 	O 	0.26470 0.56300 0.12250 -0.38800
O 	O 	0.34440 0.22000 0.26530 -0.33500
N 	N 	0.19470 0.91100 0.76490 -0.21000
H 	H 	0.16220 0.03720 0.73980 0.09700
N 	N 	0.39160 0.80600 0.25680 -0.23900
H 	H 	0.40850 0.65830 0.27660 0.13300
C 	C 	0.35900 0.99800 0.28830 0.25500
C 	C 	0.34700 0.95200 0.35640 -0.05900
O 	O 	0.99670 0.66500 0.78290 -0.27400
C 	C 	0.24000 0.15900 0.93720 0.38700
C 	C 	0.40000 0.83300 0.18960 0.07000
H 	H 	0.42250 0.01280 0.18350 -0.01600
O 	O 	0.31100 0.57600 0.77460 -0.24500
C 	C 	0.17600 0.90300 0.83000 0.09600
H 	H 	0.22970 0.77500 0.85560 0.01300
C 	C 	0.49100 0.66500 0.10290 0.41200
C 	C 	0.20300 0.16700 0.86400 -0.41900
H 	H 	0.26350 0.24980 0.84740 0.16100
H 	H 	0.13370 0.27500 0.85150 0.14900
C 	C 	0.49500 0.65800 0.17750 -0.35300
H 	H 	0.48370 0.48120 0.19100 0.13700
H 	H 	0.57050 0.71830 0.20280 0.15800
C 	C 	0.31800 0.89300 0.48270 0.05300
C 	C 	0.29800 0.86300 0.54850 0.03200
C 	C 	0.27000 0.79700 0.67320 -0.02300
C 	C 	0.40000 0.75300 0.39360 0.00400
H 	H 	0.44570 0.63550 0.37700 0.02500
C 	C 	0.28600 0.78600 0.14300 0.27300
C 	C 	0.25200 0.75900 0.74140 0.21000
C 	C 	0.27000 0.08900 0.44270 -0.11500
H 	H 	0.22310 0.20690 0.45840 0.06100
C 	C 	0.38600 0.72700 0.45610 -0.09200
H 	H 	0.42290 0.59030 0.48200 0.05900
C 	C 	0.28400 0.12400 0.38120 -0.01600
H 	H 	0.25100 0.26620 0.35620 0.03400
C 	C 	0.05100 0.82000 0.83160 0.22500
C 	C 	0.37900 0.76500 0.59300 -0.02800
H 	H 	0.44800 0.71610 0.58260 0.04300
C 	C 	0.36700 0.72700 0.65880 0.02800
H 	H 	0.42740 0.65500 0.69100 0.03600
C 	C 	0.17900 0.90600 0.62500 -0.05400
H 	H 	0.10990 0.95390 0.63570 0.05300
C 	C 	0.18900 0.94100 0.56310 0.07100
H 	H 	0.12920 0.01280 0.53080 -0.01700
C 	C 	0.27100 0.03900 0.64830 -0.02300
H 	H 	0.26350 0.18430 0.67360 0.02700
C 	C 	0.28300 0.06500 0.58300 -0.14700
H 	H 	0.27970 0.23050 0.56480 0.07200
C 	C 	0.33200 0.61900 0.58300 -0.04500
H 	H 	0.36440 0.48520 0.56340 0.03400
C 	C 	0.31500 0.59200 0.64250 -0.06900
H 	H 	0.33290 0.43460 0.66480 0.05300
