data_crystal

_cell_length_a 24.04480
_cell_length_b 5.24320
_cell_length_c 16.98330
_cell_angle_alpha 90.00000
_cell_angle_beta  103.36600
_cell_angle_gamma 90.00000

_symmetry_space_group_name_	'P 1'
_symmetry_space_group_name_H-M	'P 1'

loop_
_symmetry_equiv_pos_as_xyz
  x,y,z

loop_
_atom_site_label
_atom_site_type_symbol
_atom_site_fract_x
_atom_site_fract_y
_atom_site_fract_z
_atom_site_charge
Na	Na	0.04619 0.96890 0.03590 0.58600
Na	Na	0.91880 0.00930 0.09150 0.58800
Na	Na	0.45303 0.42630 0.95920 0.58900
Na	Na	0.80617 0.43370 0.96610 0.59100
Na	Na	0.58330 0.46690 0.91610 0.58700
Na	Na	0.69430 0.91550 0.03440 0.58800
Na	Na	0.83700 0.10470 0.23390 0.58800
Na	Na	0.66480 0.53420 0.76950 0.59600
O 	O 	0.88170 0.17060 0.96250 -0.46400
O 	O 	0.50100 0.73150 0.90990 -0.46300
O 	O 	0.87540 0.75010 0.95980 -0.43700
O 	O 	0.62220 0.63910 0.04720 -0.47000
O 	O 	0.86190 0.75920 0.16250 -0.39300
O 	O 	0.99090 0.69160 0.10080 -0.44700
O 	O 	0.76170 0.57530 0.06790 -0.49900
H 	H 	0.79200 0.62980 0.11490 0.19300
H 	H 	0.74190 0.42780 0.08560 0.17800
O 	O 	0.63920 0.21900 0.84570 -0.38700
O 	O 	0.62340 0.21840 0.04330 -0.43800
O 	O 	0.00320 0.27440 0.09610 -0.44900
O 	O 	0.88560 0.34950 0.15870 -0.38000
O 	O 	0.74160 0.07260 0.93610 -0.47200
H 	H 	0.71170 0.11760 0.88750 0.20000
H 	H 	0.76360 0.92890 0.92060 0.16000
O 	O 	0.51170 0.14930 0.90120 -0.41200
O 	O 	0.74170 0.12810 0.15320 -0.36300
O 	O 	0.58070 0.45220 0.66510 -0.29400
O 	O 	0.76100 0.62480 0.84400 -0.38300
O 	O 	0.92210 0.00410 0.33750 -0.28900
O 	O 	0.61990 0.80110 0.84490 -0.40500
O 	O 	0.74920 0.93700 0.27210 -0.30400
N 	N 	0.94710 0.59200 0.32540 -0.22400
H 	H 	0.95580 0.44460 0.34960 0.13300
N 	N 	0.55730 0.03900 0.67920 -0.21000
H 	H 	0.54950 0.88970 0.65550 0.11900
N 	N 	0.65290 0.18100 0.29580 -0.22400
H 	H 	0.67330 0.29080 0.32960 0.13000
C 	C 	0.87130 0.96200 0.92510 0.42200
N 	N 	0.85220 0.76200 0.70710 -0.23000
H 	H 	0.84770 0.91270 0.68390 0.13900
C 	C 	0.99850 0.47600 0.13320 0.42200
O 	O 	0.59020 0.85800 0.28110 -0.27400
C 	C 	0.63090 0.42300 0.08050 0.42600
C 	C 	0.50530 0.92600 0.87150 0.39800
C 	C 	0.57450 0.23200 0.63900 0.22100
C 	C 	0.95270 0.62700 0.24310 0.02200
H 	H 	0.96310 0.80910 0.23700 0.01700
C 	C 	0.92840 0.78600 0.36550 0.19900
C 	C 	0.58210 0.17300 0.55600 -0.02400
C 	C 	0.64860 0.42800 0.17270 -0.37800
H 	H 	0.61790 0.51180 0.19320 0.15100
H 	H 	0.68330 0.53480 0.18890 0.14200
C 	C 	0.55140 0.07500 0.76230 0.03600
H 	H 	0.54080 0.25740 0.76870 0.02600
C 	C 	0.00090 0.46000 0.22380 -0.36200
H 	H 	0.03850 0.52200 0.25500 0.14400
H 	H 	0.99620 0.28130 0.23940 0.14100
C 	C 	0.66120 0.16600 0.21520 0.05700
H 	H 	0.63330 0.03910 0.18450 0.02800
C 	C 	0.50430 0.90600 0.78080 -0.37300
H 	H 	0.51050 0.72670 0.76670 0.14400
H 	H 	0.46660 0.96140 0.74830 0.14800
O 	O 	0.87110 0.34800 0.69370 -0.24500
C 	C 	0.60840 0.02200 0.82220 0.32100
C 	C 	0.91650 0.72400 0.44460 -0.04600
C 	C 	0.55980 0.96700 0.50940 -0.05700
H 	H 	0.53680 0.84860 0.53000 0.05100
C 	C 	0.85330 0.97800 0.83400 -0.45000
H 	H 	0.88390 0.06780 0.81500 0.18000
H 	H 	0.81880 0.08770 0.82010 0.18100
C 	C 	0.61500 0.03300 0.32190 0.24100
C 	C 	0.84010 0.73300 0.78610 0.07500
H 	H 	0.86510 0.59520 0.81580 0.01800
C 	C 	0.72230 0.07400 0.21410 0.25400
C 	C 	0.60550 0.08700 0.40470 -0.04100
C 	C 	0.87900 0.89200 0.47150 -0.05400
H 	H 	0.86390 0.03560 0.43940 0.05900
C 	C 	0.88600 0.63800 0.58950 -0.04900
O 	O 	0.74120 0.69300 0.70920 -0.26600
C 	C 	0.89550 0.57800 0.18400 0.27800
C 	C 	0.93810 0.51900 0.49120 -0.03200
H 	H 	0.96380 0.40660 0.47350 0.04500
C 	C 	0.56990 0.92700 0.43340 -0.03800
H 	H 	0.55200 0.78790 0.40120 0.05600
C 	C 	0.62540 0.30100 0.44950 -0.02300
H 	H 	0.64680 0.42280 0.42730 0.03700
C 	C 	0.61570 0.34600 0.52360 -0.04300
H 	H 	0.63140 0.49260 0.55350 0.05300
C 	C 	0.92320 0.47100 0.56280 -0.02800
H 	H 	0.93820 0.32650 0.59420 0.05300
C 	C 	0.86370 0.84900 0.54450 -0.02300
H 	H 	0.83860 0.96200 0.56300 0.03800
C 	C 	0.86960 0.57200 0.66880 0.22400
C 	C 	0.77590 0.66000 0.78150 0.34400
O 	O 	0.70450 0.18900 0.69870 -0.42800
H 	H 	0.71710 0.21190 0.65710 0.26200
C 	C 	0.69110 0.96800 0.70200 0.16900
H 	H 	0.70110 0.91160 0.75900 -0.02800
H 	H 	0.64980 0.94980 0.68110 -0.03400
O 	O 	0.75910 0.44500 0.73400 -0.16900
H 	H 	0.71150 0.86350 0.67040 0.04200
Na	Na	0.95381 0.46890 0.96410 0.58700
Na	Na	0.08120 0.50930 0.90850 0.58600
Na	Na	0.54697 0.92630 0.04080 0.58600
Na	Na	0.19383 0.93370 0.03390 0.58800
Na	Na	0.41670 0.96690 0.08390 0.58400
Na	Na	0.30570 0.41550 0.96560 0.59100
Na	Na	0.16300 0.60470 0.76610 0.58600
Na	Na	0.33520 0.03420 0.23050 0.59900
O 	O 	0.11830 0.67060 0.03750 -0.47600
O 	O 	0.49900 0.23150 0.09010 -0.45900
O 	O 	0.12460 0.25010 0.04020 -0.42800
O 	O 	0.37780 0.13910 0.95280 -0.45100
O 	O 	0.13810 0.25920 0.83750 -0.39200
O 	O 	0.00910 0.19160 0.89920 -0.43000
O 	O 	0.23830 0.07530 0.93210 -0.47300
H 	H 	0.20800 0.12980 0.88510 0.19300
H 	H 	0.25810 0.92780 0.91440 0.15800
O 	O 	0.36080 0.71900 0.15430 -0.38800
O 	O 	0.37660 0.71840 0.95670 -0.44800
O 	O 	0.99680 0.77440 0.90390 -0.45000
O 	O 	0.11440 0.84950 0.84130 -0.40000
O 	O 	0.25840 0.57260 0.06390 -0.49200
H 	H 	0.28830 0.61760 0.11250 0.19900
H 	H 	0.23640 0.42890 0.07940 0.17600
O 	O 	0.48830 0.64930 0.09880 -0.43800
O 	O 	0.25830 0.62810 0.84680 -0.36200
O 	O 	0.41930 0.95220 0.33490 -0.30400
O 	O 	0.23900 0.12480 0.15600 -0.37700
O 	O 	0.07790 0.50410 0.66250 -0.30900
O 	O 	0.38010 0.30110 0.15510 -0.37800
O 	O 	0.25080 0.43700 0.72790 -0.28300
N 	N 	0.05290 0.09200 0.67460 -0.22000
H 	H 	0.04420 0.94460 0.65040 0.12200
N 	N 	0.44270 0.53900 0.32080 -0.22800
H 	H 	0.45050 0.38970 0.34450 0.14000
N 	N 	0.34710 0.68100 0.70420 -0.22700
H 	H 	0.32670 0.79080 0.67040 0.12600
C 	C 	0.12870 0.46200 0.07490 0.42100
N 	N 	0.14780 0.26200 0.29290 -0.22400
H 	H 	0.15230 0.41270 0.31610 0.14200
C 	C 	0.00150 0.97600 0.86680 0.40300
O 	O 	0.40980 0.35800 0.71890 -0.25100
C 	C 	0.36910 0.92300 0.91950 0.42400
C 	C 	0.49470 0.42600 0.12850 0.42800
C 	C 	0.42550 0.73200 0.36100 0.23100
C 	C 	0.04730 0.12700 0.75690 0.03600
H 	H 	0.03690 0.30910 0.76300 0.01700
C 	C 	0.07160 0.28600 0.63450 0.23700
C 	C 	0.41790 0.67300 0.44400 -0.05300
C 	C 	0.35140 0.92800 0.82730 -0.46900
H 	H 	0.38210 0.01180 0.80680 0.19500
H 	H 	0.31670 0.03480 0.81110 0.18500
C 	C 	0.44860 0.57500 0.23770 0.03100
H 	H 	0.45920 0.75740 0.23130 0.02200
C 	C 	0.99910 0.96000 0.77620 -0.39000
H 	H 	0.96150 0.02200 0.74500 0.16300
H 	H 	0.00380 0.78130 0.76060 0.14500
C 	C 	0.33880 0.66600 0.78480 0.08600
H 	H 	0.36670 0.53910 0.81550 0.01400
C 	C 	0.49570 0.40600 0.21920 -0.36800
H 	H 	0.48950 0.22670 0.23330 0.14900
H 	H 	0.53340 0.46140 0.25170 0.15600
O 	O 	0.12890 0.84800 0.30630 -0.25800
C 	C 	0.39160 0.52200 0.17780 0.29300
C 	C 	0.08350 0.22400 0.55540 -0.11000
C 	C 	0.44020 0.46700 0.49060 -0.02800
H 	H 	0.46320 0.34860 0.47000 0.04700
C 	C 	0.14670 0.47800 0.16600 -0.38900
H 	H 	0.11610 0.56780 0.18500 0.15100
H 	H 	0.18120 0.58770 0.17990 0.15200
C 	C 	0.38500 0.53300 0.67810 0.22000
C 	C 	0.15990 0.23300 0.21390 0.05600
H 	H 	0.13490 0.09520 0.18420 0.02900
C 	C 	0.27770 0.57400 0.78590 0.22400
C 	C 	0.39450 0.58700 0.59530 -0.04800
C 	C 	0.12100 0.39200 0.52850 0.02200
H 	H 	0.13610 0.53560 0.56060 0.02500
C 	C 	0.11400 0.13800 0.41050 0.01100
O 	O 	0.25880 0.19300 0.29080 -0.25400
C 	C 	0.10450 0.07800 0.81600 0.29800
C 	C 	0.06190 0.01900 0.50880 0.07600
H 	H 	0.03620 0.90660 0.52650 -0.00000
C 	C 	0.43010 0.42700 0.56660 -0.03000
H 	H 	0.44800 0.28790 0.59880 0.06000
C 	C 	0.37460 0.80100 0.55050 -0.03100
H 	H 	0.35320 0.92280 0.57270 0.03500
C 	C 	0.38430 0.84600 0.47640 -0.03300
H 	H 	0.36860 0.99260 0.44650 0.04500
C 	C 	0.07680 0.97100 0.43720 -0.13000
H 	H 	0.06180 0.82650 0.40580 0.08200
C 	C 	0.13630 0.34900 0.45550 -0.08200
H 	H 	0.16140 0.46200 0.43700 0.06200
C 	C 	0.13040 0.07200 0.33120 0.22400
C 	C 	0.22410 0.16000 0.21850 0.36000
O 	O 	0.29550 0.68900 0.30130 -0.46500
H 	H 	0.28290 0.71190 0.34290 0.27000
C 	C 	0.30890 0.46800 0.29800 0.24100
H 	H 	0.29890 0.41160 0.24100 -0.04300
H 	H 	0.35020 0.44980 0.31890 -0.04500
O 	O 	0.24090 0.94500 0.26600 -0.18600
H 	H 	0.28850 0.36350 0.32960 0.02300
