data_crystal

_cell_length_a 11.98070
_cell_length_b 5.23450
_cell_length_c 21.79600
_cell_angle_alpha 90.00000
_cell_angle_beta  99.27400
_cell_angle_gamma 90.00000

_symmetry_space_group_name_	'P 1'
_symmetry_space_group_name_H-M	'P 1'

loop_
_symmetry_equiv_pos_as_xyz
  x,y,z

loop_
_atom_site_label
_atom_site_type_symbol
_atom_site_fract_x
_atom_site_fract_y
_atom_site_fract_z
_atom_site_charge
Na	Na	0.58930 0.69400 0.02910 0.58500
Na	Na	0.32290 0.72300 0.06850 0.59300
Na	Na	0.11040 0.17000 0.96800 0.57800
Na	Na	0.15760 0.77600 0.18970 0.59400
O 	O 	0.48750 0.99000 0.07220 -0.33500
O 	O 	0.26050 0.89700 0.96810 -0.44500
O 	O 	0.25460 0.47500 0.96600 -0.44100
O 	O 	0.46780 0.42000 0.07700 -0.42000
O 	O 	0.21050 0.47900 0.12540 -0.38200
N 	N 	0.37400 0.31600 0.25310 -0.23000
H 	H 	0.38550 0.16610 0.27150 0.12700
O 	O 	0.33400 0.73000 0.26540 -0.24900
O 	O 	0.25330 0.04300 0.13150 -0.42300
N 	N 	0.23480 0.49300 0.77090 -0.23400
H 	H 	0.23190 0.64600 0.75410 0.16000
O 	O 	0.02030 0.30800 0.05180 -0.48500
H 	H 	0.07990 0.35370 0.08710 0.18500
H 	H 	0.97810 0.16120 0.06530 0.12900
C 	C 	0.31800 0.40200 0.54770 0.00300
C 	C 	0.24900 0.70100 0.93930 0.42600
C 	C 	0.39600 0.28200 0.39050 -0.04900
H 	H 	0.43950 0.16010 0.37240 0.08200
C 	C 	0.32700 0.42000 0.48110 0.01100
C 	C 	0.47840 0.20800 0.10070 0.27500
C 	C 	0.28300 0.34500 0.67410 -0.05800
C 	C 	0.34800 0.51100 0.28560 0.20900
C 	C 	0.47900 0.18400 0.17100 -0.29000
H 	H 	0.47090 0.00260 0.18220 0.09100
H 	H 	0.55220 0.24740 0.19390 0.11900
C 	C 	0.34400 0.46800 0.35370 -0.04700
C 	C 	0.22500 0.71900 0.86850 -0.41400
H 	H 	0.29020 0.80660 0.85450 0.17500
H 	H 	0.15800 0.82860 0.85660 0.17300
C 	C 	0.38500 0.33600 0.18820 0.01900
H 	H 	0.40280 0.51900 0.18100 0.04000
C 	C 	0.26600 0.29200 0.73740 0.22700
O 	O 	0.30800 0.07400 0.76600 -0.14400
C 	C 	0.38900 0.25900 0.45160 -0.06600
H 	H 	0.42980 0.12450 0.47470 0.04600
O 	O 	0.02500 0.36600 0.87760 -0.36000
C 	C 	0.27700 0.63500 0.38340 -0.01100
H 	H 	0.23530 0.76470 0.35940 0.05600
C 	C 	0.27000 0.27500 0.14330 0.26500
C 	C 	0.27000 0.61800 0.44500 -0.06800
H 	H 	0.22720 0.74010 0.46360 0.06000
C 	C 	0.20600 0.46600 0.83360 0.09700
H 	H 	0.24680 0.32170 0.85720 -0.01500
O 	O 	0.00500 0.44900 0.77520 -0.28700
C 	C 	0.27700 0.59600 0.58200 0.24400
H 	H 	0.25850 0.75390 0.56130 -0.04900
C 	C 	0.32900 0.14900 0.64200 0.76600
H 	H 	0.35220 0.99570 0.66320 -0.12900
C 	C 	0.26000 0.57800 0.64400 0.47300
H 	H 	0.23310 0.72010 0.66420 -0.11300
C 	C 	0.34200 0.16900 0.57900 1.03700
H 	H 	0.36770 0.02650 0.55800 -0.32300
C 	C 	0.07100 0.43300 0.82610 0.20600
C 	C 	0.39200 0.25200 0.58900 -1.07700
H 	H 	0.45490 0.17120 0.57570 0.34600
C 	C 	0.22800 0.52200 0.57000 -0.29100
H 	H 	0.18090 0.63680 0.54380 0.10400
C 	C 	0.20600 0.47500 0.63000 -0.53100
H 	H 	0.13750 0.53360 0.64130 0.19200
C 	C 	0.37200 0.22000 0.65000 -0.88500
H 	H 	0.42060 0.11470 0.67710 0.26400
O 	O 	0.24600 0.08200 0.75500 -0.19700
Na	Na	0.41070 0.19400 0.97090 0.57400
Na	Na	0.67710 0.22300 0.93150 0.57500
Na	Na	0.88960 0.67000 0.03200 0.59000
Na	Na	0.84240 0.27600 0.81030 0.57900
O 	O 	0.51250 0.49000 0.92780 -0.46200
O 	O 	0.73950 0.39700 0.03190 -0.47400
O 	O 	0.74540 0.97500 0.03400 -0.34500
O 	O 	0.53220 0.92000 0.92300 -0.41500
O 	O 	0.78950 0.97900 0.87460 -0.33200
N 	N 	0.62600 0.81600 0.74690 -0.17400
H 	H 	0.61450 0.66610 0.72850 0.12500
O 	O 	0.66600 0.23000 0.73460 -0.25400
O 	O 	0.74670 0.54300 0.86850 -0.37900
N 	N 	0.76520 0.99300 0.22910 -0.16400
H 	H 	0.76810 0.14600 0.24590 0.07300
O 	O 	0.97970 0.80800 0.94820 -0.47800
H 	H 	0.92010 0.85370 0.91290 0.20100
H 	H 	0.02190 0.66120 0.93470 0.17500
C 	C 	0.68200 0.90200 0.45230 0.19500
C 	C 	0.75100 0.20100 0.06070 0.33000
C 	C 	0.60400 0.78200 0.60950 -0.19600
H 	H 	0.56050 0.66010 0.62760 0.12700
C 	C 	0.67300 0.92000 0.51890 -0.03800
C 	C 	0.52160 0.70800 0.89930 0.42400
C 	C 	0.71700 0.84500 0.32590 -0.09100
C 	C 	0.65200 0.01100 0.71440 -0.00500
C 	C 	0.52100 0.68400 0.82900 -0.43800
H 	H 	0.52910 0.50260 0.81780 0.16100
H 	H 	0.44780 0.74740 0.80610 0.18700
C 	C 	0.65600 0.96800 0.64630 0.23900
C 	C 	0.77500 0.21900 0.13150 -0.47400
H 	H 	0.70980 0.30660 0.14550 0.16200
H 	H 	0.84200 0.32860 0.14340 0.15000
C 	C 	0.61500 0.83600 0.81180 0.20600
H 	H 	0.59720 0.01900 0.81900 -0.09300
C 	C 	0.73400 0.79200 0.26260 0.26300
O 	O 	0.69200 0.57400 0.23400 -0.07500
C 	C 	0.61100 0.75900 0.54840 0.07100
H 	H 	0.57020 0.62450 0.52530 0.01700
O 	O 	0.97500 0.86600 0.12240 -0.30800
C 	C 	0.72300 0.13500 0.61660 -0.24800
H 	H 	0.76470 0.26470 0.64060 0.10400
C 	C 	0.73000 0.77500 0.85670 0.22600
C 	C 	0.73000 0.11800 0.55500 -0.02200
H 	H 	0.77280 0.24010 0.53640 0.00600
C 	C 	0.79400 0.96600 0.16640 0.17000
H 	H 	0.75320 0.82170 0.14280 -0.00800
O 	O 	0.99500 0.94900 0.22480 -0.25700
C 	C 	0.72300 0.09600 0.41800 -0.52000
H 	H 	0.74150 0.25390 0.43870 0.14000
C 	C 	0.67100 0.64900 0.35800 1.41000
H 	H 	0.64780 0.49570 0.33680 -0.40700
C 	C 	0.74000 0.07800 0.35600 0.36900
H 	H 	0.76690 0.22010 0.33580 -0.11000
C 	C 	0.65800 0.66900 0.42100 2.00800
H 	H 	0.63230 0.52650 0.44200 -0.58200
C 	C 	0.92900 0.93300 0.17390 0.21300
C 	C 	0.60800 0.75200 0.41100 -2.14000
H 	H 	0.54510 0.67120 0.42430 0.70400
C 	C 	0.77200 0.02200 0.43000 0.24100
H 	H 	0.81910 0.13680 0.45620 -0.09100
C 	C 	0.79400 0.97500 0.37000 -0.24300
H 	H 	0.86250 0.03360 0.35870 0.01600
C 	C 	0.62800 0.72000 0.35000 -1.39300
H 	H 	0.57940 0.61470 0.32290 0.49300
O 	O 	0.75400 0.58200 0.24500 -0.21700
