data_crystal

_cell_length_a 11.86800
_cell_length_b 14.93100
_cell_length_c 17.74100
_cell_angle_alpha 90.00000
_cell_angle_beta  90.00000
_cell_angle_gamma 90.00000

_symmetry_space_group_name_	'P 1'
_symmetry_space_group_name_H-M	'P 1'

loop_
_symmetry_equiv_pos_as_xyz
  x,y,z

loop_
_atom_site_label
_atom_site_type_symbol
_atom_site_fract_x
_atom_site_fract_y
_atom_site_fract_z
_atom_site_charge
Mo	Mo	0.29045 0.11916 0.63722 1.06800
Cu	Cu	0.29040 0.86067 0.43014 0.83100
N 	N 	0.25880 0.98066 0.49310 -0.19900
N 	N 	0.08160 0.98841 0.69120 -0.23200
N 	N 	0.09030 0.25040 0.70009 -0.23300
N 	N 	0.22400 0.26110 0.50229 -0.22300
N 	N 	0.42020 0.93601 0.69443 -0.20900
N 	N 	0.30130 0.11020 0.82185 -0.22300
N 	N 	0.41960 0.30230 0.69456 -0.21100
N 	N 	0.54370 0.13160 0.56187 -0.19800
C 	C 	0.26740 0.03100 0.54160 -0.14900
C 	C 	0.15100 0.03420 0.66800 -0.15500
C 	C 	0.15710 0.20370 0.67620 -0.15200
C 	C 	0.24570 0.20900 0.54680 -0.14800
C 	C 	0.37660 0.99910 0.67140 -0.12900
C 	C 	0.30240 0.11380 0.75810 -0.14000
C 	C 	0.37480 0.23920 0.67330 -0.13500
C 	C 	0.45390 0.12580 0.58460 -0.13400
Mo	Mo	0.20955 0.38084 0.13722 1.07100
Cu	Cu	0.20960 0.63933 0.93014 0.83000
N 	N 	0.24120 0.51934 0.99310 -0.20300
N 	N 	0.41840 0.51159 0.19120 -0.21000
N 	N 	0.40970 0.24960 0.20009 -0.21300
N 	N 	0.27600 0.23890 0.00229 -0.21900
N 	N 	0.07980 0.56399 0.19443 -0.22800
N 	N 	0.19870 0.38980 0.32185 -0.22700
N 	N 	0.08040 0.19770 0.19456 -0.23000
N 	N 	0.95630 0.36840 0.06187 -0.10000
C 	C 	0.23260 0.46900 0.04160 -0.13900
C 	C 	0.34900 0.46580 0.16800 -0.13700
C 	C 	0.34290 0.29630 0.17620 -0.13500
C 	C 	0.25430 0.29100 0.04680 -0.14200
C 	C 	0.12340 0.50090 0.17140 -0.14500
C 	C 	0.19760 0.38620 0.25810 -0.14900
C 	C 	0.12520 0.26080 0.17330 -0.15100
C 	C 	0.04610 0.37420 0.08460 -0.26000
Mo	Mo	0.70955 0.11916 0.86278 1.06800
Cu	Cu	0.70960 0.86067 0.06986 0.84600
N 	N 	0.74120 0.98066 0.00690 -0.18100
N 	N 	0.91840 0.98841 0.80880 -0.17300
N 	N 	0.90970 0.25040 0.79991 -0.17600
N 	N 	0.77600 0.26110 0.99771 -0.21000
N 	N 	0.57980 0.93601 0.80557 -0.20800
N 	N 	0.69870 0.11020 0.67815 -0.21000
N 	N 	0.58040 0.30230 0.80544 -0.21000
N 	N 	0.45630 0.13160 0.93813 -0.20000
C 	C 	0.73260 0.03100 0.95840 -0.13400
C 	C 	0.84900 0.03420 0.83200 -0.12000
C 	C 	0.84290 0.20370 0.82380 -0.12000
C 	C 	0.75430 0.20900 0.95320 -0.12600
C 	C 	0.62340 0.99910 0.82860 -0.12700
C 	C 	0.69760 0.11380 0.74190 -0.12600
C 	C 	0.62520 0.23920 0.82670 -0.13300
C 	C 	0.54610 0.12580 0.91540 -0.13700
Mo	Mo	0.79045 0.38084 0.36278 1.06300
Cu	Cu	0.79040 0.63933 0.56986 0.84400
N 	N 	0.75880 0.51934 0.50690 -0.18600
N 	N 	0.58160 0.51159 0.30880 -0.21000
N 	N 	0.59030 0.24960 0.29991 -0.21200
N 	N 	0.72400 0.23890 0.49771 -0.21000
N 	N 	0.92020 0.56399 0.30557 -0.17300
N 	N 	0.80130 0.38980 0.17815 -0.20600
N 	N 	0.91960 0.19770 0.30544 -0.17500
N 	N 	0.04370 0.36840 0.43813 -0.29700
C 	C 	0.76740 0.46900 0.45840 -0.13300
C 	C 	0.65100 0.46580 0.33200 -0.13700
C 	C 	0.65710 0.29630 0.32380 -0.13500
C 	C 	0.74570 0.29100 0.45320 -0.13100
C 	C 	0.87660 0.50090 0.32860 -0.11100
C 	C 	0.80240 0.38620 0.24190 -0.11600
C 	C 	0.87480 0.26080 0.32670 -0.11800
C 	C 	0.95390 0.37420 0.41540 -0.00300
Mo	Mo	0.70955 0.88084 0.36278 1.06800
Cu	Cu	0.70960 0.13933 0.56986 0.84600
N 	N 	0.74120 0.01934 0.50690 -0.18200
N 	N 	0.91840 0.01159 0.30880 -0.17300
N 	N 	0.90970 0.74960 0.29991 -0.17600
N 	N 	0.77600 0.73890 0.49771 -0.20900
N 	N 	0.57980 0.06399 0.30557 -0.20800
N 	N 	0.69870 0.88980 0.17815 -0.21000
N 	N 	0.58040 0.69770 0.30544 -0.21000
N 	N 	0.45630 0.86840 0.43813 -0.19900
C 	C 	0.73260 0.96900 0.45840 -0.13000
C 	C 	0.84900 0.96580 0.33200 -0.12100
C 	C 	0.84290 0.79630 0.32380 -0.12000
C 	C 	0.75430 0.79100 0.45320 -0.12500
C 	C 	0.62340 0.00090 0.32860 -0.12600
C 	C 	0.69760 0.88620 0.24190 -0.12700
C 	C 	0.62520 0.76080 0.32670 -0.13300
C 	C 	0.54610 0.87420 0.41540 -0.13600
Mo	Mo	0.79045 0.61916 0.86278 1.06300
Cu	Cu	0.79040 0.36067 0.06986 0.84500
N 	N 	0.75880 0.48066 0.00690 -0.18300
N 	N 	0.58160 0.48841 0.80880 -0.21000
N 	N 	0.59030 0.75040 0.79991 -0.21200
N 	N 	0.72400 0.76110 0.99771 -0.21100
N 	N 	0.92020 0.43601 0.80557 -0.17300
N 	N 	0.80130 0.61020 0.67815 -0.20600
N 	N 	0.91960 0.80230 0.80544 -0.17400
N 	N 	0.04370 0.63160 0.93813 -0.30000
C 	C 	0.76740 0.53100 0.95840 -0.13800
C 	C 	0.65100 0.53420 0.83200 -0.13700
C 	C 	0.65710 0.70370 0.82380 -0.13500
C 	C 	0.74570 0.70900 0.95320 -0.13200
C 	C 	0.87660 0.49910 0.82860 -0.11100
C 	C 	0.80240 0.61380 0.74190 -0.11600
C 	C 	0.87480 0.73920 0.82670 -0.11800
C 	C 	0.95390 0.62580 0.91540 -0.00200
Mo	Mo	0.29045 0.88084 0.13722 1.06700
Cu	Cu	0.29040 0.13933 0.93014 0.82800
N 	N 	0.25880 0.01934 0.99310 -0.20500
N 	N 	0.08160 0.01159 0.19120 -0.23000
N 	N 	0.09030 0.74960 0.20009 -0.23200
N 	N 	0.22400 0.73890 0.00229 -0.22000
N 	N 	0.42020 0.06399 0.19443 -0.20900
N 	N 	0.30130 0.88980 0.32185 -0.22300
N 	N 	0.41960 0.69770 0.19456 -0.21100
N 	N 	0.54370 0.86840 0.06187 -0.19700
C 	C 	0.26740 0.96900 0.04160 -0.14400
C 	C 	0.15100 0.96580 0.16800 -0.15600
C 	C 	0.15710 0.79630 0.17620 -0.15100
C 	C 	0.24570 0.79100 0.04680 -0.14700
C 	C 	0.37660 0.00090 0.17140 -0.12700
C 	C 	0.30240 0.88620 0.25810 -0.14000
C 	C 	0.37480 0.76080 0.17330 -0.13400
C 	C 	0.45390 0.87420 0.08460 -0.13400
Mo	Mo	0.20955 0.61916 0.63722 1.07200
Cu	Cu	0.20960 0.36067 0.43014 0.83100
N 	N 	0.24120 0.48066 0.49310 -0.19700
N 	N 	0.41840 0.48841 0.69120 -0.21000
N 	N 	0.40970 0.75040 0.70009 -0.21300
N 	N 	0.27600 0.76110 0.50229 -0.22200
N 	N 	0.07980 0.43601 0.69443 -0.22900
N 	N 	0.19870 0.61020 0.82185 -0.22700
N 	N 	0.08040 0.80230 0.69456 -0.23100
N 	N 	0.95630 0.63160 0.56187 -0.09800
C 	C 	0.23260 0.53100 0.54160 -0.14600
C 	C 	0.34900 0.53420 0.66800 -0.13700
C 	C 	0.34290 0.70370 0.67620 -0.13500
C 	C 	0.25430 0.70900 0.54680 -0.14300
C 	C 	0.12340 0.49910 0.67140 -0.14500
C 	C 	0.19760 0.61380 0.75810 -0.15000
C 	C 	0.12520 0.73920 0.67330 -0.15100
C 	C 	0.04610 0.62580 0.58460 -0.26500
Cu	Cu	0.00000 0.89666 0.75000 0.79400
Cu	Cu	0.00000 0.34278 0.75000 0.79700
Cu	Cu	0.50000 0.60334 0.25000 0.84300
Cu	Cu	0.50000 0.15722 0.25000 0.84600
Cu	Cu	0.00000 0.10334 0.25000 0.79600
Cu	Cu	0.00000 0.65722 0.25000 0.79900
Cu	Cu	0.50000 0.39666 0.75000 0.84200
Cu	Cu	0.50000 0.84278 0.75000 0.84600
