data_crystal

_cell_length_a 15.50800
_cell_length_b 16.24100
_cell_length_c 18.38300
_cell_angle_alpha 108.70900
_cell_angle_beta  104.27900
_cell_angle_gamma 107.16000

_symmetry_space_group_name_	'P 1'
_symmetry_space_group_name_H-M	'P 1'

loop_
_symmetry_equiv_pos_as_xyz
  x,y,z

loop_
_atom_site_label
_atom_site_type_symbol
_atom_site_fract_x
_atom_site_fract_y
_atom_site_fract_z
_atom_site_charge
Cu	Cu	0.51643 0.66948 0.91296 0.91600
O 	O 	0.63600 0.61580 0.00900 -0.27800
O 	O 	0.67290 0.73990 0.99150 -0.35200
O 	O 	0.45480 0.61230 0.06520 -0.25500
O 	O 	0.46530 0.71900 0.01510 -0.35200
O 	O 	0.42890 0.50570 0.87580 -0.27300
O 	O 	0.50310 0.54260 0.79430 -0.28300
O 	O 	0.53540 0.78670 0.86860 -0.31000
O 	O 	0.38520 0.67590 0.81580 -0.31300
O 	O 	0.24640 0.07660 0.47530 -0.15500
O 	O 	0.26370 0.79410 0.48830 -0.15400
O 	O 	0.37760 0.90430 0.39800 -0.16500
O 	O 	0.05670 0.87510 0.38160 -0.18000
C 	C 	0.69570 0.69320 0.02900 0.39900
C 	C 	0.79380 0.72690 0.08960 -0.22100
C 	C 	0.82060 0.67710 0.13250 0.17700
H 	H 	0.77430 0.61920 0.12310 -0.00300
C 	C 	0.91140 0.70940 0.18740 -0.26800
H 	H 	0.92420 0.67380 0.21630 0.13000
C 	C 	0.98250 0.78700 0.20280 0.20500
C 	C 	0.96130 0.83470 0.15330 -0.23500
H 	H 	0.01040 0.88710 0.15690 0.12000
C 	C 	0.86630 0.80240 0.09930 0.16300
H 	H 	0.85280 0.83570 0.06830 -0.00600
C 	C 	0.08590 0.81760 0.25590 -0.12200
C 	C 	0.14940 0.80380 0.21910 0.02600
H 	H 	0.12620 0.77510 0.16150 0.02900
C 	C 	0.24810 0.83020 0.26320 -0.09100
C 	C 	0.28200 0.87620 0.35060 0.13000
C 	C 	0.21430 0.88700 0.39120 -0.05000
C 	C 	0.11770 0.85850 0.34350 0.14900
C 	C 	0.02050 0.80840 0.41030 -0.18700
H 	H 	0.01640 0.74780 0.37550 0.09400
H 	H 	0.06310 0.82820 0.46610 0.09800
H 	H 	0.95680 0.80290 0.40920 0.09000
C 	C 	0.43820 0.99190 0.40280 -0.23600
H 	H 	0.50440 0.99830 0.41860 0.11400
H 	H 	0.41750 0.99340 0.34970 0.10700
H 	H 	0.43360 0.04340 0.44330 0.11200
C 	C 	0.30970 0.80470 0.22010 0.10700
C 	C 	0.36460 0.75450 0.24180 -0.13800
H 	H 	0.37170 0.74660 0.29050 0.09200
C 	C 	0.40830 0.71670 0.18880 0.05600
H 	H 	0.44160 0.68090 0.20170 0.03400
C 	C 	0.40340 0.73060 0.12060 -0.10700
C 	C 	0.35530 0.78410 0.09940 0.05600
H 	H 	0.35510 0.79620 0.05320 0.03100
C 	C 	0.30800 0.81920 0.14750 -0.14500
H 	H 	0.27390 0.85330 0.13210 0.08600
C 	C 	0.44890 0.68080 0.06130 0.37500
C 	C 	0.25690 0.93460 0.48310 -0.04000
C 	C 	0.27190 0.03130 0.52340 0.11900
C 	C 	0.31770 0.08080 0.60830 -0.08400
C 	C 	0.34320 0.02880 0.65270 -0.00400
H 	H 	0.37510 0.06140 0.71000 0.03800
C 	C 	0.32440 0.93550 0.61740 -0.08400
C 	C 	0.28390 0.89180 0.53160 0.11100
C 	C 	0.34540 0.77040 0.49480 -0.22800
H 	H 	0.33580 0.72490 0.44170 0.11100
H 	H 	0.40300 0.82670 0.51300 0.10700
H 	H 	0.35270 0.74340 0.53420 0.10900
C 	C 	0.16110 0.09900 0.48370 -0.27500
H 	H 	0.16060 0.14960 0.46760 0.12200
H 	H 	0.10170 0.04350 0.44870 0.13400
H 	H 	0.16640 0.11840 0.54030 0.12000
C 	C 	0.34630 0.18570 0.65550 0.11600
C 	C 	0.39210 0.24850 0.63160 -0.15500
H 	H 	0.40100 0.22770 0.58180 0.09600
C 	C 	0.42800 0.34870 0.68230 0.05000
H 	H 	0.46390 0.39310 0.66760 0.03100
C 	C 	0.40790 0.37860 0.75470 -0.10500
C 	C 	0.35870 0.31360 0.77500 0.06000
H 	H 	0.34520 0.33400 0.82260 0.04300
C 	C 	0.32590 0.21570 0.72790 -0.15100
H 	H 	0.29170 0.17170 0.74380 0.09000
C 	C 	0.44740 0.47740 0.81270 0.29100
C 	C 	0.35430 0.88800 0.67210 0.12000
C 	C 	0.44350 0.93270 0.73630 -0.17700
H 	H 	0.48520 0.99400 0.74850 0.09500
C 	C 	0.47000 0.88760 0.78100 0.08600
H 	H 	0.53180 0.91820 0.82260 0.02000
C 	C 	0.41310 0.80140 0.76980 -0.11400
C 	C 	0.32060 0.75680 0.70850 0.06300
H 	H 	0.27880 0.69730 0.70000 0.02700
C 	C 	0.29000 0.79950 0.66000 -0.15700
H 	H 	0.22730 0.76990 0.61970 0.09600
C 	C 	0.44370 0.74840 0.82160 0.30800
Cu	Cu	0.48357 0.33052 0.08704 0.91500
O 	O 	0.36400 0.38420 0.99100 -0.27900
O 	O 	0.32710 0.26010 0.00850 -0.35300
O 	O 	0.54520 0.38770 0.93480 -0.25600
O 	O 	0.53470 0.28100 0.98490 -0.35300
O 	O 	0.57110 0.49430 0.12420 -0.27400
O 	O 	0.49690 0.45740 0.20570 -0.28400
O 	O 	0.46460 0.21330 0.13140 -0.31100
O 	O 	0.61480 0.32410 0.18420 -0.31400
O 	O 	0.75360 0.92340 0.52470 -0.15600
O 	O 	0.73630 0.20590 0.51170 -0.15500
O 	O 	0.62240 0.09570 0.60200 -0.16600
O 	O 	0.94330 0.12490 0.61840 -0.18000
C 	C 	0.30430 0.30680 0.97100 0.39900
C 	C 	0.20620 0.27310 0.91040 -0.22100
C 	C 	0.17940 0.32290 0.86750 0.17700
H 	H 	0.22570 0.38080 0.87690 -0.00300
C 	C 	0.08860 0.29060 0.81260 -0.26800
H 	H 	0.07580 0.32620 0.78370 0.13000
C 	C 	0.01750 0.21300 0.79720 0.20500
C 	C 	0.03870 0.16530 0.84670 -0.23500
H 	H 	0.98960 0.11290 0.84310 0.12000
C 	C 	0.13370 0.19760 0.90070 0.16300
H 	H 	0.14720 0.16430 0.93170 -0.00600
C 	C 	0.91410 0.18240 0.74410 -0.12200
C 	C 	0.85060 0.19620 0.78090 0.02600
H 	H 	0.87380 0.22490 0.83850 0.02900
C 	C 	0.75190 0.16980 0.73680 -0.09100
C 	C 	0.71800 0.12380 0.64940 0.13000
C 	C 	0.78570 0.11300 0.60880 -0.05000
C 	C 	0.88230 0.14150 0.65650 0.14900
C 	C 	0.97950 0.19160 0.58970 -0.18700
H 	H 	0.98360 0.25220 0.62450 0.09400
H 	H 	0.93690 0.17180 0.53390 0.09800
H 	H 	0.04320 0.19710 0.59080 0.09000
C 	C 	0.56180 0.00810 0.59720 -0.23600
H 	H 	0.49560 0.00170 0.58140 0.11400
H 	H 	0.58250 0.00660 0.65030 0.10700
H 	H 	0.56640 0.95660 0.55670 0.11200
C 	C 	0.69030 0.19530 0.77990 0.10700
C 	C 	0.63540 0.24550 0.75820 -0.13800
H 	H 	0.62830 0.25340 0.70950 0.09200
C 	C 	0.59170 0.28330 0.81120 0.05600
H 	H 	0.55840 0.31910 0.79830 0.03400
C 	C 	0.59660 0.26940 0.87940 -0.10700
C 	C 	0.64470 0.21590 0.90060 0.05600
H 	H 	0.64490 0.20380 0.94680 0.03100
C 	C 	0.69200 0.18080 0.85250 -0.14500
H 	H 	0.72610 0.14670 0.86790 0.08600
C 	C 	0.55110 0.31920 0.93870 0.37500
C 	C 	0.74310 0.06540 0.51690 -0.04000
C 	C 	0.72810 0.96870 0.47660 0.11900
C 	C 	0.68230 0.91920 0.39170 -0.08400
C 	C 	0.65680 0.97120 0.34730 -0.00400
H 	H 	0.62490 0.93860 0.29000 0.03800
C 	C 	0.67560 0.06450 0.38260 -0.08400
C 	C 	0.71610 0.10820 0.46840 0.11100
C 	C 	0.65460 0.22960 0.50520 -0.22800
H 	H 	0.66420 0.27510 0.55830 0.11100
H 	H 	0.59700 0.17330 0.48700 0.10700
H 	H 	0.64730 0.25660 0.46580 0.10900
C 	C 	0.83890 0.90100 0.51630 -0.27500
H 	H 	0.83940 0.85040 0.53240 0.12200
H 	H 	0.89830 0.95650 0.55130 0.13400
H 	H 	0.83360 0.88160 0.45970 0.12000
C 	C 	0.65370 0.81430 0.34450 0.11600
C 	C 	0.60790 0.75150 0.36840 -0.15500
H 	H 	0.59900 0.77230 0.41820 0.09600
C 	C 	0.57200 0.65130 0.31770 0.05000
H 	H 	0.53610 0.60690 0.33240 0.03100
C 	C 	0.59210 0.62140 0.24530 -0.10500
C 	C 	0.64130 0.68640 0.22500 0.06000
H 	H 	0.65480 0.66600 0.17740 0.04300
C 	C 	0.67410 0.78430 0.27210 -0.15100
H 	H 	0.70830 0.82830 0.25620 0.09000
C 	C 	0.55260 0.52260 0.18730 0.29100
C 	C 	0.64570 0.11200 0.32790 0.12000
C 	C 	0.55650 0.06730 0.26370 -0.17700
H 	H 	0.51480 0.00600 0.25150 0.09500
C 	C 	0.53000 0.11240 0.21900 0.08600
H 	H 	0.46820 0.08180 0.17740 0.02000
C 	C 	0.58690 0.19860 0.23020 -0.11400
C 	C 	0.67940 0.24320 0.29150 0.06300
H 	H 	0.72120 0.30270 0.30000 0.02700
C 	C 	0.71000 0.20050 0.34000 -0.15700
H 	H 	0.77270 0.23010 0.38030 0.09600
C 	C 	0.55630 0.25160 0.17840 0.30800
