data_crystal

_cell_length_a 15.89000
_cell_length_b 18.59600
_cell_length_c 28.50000
_cell_angle_alpha 101.97900
_cell_angle_beta  94.41400
_cell_angle_gamma 108.93100

_symmetry_space_group_name_	'P 1'
_symmetry_space_group_name_H-M	'P 1'

loop_
_symmetry_equiv_pos_as_xyz
  x,y,z

loop_
_atom_site_label
_atom_site_type_symbol
_atom_site_fract_x
_atom_site_fract_y
_atom_site_fract_z
_atom_site_charge
Cd	Cd	0.38683 0.14532 0.23916 1.25700
Cd	Cd	0.04015 0.35104 0.26962 1.24800
C 	C 	0.89860 0.09630 0.21380 -0.09600
C 	C 	0.81610 0.08440 0.18770 0.04200
H 	H 	0.79830 0.12710 0.18680 0.03700
C 	C 	0.75910 0.00890 0.16260 -0.14100
H 	H 	0.70570 0.00230 0.14350 0.08400
C 	C 	0.78160 0.94400 0.16600 0.10600
C 	C 	0.85820 0.95650 0.19690 -0.14600
H 	H 	0.87080 0.91340 0.20270 0.09400
C 	C 	0.91800 0.03130 0.21990 0.05000
H 	H 	0.97090 0.03760 0.23930 0.03400
C 	C 	0.72910 0.86580 0.13310 -0.08000
C 	C 	0.71090 0.85920 0.08380 0.00400
H 	H 	0.72640 0.90520 0.07330 0.03400
C 	C 	0.67230 0.79060 0.04990 -0.08500
C 	C 	0.64820 0.71770 0.06470 0.12700
C 	C 	0.66520 0.72080 0.11430 -0.04600
C 	C 	0.70580 0.79370 0.14700 0.12200
C 	C 	0.66080 0.79100 0.99680 0.14500
C 	C 	0.61920 0.83860 0.98260 -0.20500
H 	H 	0.59050 0.86390 0.00400 0.10600
C 	C 	0.62060 0.84820 0.93560 0.13000
H 	H 	0.59250 0.88060 0.92580 0.00200
C 	C 	0.66120 0.81220 0.90410 -0.19800
C 	C 	0.70400 0.76500 0.91790 0.09900
H 	H 	0.73260 0.74070 0.89590 -0.01900
C 	C 	0.70530 0.75220 0.96620 -0.18300
H 	H 	0.73390 0.72040 0.97620 0.09900
C 	C 	0.66700 0.82000 0.85300 0.39900
C 	C 	0.64930 0.58980 0.02390 -0.23300
H 	H 	0.65710 0.57640 0.99050 0.10200
H 	H 	0.61190 0.54380 0.03240 0.11000
H 	H 	0.70700 0.61020 0.04430 0.11400
C 	C 	0.65930 0.81220 0.22300 -0.25400
H 	H 	0.67440 0.81210 0.25630 0.12000
H 	H 	0.60120 0.77310 0.20970 0.12100
H 	H 	0.65790 0.86290 0.22130 0.11300
C 	C 	0.42240 0.61770 0.09310 -0.23800
H 	H 	0.38050 0.64480 0.09180 0.11100
H 	H 	0.39120 0.56530 0.09570 0.10700
H 	H 	0.44930 0.61560 0.06410 0.11700
C 	C 	0.63720 0.64840 0.13360 -0.04200
C 	C 	0.55060 0.61890 0.14360 0.11000
C 	C 	0.52410 0.55530 0.16410 -0.07400
C 	C 	0.58950 0.51910 0.17350 -0.00900
H 	H 	0.57250 0.47450 0.18550 0.03900
C 	C 	0.67680 0.54970 0.16480 -0.08700
C 	C 	0.70070 0.61410 0.14520 0.11600
C 	C 	0.43280 0.52330 0.17790 0.10000
C 	C 	0.38520 0.44300 0.16450 -0.13900
H 	H 	0.40630 0.41030 0.14310 0.08500
C 	C 	0.30700 0.41080 0.18260 0.04700
H 	H 	0.27650 0.35690 0.17350 0.05100
C 	C 	0.39930 0.57190 0.20840 -0.13600
H 	H 	0.42850 0.62590 0.21500 0.08600
C 	C 	0.32480 0.54300 0.22910 0.03800
H 	H 	0.30660 0.57600 0.25200 0.03200
C 	C 	0.27410 0.45830 0.21410 -0.09200
C 	C 	0.20010 0.42800 0.23860 0.28100
C 	C 	0.74090 0.51120 0.18080 0.12500
C 	C 	0.74210 0.49380 0.22410 -0.18300
H 	H 	0.70020 0.50290 0.24340 0.09700
C 	C 	0.80040 0.46420 0.24060 0.07900
H 	H 	0.79870 0.45410 0.27120 0.02000
C 	C 	0.86560 0.44750 0.21290 -0.10600
C 	C 	0.86110 0.46270 0.16780 0.06700
H 	H 	0.90060 0.45090 0.14760 0.02600
C 	C 	0.80220 0.49390 0.15140 -0.16100
H 	H 	0.80220 0.50380 0.12070 0.09700
C 	C 	0.93450 0.41100 0.22970 0.32000
C 	C 	0.22790 0.06680 0.26840 0.28300
C 	C 	0.11260 0.08610 0.32060 0.07400
H 	H 	0.14100 0.14030 0.32880 0.03700
C 	C 	0.03940 0.05480 0.33920 -0.16100
H 	H 	0.01850 0.08760 0.36060 0.09200
C 	C 	0.99220 0.97250 0.32740 0.11400
C 	C 	0.02780 0.92640 0.29830 -0.16200
H 	H 	0.00000 0.87220 0.29170 0.09400
C 	C 	0.10170 0.95590 0.27880 0.06100
H 	H 	0.12350 0.92230 0.25850 0.02300
C 	C 	0.90370 0.94230 0.34390 -0.07600
C 	C 	0.84130 0.97830 0.33610 -0.01500
H 	H 	0.85920 0.02130 0.32270 0.04200
C 	C 	0.75150 0.95400 0.34740 -0.07600
C 	C 	0.72690 0.88650 0.36690 0.11900
C 	C 	0.79020 0.85060 0.37490 -0.04600
C 	C 	0.87220 0.87630 0.36400 0.11500
C 	C 	0.01340 0.87980 0.40720 -0.25400
H 	H 	0.06400 0.86830 0.39580 0.11400
H 	H 	0.00440 0.86480 0.43720 0.12200
H 	H 	0.02470 0.93500 0.41230 0.11400
C 	C 	0.69300 0.99270 0.33260 0.09900
C 	C 	0.68950 0.00950 0.28620 -0.14800
H 	H 	0.72710 0.99560 0.26550 0.08500
C 	C 	0.63360 0.04490 0.27080 0.06700
H 	H 	0.63630 0.05620 0.24060 0.02600
C 	C 	0.57150 0.06500 0.29910 -0.12800
C 	C 	0.57530 0.04960 0.34840 0.05300
H 	H 	0.53920 0.06470 0.36980 0.02700
C 	C 	0.63230 0.01300 0.36200 -0.13900
H 	H 	0.63090 0.00100 0.39210 0.09100
C 	C 	0.74170 0.68950 0.28070 -0.25800
H 	H 	0.71440 0.68010 0.24780 0.12300
H 	H 	0.75500 0.64430 0.28510 0.11500
H 	H 	0.79640 0.73420 0.28780 0.12100
C 	C 	0.80430 0.89990 0.49500 -0.20600
H 	H 	0.83770 0.95190 0.49270 0.09900
H 	H 	0.80570 0.89870 0.52860 0.09700
H 	H 	0.74310 0.88490 0.47990 0.10400
C 	C 	0.75750 0.77530 0.39440 -0.05400
C 	C 	0.70520 0.70590 0.36270 0.12000
C 	C 	0.68220 0.63480 0.37560 -0.08000
C 	C 	0.70970 0.63660 0.42410 0.00400
H 	H 	0.69400 0.59060 0.43470 0.03400
C 	C 	0.76070 0.70810 0.45610 -0.09400
C 	C 	0.79040 0.77840 0.43950 0.13700
C 	C 	0.79040 0.70540 0.50670 0.16200
C 	C 	0.74990 0.73460 0.54380 -0.20700
H 	H 	0.70940 0.75930 0.53750 0.10900
C 	C 	0.76970 0.72700 0.59040 0.13500
H 	H 	0.73950 0.74460 0.61440 -0.00000
C 	C 	0.82920 0.69580 0.60200 -0.19400
C 	C 	0.87240 0.67460 0.56760 0.12600
H 	H 	0.92180 0.66100 0.57630 0.00700
C 	C 	0.84880 0.67080 0.51700 -0.20700
H 	H 	0.87300 0.64560 0.49280 0.10800
C 	C 	0.85460 0.69130 0.65540 0.45700
C 	C 	0.62090 0.55820 0.34380 0.11100
C 	C 	0.54230 0.55060 0.31680 -0.15100
H 	H 	0.53110 0.59550 0.31350 0.09500
C 	C 	0.47780 0.47690 0.29370 0.06600
H 	H 	0.42240 0.47320 0.27810 0.02800
C 	C 	0.49690 0.40990 0.29430 -0.12600
C 	C 	0.58270 0.41740 0.31730 0.06800
H 	H 	0.59870 0.37310 0.31490 0.02200
C 	C 	0.64130 0.48770 0.34250 -0.15400
H 	H 	0.69550 0.49090 0.35930 0.08800
C 	C 	0.42740 0.32480 0.27030 0.41600
C 	C 	0.51010 0.09800 0.28180 0.34100
O 	O 	0.93760 0.41030 0.27480 -0.37800
O 	O 	0.97440 0.38610 0.20050 -0.34800
O 	O 	0.16530 0.46740 0.26630 -0.33700
O 	O 	0.16170 0.34840 0.22810 -0.29900
O 	O 	0.25660 0.14930 0.27180 -0.28700
O 	O 	0.27060 0.03250 0.24630 -0.35700
O 	O 	0.70370 0.78950 0.82470 -0.59000
O 	O 	0.62320 0.86900 0.84040 -0.39800
O 	O 	0.34590 0.32180 0.26470 -0.23600
O 	O 	0.45020 0.27200 0.26260 -0.45400
O 	O 	0.50040 0.09840 0.23880 -0.38700
O 	O 	0.45830 0.12340 0.30820 -0.34900
O 	O 	0.91430 0.66170 0.65880 -0.45700
O 	O 	0.81130 0.71360 0.68420 -0.51500
O 	O 	0.49070 0.65820 0.13430 -0.15800
O 	O 	0.78570 0.64530 0.13340 -0.16200
O 	O 	0.60660 0.64900 0.03080 -0.16800
O 	O 	0.72630 0.79490 0.19550 -0.16700
O 	O 	0.68070 0.70460 0.31300 -0.16000
O 	O 	0.84300 0.84760 0.47170 -0.16800
O 	O 	0.64250 0.85980 0.37890 -0.16200
O 	O 	0.93210 0.83580 0.37080 -0.15600
O 	O 	0.92940 0.23570 0.23910 -0.37000
C 	C 	0.95730 0.17890 0.23500 0.28200
O 	O 	0.04520 0.19200 0.24620 -0.23700
C 	C 	0.56690 0.82020 0.34020 -0.24100
H 	H 	0.51170 0.81340 0.35340 0.11200
H 	H 	0.56880 0.76990 0.32470 0.11700
H 	H 	0.56980 0.85110 0.31690 0.10800
C 	C 	0.85380 0.69170 0.17620 -0.25700
H 	H 	0.91130 0.71210 0.16610 0.11700
H 	H 	0.85740 0.65900 0.19770 0.11400
H 	H 	0.83710 0.73440 0.19270 0.12200
C 	C 	0.14750 0.03980 0.28920 -0.11100
Pr	Pr	0.80535 0.77110 0.76876 2.04400
Cd	Cd	0.61317 0.85468 0.76084 1.24500
Cd	Cd	0.95985 0.64896 0.73038 1.23900
C 	C 	0.10140 0.90370 0.78620 -0.17600
C 	C 	0.18390 0.91560 0.81230 0.08700
H 	H 	0.20170 0.87290 0.81320 0.01600
C 	C 	0.24090 0.99110 0.83740 -0.18100
H 	H 	0.29430 0.99770 0.85650 0.09600
C 	C 	0.21840 0.05600 0.83400 0.13200
C 	C 	0.14180 0.04350 0.80310 -0.18500
H 	H 	0.12920 0.08660 0.79730 0.10300
C 	C 	0.08200 0.96870 0.78010 0.08900
H 	H 	0.02910 0.96240 0.76070 -0.00700
C 	C 	0.27090 0.13420 0.86690 -0.08900
C 	C 	0.28910 0.14080 0.91620 0.00200
H 	H 	0.27360 0.09480 0.92670 0.03200
C 	C 	0.32770 0.20940 0.95010 -0.07400
C 	C 	0.35180 0.28230 0.93530 0.12300
C 	C 	0.33480 0.27920 0.88570 -0.04500
C 	C 	0.29420 0.20630 0.85300 0.12400
C 	C 	0.33920 0.20900 0.00320 0.10900
C 	C 	0.38080 0.16140 0.01740 -0.14700
H 	H 	0.40950 0.13610 0.99600 0.08500
C 	C 	0.37940 0.15180 0.06440 0.05400
H 	H 	0.40750 0.11940 0.07420 0.03100
C 	C 	0.33880 0.18780 0.09590 -0.09600
C 	C 	0.29600 0.23500 0.08210 0.03300
H 	H 	0.26740 0.25930 0.10410 0.03700
C 	C 	0.29470 0.24780 0.03380 -0.13100
H 	H 	0.26610 0.27960 0.02380 0.08500
C 	C 	0.33300 0.18000 0.14700 0.28200
C 	C 	0.35070 0.41020 0.97610 -0.24100
H 	H 	0.34290 0.42360 0.00950 0.10600
H 	H 	0.38810 0.45620 0.96760 0.11200
H 	H 	0.29300 0.38980 0.95570 0.11700
C 	C 	0.34070 0.18780 0.77700 -0.25300
H 	H 	0.32560 0.18790 0.74370 0.12000
H 	H 	0.39880 0.22690 0.79030 0.12100
H 	H 	0.34210 0.13710 0.77870 0.11300
C 	C 	0.57760 0.38230 0.90690 -0.23400
H 	H 	0.61950 0.35520 0.90820 0.10900
H 	H 	0.60880 0.43470 0.90430 0.10500
H 	H 	0.55070 0.38440 0.93590 0.11600
C 	C 	0.36280 0.35160 0.86640 -0.04700
C 	C 	0.44940 0.38110 0.85640 0.11800
C 	C 	0.47590 0.44470 0.83590 -0.09200
C 	C 	0.41050 0.48090 0.82650 0.00100
H 	H 	0.42750 0.52550 0.81450 0.03500
C 	C 	0.32320 0.45030 0.83520 -0.09300
C 	C 	0.29930 0.38590 0.85480 0.12000
C 	C 	0.56720 0.47670 0.82210 0.14100
C 	C 	0.61480 0.55700 0.83550 -0.20500
H 	H 	0.59370 0.58970 0.85690 0.10500
C 	C 	0.69300 0.58920 0.81740 0.13200
H 	H 	0.72350 0.64310 0.82650 -0.05100
C 	C 	0.60070 0.42810 0.79160 -0.18600
H 	H 	0.57150 0.37410 0.78500 0.10300
C 	C 	0.67520 0.45700 0.77090 0.09800
H 	H 	0.69340 0.42400 0.74800 0.01000
C 	C 	0.72590 0.54170 0.78590 -0.18500
C 	C 	0.79990 0.57200 0.76140 0.35600
C 	C 	0.25910 0.48880 0.81920 0.13000
C 	C 	0.25790 0.50620 0.77590 -0.18800
H 	H 	0.29980 0.49710 0.75660 0.09900
C 	C 	0.19960 0.53580 0.75940 0.08300
H 	H 	0.20130 0.54590 0.72880 0.01900
C 	C 	0.13440 0.55250 0.78710 -0.11100
C 	C 	0.13890 0.53730 0.83220 0.07200
H 	H 	0.09940 0.54910 0.85240 0.02200
C 	C 	0.19780 0.50610 0.84860 -0.16600
H 	H 	0.19780 0.49620 0.87930 0.09800
C 	C 	0.06550 0.58900 0.77030 0.32400
C 	C 	0.77210 0.93320 0.73160 0.32000
C 	C 	0.88740 0.91390 0.67940 0.11600
H 	H 	0.85900 0.85970 0.67120 -0.01200
C 	C 	0.96060 0.94520 0.66080 -0.20200
H 	H 	0.98150 0.91240 0.63940 0.10500
C 	C 	0.00780 0.02750 0.67260 0.14300
C 	C 	0.97220 0.07360 0.70170 -0.20100
H 	H 	-0.00000 0.12780 0.70830 0.10600
C 	C 	0.89830 0.04410 0.72120 0.10700
H 	H 	0.87650 0.07770 0.74150 0.00100
C 	C 	0.09630 0.05770 0.65610 -0.09100
C 	C 	0.15870 0.02170 0.66390 -0.00100
H 	H 	0.14080 0.97870 0.67730 0.03500
C 	C 	0.24850 0.04600 0.65260 -0.08500
C 	C 	0.27310 0.11350 0.63310 0.12400
C 	C 	0.20980 0.14940 0.62510 -0.05100
C 	C 	0.12780 0.12370 0.63600 0.12200
C 	C 	0.98660 0.12020 0.59280 -0.25200
H 	H 	0.93600 0.13170 0.60420 0.11500
H 	H 	0.99560 0.13520 0.56280 0.12300
H 	H 	0.97530 0.06500 0.58770 0.11400
C 	C 	0.30700 0.00730 0.66740 0.11200
C 	C 	0.31050 0.99050 0.71380 -0.16300
H 	H 	0.27290 0.00440 0.73450 0.09200
C 	C 	0.36640 0.95510 0.72920 0.07700
H 	H 	0.36370 0.94380 0.75940 0.02200
C 	C 	0.42850 0.93500 0.70090 -0.13400
C 	C 	0.42470 0.95040 0.65160 0.06000
H 	H 	0.46080 0.93530 0.63020 0.02400
C 	C 	0.36770 0.98700 0.63800 -0.15000
H 	H 	0.36910 0.99900 0.60790 0.09400
C 	C 	0.25830 0.31050 0.71930 -0.25700
H 	H 	0.28560 0.31990 0.75220 0.12300
H 	H 	0.24500 0.35570 0.71490 0.11500
H 	H 	0.20360 0.26580 0.71220 0.12100
C 	C 	0.19570 0.10010 0.50500 -0.20800
H 	H 	0.16230 0.04810 0.50730 0.10000
H 	H 	0.19430 0.10130 0.47140 0.09800
H 	H 	0.25690 0.11510 0.52010 0.10500
C 	C 	0.24250 0.22470 0.60560 -0.05200
C 	C 	0.29480 0.29410 0.63730 0.12000
C 	C 	0.31780 0.36520 0.62440 -0.08300
C 	C 	0.29030 0.36340 0.57590 0.00100
H 	H 	0.30600 0.40940 0.56530 0.03600
C 	C 	0.23930 0.29190 0.54390 -0.08300
C 	C 	0.20960 0.22160 0.56050 0.13200
C 	C 	0.20960 0.29460 0.49330 0.13300
C 	C 	0.25010 0.26540 0.45620 -0.16500
H 	H 	0.29060 0.24070 0.46250 0.09400
C 	C 	0.23030 0.27300 0.40960 0.07700
H 	H 	0.26050 0.25540 0.38560 0.02700
C 	C 	0.17080 0.30420 0.39800 -0.12600
C 	C 	0.12760 0.32540 0.43240 0.07400
H 	H 	0.07820 0.33900 0.42370 0.02400
C 	C 	0.15120 0.32920 0.48300 -0.16900
H 	H 	0.12700 0.35440 0.50720 0.09500
C 	C 	0.14540 0.30870 0.34460 0.35500
C 	C 	0.37910 0.44180 0.65620 0.12400
C 	C 	0.45770 0.44940 0.68320 -0.17200
H 	H 	0.46890 0.40450 0.68650 0.10200
C 	C 	0.52220 0.52310 0.70630 0.09600
H 	H 	0.57760 0.52680 0.72190 0.01200
C 	C 	0.50310 0.59010 0.70570 -0.16700
C 	C 	0.41730 0.58260 0.68270 0.09600
H 	H 	0.40130 0.62690 0.68510 0.01200
C 	C 	0.35870 0.51230 0.65750 -0.17400
H 	H 	0.30450 0.50910 0.64070 0.09500
C 	C 	0.57260 0.67520 0.72970 0.50200
C 	C 	0.48990 0.90200 0.71820 0.34400
O 	O 	0.06240 0.58970 0.72520 -0.37900
O 	O 	0.02560 0.61390 0.79950 -0.36000
O 	O 	0.83470 0.53260 0.73370 -0.36300
O 	O 	0.83830 0.65160 0.77190 -0.56800
O 	O 	0.74340 0.85070 0.72820 -0.54500
O 	O 	0.72940 0.96750 0.75370 -0.39000
O 	O 	0.29630 0.21050 0.17530 -0.26800
O 	O 	0.37680 0.13100 0.15960 -0.35200
O 	O 	0.65410 0.67820 0.73530 -0.50000
O 	O 	0.54980 0.72800 0.73740 -0.50900
O 	O 	0.49960 0.90160 0.76120 -0.38800
O 	O 	0.54170 0.87660 0.69180 -0.34900
O 	O 	0.08570 0.33830 0.34120 -0.41400
O 	O 	0.18870 0.28640 0.31580 -0.24800
O 	O 	0.50930 0.34180 0.86570 -0.16100
O 	O 	0.21430 0.35470 0.86660 -0.16500
O 	O 	0.39340 0.35100 0.96920 -0.16600
O 	O 	0.27370 0.20510 0.80450 -0.16800
O 	O 	0.31930 0.29540 0.68700 -0.16000
O 	O 	0.15700 0.15240 0.52830 -0.16600
O 	O 	0.35750 0.14020 0.62110 -0.16300
O 	O 	0.06790 0.16420 0.62920 -0.15800
O 	O 	0.07060 0.76430 0.76090 -0.40900
C 	C 	0.04270 0.82110 0.76500 0.35900
O 	O 	0.95480 0.80800 0.75380 -0.55100
C 	C 	0.43310 0.17980 0.65980 -0.24000
H 	H 	0.48830 0.18660 0.64660 0.11100
H 	H 	0.43120 0.23010 0.67530 0.11600
H 	H 	0.43020 0.14890 0.68310 0.10800
C 	C 	0.14620 0.30830 0.82380 -0.25200
H 	H 	0.08870 0.28790 0.83390 0.11400
H 	H 	0.14260 0.34100 0.80230 0.11200
H 	H 	0.16290 0.26560 0.80730 0.11900
C 	C 	0.85250 0.96020 0.71080 -0.19300
