data_crystal

_cell_length_a 15.81300
_cell_length_b 18.21300
_cell_length_c 27.96100
_cell_angle_alpha 104.73600
_cell_angle_beta  91.53800
_cell_angle_gamma 107.95500

_symmetry_space_group_name_	'P 1'
_symmetry_space_group_name_H-M	'P 1'

loop_
_symmetry_equiv_pos_as_xyz
  x,y,z

loop_
_atom_site_label
_atom_site_type_symbol
_atom_site_fract_x
_atom_site_fract_y
_atom_site_fract_z
_atom_site_charge
Cd	Cd	0.35875 0.14671 0.74135 1.24300
Cd	Cd	0.16982 0.23356 0.73177 1.22700
Cd	Cd	0.02269 0.36610 0.78257 1.24400
O 	O 	0.31490 0.32690 0.76580 -0.38800
O 	O 	0.42370 0.27570 0.76520 -0.43600
O 	O 	0.83560 0.70190 0.18460 -0.48700
O 	O 	0.93320 0.64600 0.14670 -0.46600
O 	O 	0.24300 0.03280 0.74710 -0.36300
O 	O 	0.22390 0.15540 0.77570 -0.44500
O 	O 	0.47450 0.10130 0.74300 -0.37400
O 	O 	0.42590 0.12970 0.81650 -0.34700
O 	O 	0.63930 0.71590 0.82350 -0.16400
O 	O 	0.82400 0.85490 0.97850 -0.16600
O 	O 	0.61330 0.87280 0.88960 -0.15200
O 	O 	0.90100 0.84290 0.87630 -0.16200
O 	O 	0.47360 0.66220 0.63650 -0.16100
O 	O 	0.77010 0.64890 0.63770 -0.16500
O 	O 	0.59710 0.65080 0.53120 -0.16700
O 	O 	0.69550 0.80420 0.70180 -0.16900
O 	O 	0.14970 0.47630 0.77560 -0.39400
O 	O 	0.13810 0.35560 0.73202 -0.49200
O 	O 	0.91540 0.42730 0.78780 -0.37300
O 	O 	0.96580 0.40420 0.71400 -0.33500
O 	O 	0.02060 0.19570 0.74890 -0.45200
O 	O 	0.91170 0.24760 0.75010 -0.40800
O 	O 	0.72850 0.78870 0.32470 -0.57600
O 	O 	0.64920 0.87270 0.34030 -0.44700
C 	C 	0.39580 0.33440 0.77480 0.41000
C 	C 	0.46110 0.41520 0.79930 -0.15900
C 	C 	0.54450 0.42150 0.81990 0.08800
H 	H 	0.56010 0.37520 0.81590 0.01700
C 	C 	0.60530 0.49480 0.84610 -0.16800
H 	H 	0.66000 0.49660 0.86030 0.09300
C 	C 	0.58590 0.56710 0.85190 0.12000
C 	C 	0.50080 0.55930 0.82820 -0.15900
H 	H 	0.48650 0.60540 0.82870 0.09700
C 	C 	0.43980 0.48550 0.80480 0.08800
H 	H 	0.38320 0.48230 0.79240 0.01800
C 	C 	0.64630 0.64300 0.88390 -0.09500
C 	C 	0.68230 0.64410 0.92870 0.02600
H 	H 	0.66730 0.59650 0.93800 0.02700
C 	C 	0.74070 0.71340 0.96150 -0.11800
C 	C 	0.76210 0.78430 0.94710 0.14200
C 	C 	0.72940 0.78470 0.90210 -0.06000
C 	C 	0.67380 0.71560 0.87070 0.13200
C 	C 	0.77630 0.70910 0.01130 0.20700
C 	C 	0.73480 0.72060 0.05330 -0.29300
H 	H 	0.68340 0.73530 0.05310 0.13800
C 	C 	0.76830 0.71040 0.09560 0.23900
H 	H 	0.73780 0.71840 0.12340 -0.03600
C 	C 	0.83980 0.69050 0.10030 -0.28700
C 	C 	0.88680 0.68590 0.06150 0.18700
H 	H 	0.94190 0.67830 0.06470 -0.02000
C 	C 	0.85470 0.69240 0.01520 -0.25100
H 	H 	0.88660 0.68540 0.98790 0.12600
C 	C 	0.87230 0.67460 0.14510 0.46600
C 	C 	0.69620 0.69950 0.78540 -0.26000
H 	H 	0.66860 0.69720 0.75380 0.12500
H 	H 	0.70470 0.64900 0.78380 0.11600
H 	H 	0.75310 0.74140 0.79330 0.12200
C 	C 	0.79460 0.90180 0.01840 -0.21300
H 	H 	0.82510 0.95770 0.02190 0.09900
H 	H 	0.80750 0.88920 0.04850 0.10300
H 	H 	0.73130 0.89060 0.01210 0.10400
C 	C 	0.75830 0.85880 0.88400 -0.03500
C 	C 	0.84750 0.88650 0.87170 0.12000
C 	C 	0.87360 0.95350 0.85270 -0.07800
C 	C 	0.81290 0.99050 0.84700 -0.00000
H 	H 	0.83160 0.03610 0.83560 0.03500
C 	C 	0.72450 0.96480 0.85710 -0.08700
C 	C 	0.70150 0.90070 0.87740 0.11600
C 	C 	0.98320 0.88570 0.91080 -0.24300
H 	H 	0.01490 0.84920 0.91270 0.11300
H 	H 	0.96810 0.90740 0.94320 0.12000
H 	H 	0.02030 0.92860 0.89900 0.10900
C 	C 	0.53500 0.82890 0.84920 -0.27800
H 	H 	0.48310 0.80430 0.86370 0.12400
H 	H 	0.54940 0.78820 0.82480 0.13000
H 	H 	0.52290 0.86630 0.83350 0.12000
C 	C 	0.96350 0.98180 0.83430 0.09500
C 	C 	0.99450 0.92940 0.79990 -0.13800
H 	H 	0.96390 0.87450 0.79090 0.08500
C 	C 	0.07200 0.95980 0.77890 0.03600
H 	H 	0.09400 0.92490 0.75640 0.02800
C 	C 	0.11680 0.04250 0.79130 -0.10200
C 	C 	0.08460 0.09430 0.82740 0.03700
H 	H 	0.11500 0.14930 0.83690 0.03500
C 	C 	0.00920 0.06390 0.84840 -0.13500
H 	H 	0.98840 0.09820 0.87210 0.08100
C 	C 	0.19960 0.07530 0.76960 0.27000
C 	C 	0.66150 0.00590 0.84350 0.13500
C 	C 	0.66640 0.02150 0.79790 -0.17700
H 	H 	0.70990 0.00960 0.77850 0.09800
C 	C 	0.60940 0.05380 0.78020 0.07500
H 	H 	0.61330 0.06300 0.74900 0.02300
C 	C 	0.54470 0.07310 0.80950 -0.11700
C 	C 	0.54230 0.06120 0.85550 0.06600
H 	H 	0.50180 0.07610 0.87610 0.02300
C 	C 	0.60230 0.02540 0.87220 -0.17300
H 	H 	0.59960 0.01590 0.90340 0.10300
C 	C 	0.47680 0.10460 0.78970 0.31300
C 	C 	0.17420 0.43210 0.74480 0.39900
C 	C 	0.25620 0.46720 0.71870 -0.17100
C 	C 	0.28680 0.41910 0.68590 0.12600
H 	H 	0.25470 0.36450 0.67600 -0.01700
C 	C 	0.36550 0.44680 0.66550 -0.19400
H 	H 	0.38470 0.41160 0.64150 0.10300
C 	C 	0.41580 0.52920 0.68180 0.13700
C 	C 	0.37930 0.58000 0.71370 -0.18400
H 	H 	0.40800 0.63530 0.72200 0.10200
C 	C 	0.30180 0.55000 0.73310 0.10200
H 	H 	0.27950 0.58450 0.75580 0.01100
C 	C 	0.50490 0.55860 0.66650 -0.09100
C 	C 	0.56880 0.52490 0.67660 -0.00300
H 	H 	0.55110 0.48020 0.68880 0.03800
C 	C 	0.65960 0.55580 0.66900 -0.08500
C 	C 	0.68260 0.61770 0.64760 0.11500
C 	C 	0.62160 0.65450 0.63630 -0.04500
C 	C 	0.53350 0.62340 0.64550 0.11700
C 	C 	0.40680 0.61830 0.59340 -0.24100
H 	H 	0.37060 0.65040 0.58900 0.11100
H 	H 	0.36950 0.56890 0.59850 0.10700
H 	H 	0.43640 0.60680 0.56420 0.11600
C 	C 	0.83340 0.69890 0.67880 -0.22500
H 	H 	0.89230 0.71140 0.66830 0.10500
H 	H 	0.83100 0.67150 0.70410 0.10400
H 	H 	0.82000 0.74760 0.69180 0.11100
C 	C 	0.72180 0.51850 0.68510 0.10300
C 	C 	0.71650 0.50320 0.73190 -0.14100
H 	H 	0.67080 0.51140 0.75050 0.08300
C 	C 	0.78110 0.47500 0.75050 0.04400
H 	H 	0.77910 0.46750 0.78220 0.03200
C 	C 	0.84600 0.45890 0.72290 -0.09300
C 	C 	0.85130 0.47040 0.67470 0.03400
H 	H 	0.89490 0.45880 0.65530 0.03500
C 	C 	0.78600 0.50110 0.65700 -0.13300
H 	H 	0.78780 0.50910 0.62540 0.08700
C 	C 	0.91290 0.42800 0.74320 0.30300
C 	C 	0.64970 0.72640 0.61750 -0.05000
C 	C 	0.68650 0.80160 0.65150 0.12700
C 	C 	0.71130 0.87250 0.63740 -0.09600
C 	C 	0.69700 0.86510 0.58740 0.01500
H 	H 	0.71130 0.91200 0.57740 0.02600
C 	C 	0.66300 0.79320 0.55140 -0.09800
C 	C 	0.64000 0.72290 0.56780 0.12800
C 	C 	0.62440 0.82260 0.72850 -0.24700
H 	H 	0.63690 0.82720 0.76320 0.11400
H 	H 	0.56880 0.78050 0.71530 0.11800
H 	H 	0.62010 0.87250 0.72500 0.11300
C 	C 	0.63680 0.58950 0.52530 -0.21700
H 	H 	0.62680 0.55890 0.49100 0.09700
H 	H 	0.61060 0.55490 0.54550 0.10600
H 	H 	0.70000 0.61340 0.53550 0.10400
C 	C 	0.76130 0.95350 0.67100 0.13000
C 	C 	0.83500 0.96560 0.70450 -0.18200
H 	H 	0.84400 0.92160 0.71210 0.10300
C 	C 	0.89380 0.04040 0.72600 0.09300
H 	H 	0.94710 0.04630 0.74380 0.00400
C 	C 	0.87450 0.10830 0.72150 -0.17100
C 	C 	0.79580 0.09760 0.69240 0.08900
H 	H 	0.78000 0.14200 0.69040 0.01500
C 	C 	0.74130 0.02060 0.66650 -0.17900
H 	H 	0.69090 0.01410 0.64590 0.09600
C 	C 	0.93990 0.18910 0.74100 0.39100
C 	C 	0.65860 0.79370 0.49870 0.15600
C 	C 	0.70540 0.75270 0.46500 -0.21400
H 	H 	0.73050 0.71780 0.47430 0.10700
C 	C 	0.71350 0.76440 0.41930 0.13900
H 	H 	0.74610 0.73850 0.39800 -0.03100
C 	C 	0.67460 0.81420 0.40290 -0.21500
C 	C 	0.62590 0.85170 0.43530 0.13000
H 	H 	0.59710 0.88340 0.42490 -0.00000
C 	C 	0.61950 0.84290 0.48260 -0.20900
H 	H 	0.58860 0.87040 0.50400 0.10600
C 	C 	0.68560 0.82690 0.35270 0.44200
Sm	Sm	0.83018 0.76644 0.26823 1.94000
Cd	Cd	0.64125 0.85329 0.25865 1.23800
Cd	Cd	0.97731 0.63390 0.21743 1.23900
O 	O 	0.68510 0.67310 0.23420 -0.48200
O 	O 	0.57630 0.72430 0.23480 -0.45900
O 	O 	0.16440 0.29810 0.81540 -0.38900
O 	O 	0.06680 0.35400 0.85330 -0.44300
O 	O 	0.75700 0.96720 0.25290 -0.38300
O 	O 	0.77610 0.84460 0.22430 -0.53300
O 	O 	0.52550 0.89870 0.25700 -0.37400
O 	O 	0.57410 0.87030 0.18350 -0.34900
O 	O 	0.36070 0.28410 0.17650 -0.16400
O 	O 	0.17600 0.14510 0.02150 -0.16300
O 	O 	0.38670 0.12720 0.11040 -0.15300
O 	O 	0.09900 0.15710 0.12370 -0.16500
O 	O 	0.52640 0.33780 0.36350 -0.16300
O 	O 	0.22990 0.35110 0.36230 -0.16600
O 	O 	0.40290 0.34920 0.46880 -0.16500
O 	O 	0.30450 0.19580 0.29820 -0.17000
O 	O 	0.85030 0.52370 0.22440 -0.41700
O 	O 	0.86190 0.64440 0.26798 -0.58900
O 	O 	0.08460 0.57270 0.21220 -0.37300
O 	O 	0.03420 0.59580 0.28600 -0.34000
O 	O 	0.97940 0.80430 0.25110 -0.56900
O 	O 	0.08830 0.75240 0.24990 -0.43300
O 	O 	0.27150 0.21130 0.67530 -0.45800
O 	O 	0.35080 0.12730 0.65970 -0.42000
C 	C 	0.60420 0.66560 0.22520 0.46300
C 	C 	0.53890 0.58480 0.20070 -0.19200
C 	C 	0.45550 0.57850 0.18010 0.10800
H 	H 	0.43990 0.62480 0.18410 0.00900
C 	C 	0.39470 0.50520 0.15390 -0.18300
H 	H 	0.34000 0.50340 0.13970 0.09800
C 	C 	0.41410 0.43290 0.14810 0.13000
C 	C 	0.49920 0.44070 0.17180 -0.17600
H 	H 	0.51350 0.39460 0.17130 0.10300
C 	C 	0.56020 0.51450 0.19520 0.11200
H 	H 	0.61680 0.51770 0.20760 0.00600
C 	C 	0.35370 0.35700 0.11610 -0.09700
C 	C 	0.31770 0.35590 0.07130 0.02200
H 	H 	0.33270 0.40350 0.06200 0.02800
C 	C 	0.25930 0.28660 0.03850 -0.10800
C 	C 	0.23790 0.21570 0.05290 0.13800
C 	C 	0.27060 0.21530 0.09790 -0.05700
C 	C 	0.32620 0.28440 0.12930 0.13100
C 	C 	0.22370 0.29090 0.98870 0.18100
C 	C 	0.26520 0.27940 0.94670 -0.25100
H 	H 	0.31660 0.26470 0.94690 0.12400
C 	C 	0.23170 0.28960 0.90440 0.18400
H 	H 	0.26220 0.28160 0.87660 -0.01200
C 	C 	0.16020 0.30950 0.89970 -0.23200
C 	C 	0.11320 0.31410 0.93850 0.14800
H 	H 	0.05810 0.32170 0.93530 -0.00600
C 	C 	0.14530 0.30760 0.98480 -0.22100
H 	H 	0.11340 0.31460 0.01210 0.11600
C 	C 	0.12770 0.32540 0.85490 0.40500
C 	C 	0.30380 0.30050 0.21460 -0.26000
H 	H 	0.33140 0.30280 0.24620 0.12500
H 	H 	0.29530 0.35100 0.21620 0.11600
H 	H 	0.24690 0.25860 0.20670 0.12200
C 	C 	0.20540 0.09820 0.98160 -0.21600
H 	H 	0.17490 0.04230 0.97810 0.10100
H 	H 	0.19250 0.11080 0.95150 0.10400
H 	H 	0.26870 0.10940 0.98790 0.10500
C 	C 	0.24170 0.14120 0.11600 -0.03800
C 	C 	0.15250 0.11350 0.12830 0.12500
C 	C 	0.12640 0.04650 0.14730 -0.08800
C 	C 	0.18710 0.00950 0.15300 0.00800
H 	H 	0.16840 0.96390 0.16440 0.03100
C 	C 	0.27550 0.03520 0.14290 -0.09000
C 	C 	0.29850 0.09930 0.12260 0.11800
C 	C 	0.01680 0.11430 0.08920 -0.22900
H 	H 	0.98510 0.15080 0.08730 0.10800
H 	H 	0.03190 0.09260 0.05680 0.11700
H 	H 	0.97970 0.07140 0.10100 0.10400
C 	C 	0.46500 0.17110 0.15080 -0.27700
H 	H 	0.51690 0.19570 0.13630 0.12400
H 	H 	0.45060 0.21180 0.17520 0.13000
H 	H 	0.47710 0.13370 0.16650 0.12000
C 	C 	0.03650 0.01820 0.16570 0.11800
C 	C 	0.00550 0.07060 0.20010 -0.16000
H 	H 	0.03610 0.12550 0.20910 0.09200
C 	C 	0.92800 0.04020 0.22110 0.05800
H 	H 	0.90600 0.07510 0.24360 0.01700
C 	C 	0.88320 0.95750 0.20870 -0.14200
C 	C 	0.91540 0.90570 0.17260 0.07400
H 	H 	0.88500 0.85070 0.16310 0.01100
C 	C 	0.99080 0.93610 0.15160 -0.17100
H 	H 	0.01160 0.90180 0.12790 0.09300
C 	C 	0.80040 0.92470 0.23040 0.30300
C 	C 	0.33850 0.99410 0.15650 0.13500
C 	C 	0.33360 0.97850 0.20210 -0.17800
H 	H 	0.29010 0.99040 0.22150 0.09800
C 	C 	0.39060 0.94620 0.21980 0.07500
H 	H 	0.38670 0.93700 0.25100 0.02300
C 	C 	0.45530 0.92690 0.19050 -0.11800
C 	C 	0.45770 0.93880 0.14450 0.06700
H 	H 	0.49820 0.92390 0.12390 0.02300
C 	C 	0.39770 0.97460 0.12780 -0.17400
H 	H 	0.40040 0.98410 0.09660 0.10300
C 	C 	0.52320 0.89540 0.21030 0.31300
C 	C 	0.82580 0.56790 0.25520 0.45600
C 	C 	0.74380 0.53280 0.28130 -0.22800
C 	C 	0.71320 0.58090 0.31410 0.18900
H 	H 	0.74530 0.63550 0.32400 -0.06100
C 	C 	0.63450 0.55320 0.33450 -0.24000
H 	H 	0.61530 0.58840 0.35850 0.11600
C 	C 	0.58420 0.47080 0.31820 0.16500
C 	C 	0.62070 0.42000 0.28630 -0.21800
H 	H 	0.59200 0.36470 0.27800 0.11300
C 	C 	0.69820 0.45000 0.26690 0.14100
H 	H 	0.72050 0.41550 0.24420 -0.00400
C 	C 	0.49510 0.44140 0.33350 -0.10300
C 	C 	0.43120 0.47510 0.32340 0.00400
H 	H 	0.44890 0.51980 0.31120 0.03400
C 	C 	0.34040 0.44420 0.33100 -0.08900
C 	C 	0.31740 0.38230 0.35240 0.11800
C 	C 	0.37840 0.34550 0.36370 -0.04800
C 	C 	0.46650 0.37660 0.35450 0.12200
C 	C 	0.59320 0.38170 0.40660 -0.23800
H 	H 	0.62940 0.34960 0.41100 0.11000
H 	H 	0.63050 0.43110 0.40150 0.10600
H 	H 	0.56360 0.39320 0.43580 0.11500
C 	C 	0.16660 0.30110 0.32120 -0.22300
H 	H 	0.10770 0.28860 0.33170 0.10400
H 	H 	0.16900 0.32850 0.29590 0.10400
H 	H 	0.18000 0.25240 0.30820 0.11000
C 	C 	0.27820 0.48150 0.31490 0.10500
C 	C 	0.28350 0.49680 0.26810 -0.14300
H 	H 	0.32920 0.48860 0.24950 0.08300
C 	C 	0.21890 0.52500 0.24950 0.04600
H 	H 	0.22090 0.53250 0.21780 0.03200
C 	C 	0.15400 0.54110 0.27710 -0.09500
C 	C 	0.14870 0.52960 0.32530 0.03500
H 	H 	0.10510 0.54120 0.34470 0.03400
C 	C 	0.21400 0.49890 0.34300 -0.13500
H 	H 	0.21220 0.49090 0.37460 0.08800
C 	C 	0.08710 0.57200 0.25680 0.30500
C 	C 	0.35030 0.27360 0.38250 -0.04900
C 	C 	0.31350 0.19840 0.34850 0.12900
C 	C 	0.28870 0.12750 0.36260 -0.10200
C 	C 	0.30300 0.13490 0.41260 0.01400
H 	H 	0.28870 0.08800 0.42260 0.02600
C 	C 	0.33700 0.20680 0.44860 -0.09100
C 	C 	0.36000 0.27710 0.43220 0.12500
C 	C 	0.37560 0.17740 0.27150 -0.24600
H 	H 	0.36310 0.17280 0.23680 0.11400
H 	H 	0.43120 0.21950 0.28470 0.11700
H 	H 	0.37990 0.12750 0.27500 0.11300
C 	C 	0.36320 0.41050 0.47470 -0.21900
H 	H 	0.37320 0.44110 0.50900 0.09800
H 	H 	0.38940 0.44510 0.45450 0.10600
H 	H 	0.30000 0.38660 0.46450 0.10500
C 	C 	0.23870 0.04650 0.32900 0.14700
C 	C 	0.16500 0.03440 0.29550 -0.20900
H 	H 	0.15600 0.07840 0.28790 0.11100
C 	C 	0.10620 0.95960 0.27400 0.12600
H 	H 	0.05290 0.95370 0.25620 -0.01800
C 	C 	0.12550 0.89170 0.27850 -0.21700
C 	C 	0.20420 0.90240 0.30760 0.11500
H 	H 	0.22000 0.85800 0.30960 0.00300
C 	C 	0.25870 0.97940 0.33350 -0.20300
H 	H 	0.30910 0.98590 0.35410 0.10300
C 	C 	0.06010 0.81090 0.25900 0.45400
C 	C 	0.34140 0.20630 0.50130 0.13700
C 	C 	0.29460 0.24730 0.53500 -0.18200
H 	H 	0.26950 0.28220 0.52570 0.09800
C 	C 	0.28650 0.23560 0.58070 0.10000
H 	H 	0.25390 0.26150 0.60200 -0.00500
C 	C 	0.32540 0.18580 0.59710 -0.16700
C 	C 	0.37410 0.14830 0.56470 0.09900
H 	H 	0.40290 0.11660 0.57510 0.01200
C 	C 	0.38050 0.15710 0.51740 -0.18400
H 	H 	0.41140 0.12960 0.49600 0.09700
C 	C 	0.31440 0.17310 0.64730 0.38000
