data_crystal

_cell_length_a 15.11600
_cell_length_b 15.39300
_cell_length_c 18.22500
_cell_angle_alpha 105.73200
_cell_angle_beta  106.55300
_cell_angle_gamma 104.40500

_symmetry_space_group_name_	'P 1'
_symmetry_space_group_name_H-M	'P 1'

loop_
_symmetry_equiv_pos_as_xyz
  x,y,z

loop_
_atom_site_label
_atom_site_type_symbol
_atom_site_fract_x
_atom_site_fract_y
_atom_site_fract_z
_atom_site_charge
Zn	Zn	0.19169 0.02708 0.93006 1.24800
O 	O 	0.62490 0.77470 0.47200 -0.16300
O 	O 	0.08380 0.04080 0.80530 -0.32200
O 	O 	0.42290 0.56700 0.37940 -0.16000
O 	O 	0.31050 0.75270 0.48260 -0.16500
O 	O 	0.04350 0.96880 0.88590 -0.36500
O 	O 	0.42480 0.88350 0.39610 -0.15700
O 	O 	0.23460 0.16330 0.99530 -0.42000
O 	O 	0.12010 0.95470 0.06190 -0.23000
O 	O 	0.24290 0.97540 0.01410 -0.42600
O 	O 	0.10890 0.14430 0.04290 -0.23500
O 	O 	0.27850 0.01010 0.87060 -0.41600
C 	C 	0.46880 0.76690 0.48130 -0.05200
O 	O 	0.16590 0.86270 0.81410 -0.29900
C 	C 	0.34760 0.66110 0.21760 -0.00200
H 	H 	0.32280 0.63920 0.16040 0.03800
C 	C 	0.40360 0.78480 0.34580 0.11700
C 	C 	0.61160 0.82680 0.60380 -0.08100
C 	C 	0.57090 0.78890 0.51970 0.12700
C 	C 	0.33740 0.81710 0.21680 0.11500
C 	C 	0.02100 0.98790 0.81930 0.31900
C 	C 	0.25400 0.91210 0.11920 -0.11500
C 	C 	0.32300 0.49230 0.20220 0.11100
C 	C 	0.42300 0.72380 0.38670 -0.04400
C 	C 	0.45000 0.82090 0.61050 -0.09000
C 	C 	0.91640 0.93940 0.75960 -0.10000
C 	C 	0.40200 0.62990 0.34160 0.12400
C 	C 	0.41070 0.78040 0.52550 0.12300
C 	C 	0.36180 0.59630 0.25470 -0.07400
C 	C 	0.75320 0.83560 0.72130 -0.14500
H 	H 	0.70810 0.79080 0.73060 0.08700
C 	C 	0.79120 0.92860 0.63680 -0.14000
H 	H 	0.77190 0.94670 0.59180 0.08600
C 	C 	0.43770 0.93520 0.72820 -0.15900
H 	H 	0.49920 0.97780 0.73780 0.09000
C 	C 	0.23750 0.29890 0.09760 -0.08900
C 	C 	0.85000 0.87570 0.77310 0.05700
H 	H 	0.87050 0.85870 0.81870 0.05100
C 	C 	0.72320 0.86320 0.65390 0.09900
C 	C 	0.38720 0.96060 0.77870 0.06900
H 	H 	0.41420 0.02110 0.82070 0.02700
C 	C 	0.24870 0.42820 0.21260 -0.13400
H 	H 	0.22790 0.44860 0.25550 0.08600
C 	C 	0.18700 0.19170 0.03970 0.31000
C 	C 	0.55350 0.84340 0.64800 -0.00200
H 	H 	0.58310 0.87070 0.70510 0.03800
C 	C 	0.20610 0.33250 0.15700 0.04300
H 	H 	0.15370 0.29060 0.16170 0.03600
C 	C 	0.35500 0.46050 0.14150 -0.13700
H 	H 	0.40350 0.50350 0.13360 0.08500
C 	C 	0.29740 0.89690 0.76720 -0.12100
C 	C 	0.35790 0.81880 0.14960 -0.14900
H 	H 	0.39810 0.78620 0.13470 0.08800
C 	C 	0.39650 0.84580 0.66280 0.11500
C 	C 	0.36900 0.75850 0.26210 -0.08200
C 	C 	0.27630 0.86750 0.23720 -0.14300
H 	H 	0.26390 0.87050 0.28480 0.09300
C 	C 	0.25750 0.80700 0.70480 0.06300
H 	H 	0.19840 0.76290 0.69800 0.02700
C 	C 	0.31360 0.35930 0.08860 0.04000
H 	H 	0.33830 0.33590 0.04920 0.03800
C 	C 	0.88680 0.96320 0.69060 0.04700
H 	H 	0.93430 0.00470 0.68070 0.03400
C 	C 	0.30590 0.78240 0.65210 -0.15400
H 	H 	0.27730 0.72270 0.60910 0.09500
C 	C 	0.20310 0.95230 0.06090 0.34300
C 	C 	0.23380 0.91280 0.18780 0.06100
H 	H 	0.19180 0.94350 0.20150 0.03200
C 	C 	0.27040 0.82980 0.48160 -0.24800
H 	H 	0.20340 0.80280 0.44280 0.11600
H 	H 	0.30910 0.87550 0.46580 0.11700
H 	H 	0.27230 0.86170 0.53550 0.11200
C 	C 	0.24170 0.92220 0.81870 0.32900
C 	C 	0.52180 0.94440 0.41090 -0.26100
H 	H 	0.53470 0.00870 0.44650 0.12300
H 	H 	0.52610 0.94540 0.35960 0.11700
H 	H 	0.56960 0.91990 0.43660 0.12300
C 	C 	0.31850 0.87030 0.10030 0.05400
H 	H 	0.33690 0.87470 0.05650 0.03300
C 	C 	0.66750 0.70320 0.47820 -0.22900
H 	H 	0.72950 0.72070 0.47170 0.10900
H 	H 	0.62380 0.64210 0.43580 0.11500
H 	H 	0.67780 0.69830 0.53110 0.10600
C 	C 	0.36630 0.54810 0.43340 -0.27500
H 	H 	0.41090 0.55210 0.48470 0.12200
H 	H 	0.31650 0.48490 0.40610 0.11700
H 	H 	0.33580 0.59540 0.44370 0.13000
Zn	Zn	0.80831 0.97292 0.06994 1.24700
O 	O 	0.37510 0.22530 0.52800 -0.16400
O 	O 	0.91620 0.95920 0.19470 -0.32200
O 	O 	0.57710 0.43300 0.62060 -0.16000
O 	O 	0.68950 0.24730 0.51740 -0.16500
O 	O 	0.95650 0.03120 0.11410 -0.36500
O 	O 	0.57520 0.11650 0.60390 -0.15700
O 	O 	0.76540 0.83670 0.00470 -0.42000
O 	O 	0.87990 0.04530 0.93810 -0.23000
O 	O 	0.75710 0.02460 0.98590 -0.42600
O 	O 	0.89110 0.85570 0.95710 -0.23500
O 	O 	0.72150 0.98990 0.12940 -0.41600
C 	C 	0.53120 0.23310 0.51870 -0.05200
O 	O 	0.83410 0.13730 0.18590 -0.29900
C 	C 	0.65240 0.33890 0.78240 -0.00200
H 	H 	0.67720 0.36080 0.83960 0.03800
C 	C 	0.59640 0.21520 0.65420 0.11700
C 	C 	0.38840 0.17320 0.39620 -0.08100
C 	C 	0.42910 0.21110 0.48030 0.12700
C 	C 	0.66260 0.18290 0.78320 0.11500
C 	C 	0.97900 0.01210 0.18070 0.31900
C 	C 	0.74600 0.08790 0.88080 -0.11500
C 	C 	0.67700 0.50770 0.79780 0.11100
C 	C 	0.57700 0.27620 0.61330 -0.04400
C 	C 	0.55000 0.17910 0.38950 -0.09000
C 	C 	0.08360 0.06060 0.24040 -0.10000
C 	C 	0.59800 0.37010 0.65840 0.12400
C 	C 	0.58930 0.21960 0.47450 0.12300
C 	C 	0.63820 0.40370 0.74530 -0.07400
C 	C 	0.24680 0.16440 0.27870 -0.14500
H 	H 	0.29190 0.20920 0.26940 0.08700
C 	C 	0.20880 0.07140 0.36320 -0.14000
H 	H 	0.22810 0.05330 0.40820 0.08600
C 	C 	0.56230 0.06480 0.27180 -0.15900
H 	H 	0.50080 0.02220 0.26220 0.09000
C 	C 	0.76250 0.70110 0.90240 -0.08900
C 	C 	0.15000 0.12430 0.22690 0.05700
H 	H 	0.12950 0.14130 0.18130 0.05100
C 	C 	0.27680 0.13680 0.34610 0.09900
C 	C 	0.61280 0.03940 0.22130 0.06900
H 	H 	0.58580 0.97890 0.17930 0.02700
C 	C 	0.75130 0.57180 0.78740 -0.13400
H 	H 	0.77210 0.55140 0.74450 0.08600
C 	C 	0.81300 0.80830 0.96030 0.31000
C 	C 	0.44650 0.15660 0.35200 -0.00200
H 	H 	0.41690 0.12930 0.29490 0.03800
C 	C 	0.79390 0.66750 0.84300 0.04300
H 	H 	0.84630 0.70940 0.83830 0.03600
C 	C 	0.64500 0.53950 0.85850 -0.13700
H 	H 	0.59650 0.49650 0.86640 0.08500
C 	C 	0.70260 0.10310 0.23280 -0.12100
C 	C 	0.64210 0.18120 0.85040 -0.14900
H 	H 	0.60190 0.21380 0.86530 0.08800
C 	C 	0.60350 0.15420 0.33720 0.11500
C 	C 	0.63100 0.24150 0.73790 -0.08200
C 	C 	0.72370 0.13250 0.76280 -0.14300
H 	H 	0.73610 0.12950 0.71520 0.09300
C 	C 	0.74250 0.19300 0.29520 0.06300
H 	H 	0.80160 0.23710 0.30200 0.02700
C 	C 	0.68640 0.64070 0.91140 0.04000
H 	H 	0.66170 0.66410 0.95080 0.03800
C 	C 	0.11320 0.03680 0.30940 0.04700
H 	H 	0.06570 0.99530 0.31930 0.03400
C 	C 	0.69410 0.21760 0.34790 -0.15400
H 	H 	0.72270 0.27730 0.39090 0.09500
C 	C 	0.79690 0.04770 0.93910 0.34300
C 	C 	0.76620 0.08720 0.81220 0.06100
H 	H 	0.80820 0.05650 0.79850 0.03200
C 	C 	0.72960 0.17020 0.51840 -0.24800
H 	H 	0.79660 0.19720 0.55720 0.11600
H 	H 	0.69090 0.12450 0.53420 0.11700
H 	H 	0.72770 0.13830 0.46450 0.11200
C 	C 	0.75830 0.07780 0.18130 0.32900
C 	C 	0.47820 0.05560 0.58910 -0.26100
H 	H 	0.46530 0.99130 0.55350 0.12300
H 	H 	0.47390 0.05460 0.64040 0.11700
H 	H 	0.43040 0.08010 0.56340 0.12300
C 	C 	0.68150 0.12970 0.89970 0.05400
H 	H 	0.66310 0.12530 0.94350 0.03300
C 	C 	0.33250 0.29680 0.52180 -0.22900
H 	H 	0.27050 0.27930 0.52830 0.10900
H 	H 	0.37620 0.35790 0.56420 0.11500
H 	H 	0.32220 0.30170 0.46890 0.10600
C 	C 	0.63370 0.45190 0.56660 -0.27500
H 	H 	0.58910 0.44790 0.51530 0.12200
H 	H 	0.68350 0.51510 0.59390 0.11700
H 	H 	0.66420 0.40460 0.55630 0.13000
