data_crystal

_cell_length_a 17.02800
_cell_length_b 17.02800
_cell_length_c 23.14390
_cell_angle_alpha 90.00000
_cell_angle_beta  90.00000
_cell_angle_gamma 90.00000

_symmetry_space_group_name_	'P 1'
_symmetry_space_group_name_H-M	'P 1'

loop_
_symmetry_equiv_pos_as_xyz
  x,y,z

loop_
_atom_site_label
_atom_site_type_symbol
_atom_site_fract_x
_atom_site_fract_y
_atom_site_fract_z
_atom_site_charge
H 	H 	0.26310 0.70390 0.97570 0.03200
H 	H 	0.36920 0.79610 0.02750 0.04200
C 	C 	0.27081 0.82033 0.11113 -0.07400
H 	H 	0.25750 0.82200 0.15190 0.05100
H 	H 	0.30080 0.86720 0.10210 0.04100
C 	C 	0.19489 0.81968 0.07510 -0.05300
H 	H 	0.19230 0.86710 0.05190 0.03300
H 	H 	0.14990 0.81920 0.10080 0.03800
H 	H 	0.76310 0.20390 0.47570 0.03600
H 	H 	0.86920 0.29610 0.52750 0.03700
C 	C 	0.77081 0.32033 0.61113 -0.07300
H 	H 	0.75750 0.32200 0.65190 0.05000
H 	H 	0.80080 0.36720 0.60210 0.03800
C 	C 	0.69489 0.31968 0.57510 -0.05400
H 	H 	0.69230 0.36710 0.55190 0.03200
H 	H 	0.64990 0.31920 0.60080 0.03700
H 	H 	0.23690 0.29610 0.47570 0.03800
H 	H 	0.13080 0.20390 0.52750 0.04200
C 	C 	0.22919 0.17967 0.61113 -0.07400
H 	H 	0.24250 0.17800 0.65190 0.05100
H 	H 	0.19920 0.13280 0.60210 0.04100
C 	C 	0.30511 0.18032 0.57510 -0.05300
H 	H 	0.30770 0.13290 0.55190 0.03200
H 	H 	0.35010 0.18080 0.60080 0.03700
H 	H 	0.73690 0.79610 0.97570 0.03200
H 	H 	0.63080 0.70390 0.02750 0.04300
C 	C 	0.72919 0.67967 0.11113 -0.07500
H 	H 	0.74250 0.67800 0.15190 0.05100
H 	H 	0.69920 0.63280 0.10210 0.04100
C 	C 	0.80511 0.68032 0.07510 -0.05100
H 	H 	0.80770 0.63290 0.05190 0.03000
H 	H 	0.85010 0.68080 0.10080 0.03500
H 	H 	0.54610 0.01310 0.22570 0.03600
H 	H 	0.45390 0.11920 0.27750 0.04100
C 	C 	0.42967 0.02081 0.36113 -0.07600
H 	H 	0.42800 0.00750 0.40190 0.05100
H 	H 	0.38280 0.05080 0.35210 0.04100
C 	C 	0.43032 0.94489 0.32510 -0.05200
H 	H 	0.38290 0.94230 0.30190 0.03200
H 	H 	0.43080 0.89990 0.35080 0.03700
H 	H 	0.04610 0.51310 0.72570 0.03300
H 	H 	0.95390 0.61920 0.77750 0.02700
C 	C 	0.92967 0.52081 0.86113 -0.08300
H 	H 	0.92800 0.50750 0.90190 0.04900
H 	H 	0.88280 0.55080 0.85210 0.04100
C 	C 	0.93032 0.44489 0.82510 -0.06300
H 	H 	0.88290 0.44230 0.80190 0.03300
H 	H 	0.93080 0.39990 0.85080 0.03600
H 	H 	0.95390 0.98690 0.72570 0.02200
H 	H 	0.04610 0.88080 0.77750 0.03700
C 	C 	0.07033 0.97919 0.86113 -0.07700
H 	H 	0.07200 0.99250 0.90190 0.05100
H 	H 	0.11720 0.94920 0.85210 0.04000
C 	C 	0.06968 0.05511 0.82510 -0.04900
H 	H 	0.11710 0.05770 0.80190 0.03100
H 	H 	0.06920 0.10010 0.85080 0.03800
H 	H 	0.45390 0.48690 0.22570 0.03700
H 	H 	0.54610 0.38080 0.27750 0.04100
C 	C 	0.57033 0.47919 0.36113 -0.07400
H 	H 	0.57200 0.49250 0.40190 0.05100
H 	H 	0.61720 0.44920 0.35210 0.04000
C 	C 	0.56968 0.55511 0.32510 -0.05300
H 	H 	0.61710 0.55770 0.30190 0.03200
H 	H 	0.56920 0.60010 0.35080 0.03700
H 	H 	0.76310 0.29610 0.47570 0.03700
H 	H 	0.86920 0.20390 0.52750 0.03700
C 	C 	0.77081 0.17967 0.61113 -0.07300
H 	H 	0.75750 0.17800 0.65190 0.05000
H 	H 	0.80080 0.13280 0.60210 0.03800
C 	C 	0.69489 0.18032 0.57510 -0.05400
H 	H 	0.69230 0.13290 0.55190 0.03200
H 	H 	0.64990 0.18080 0.60080 0.03700
H 	H 	0.26310 0.79610 0.97570 0.03200
H 	H 	0.36920 0.70390 0.02750 0.04300
C 	C 	0.27081 0.67967 0.11113 -0.07400
H 	H 	0.25750 0.67800 0.15190 0.05100
H 	H 	0.30080 0.63280 0.10210 0.04100
C 	C 	0.19489 0.68032 0.07510 -0.05300
H 	H 	0.19230 0.63290 0.05190 0.03200
H 	H 	0.14990 0.68080 0.10080 0.03700
H 	H 	0.73690 0.70390 0.97570 0.03300
H 	H 	0.63080 0.79610 0.02750 0.04300
C 	C 	0.72919 0.82033 0.11113 -0.07500
H 	H 	0.74250 0.82200 0.15190 0.05200
H 	H 	0.69920 0.86720 0.10210 0.04100
C 	C 	0.80511 0.81968 0.07510 -0.05100
H 	H 	0.80770 0.86710 0.05190 0.03100
H 	H 	0.85010 0.81920 0.10080 0.03500
H 	H 	0.23690 0.20390 0.47570 0.03700
H 	H 	0.13080 0.29610 0.52750 0.04200
C 	C 	0.22919 0.32033 0.61113 -0.07400
H 	H 	0.24250 0.32200 0.65190 0.05100
H 	H 	0.19920 0.36720 0.60210 0.04100
C 	C 	0.30511 0.31968 0.57510 -0.05300
H 	H 	0.30770 0.36710 0.55190 0.03200
H 	H 	0.35010 0.31920 0.60080 0.03700
H 	H 	0.04610 0.98690 0.72570 0.03300
H 	H 	0.95390 0.88080 0.77750 0.02700
C 	C 	0.92967 0.97919 0.86113 -0.08600
H 	H 	0.92800 0.99250 0.90190 0.04900
H 	H 	0.88280 0.94920 0.85210 0.04200
C 	C 	0.93032 0.05511 0.82510 -0.05900
H 	H 	0.88290 0.05770 0.80190 0.03300
H 	H 	0.93080 0.10010 0.85080 0.03500
H 	H 	0.54610 0.48690 0.22570 0.03700
H 	H 	0.45390 0.38080 0.27750 0.04100
C 	C 	0.42967 0.47919 0.36113 -0.07400
H 	H 	0.42800 0.49250 0.40190 0.05100
H 	H 	0.38280 0.44920 0.35210 0.04100
C 	C 	0.43032 0.55511 0.32510 -0.05300
H 	H 	0.38290 0.55770 0.30190 0.03200
H 	H 	0.43080 0.60010 0.35080 0.03700
H 	H 	0.45390 0.01310 0.22570 0.03600
H 	H 	0.54610 0.11920 0.27750 0.04100
C 	C 	0.57033 0.02081 0.36113 -0.07600
H 	H 	0.57200 0.00750 0.40190 0.05100
H 	H 	0.61720 0.05080 0.35210 0.04000
C 	C 	0.56968 0.94489 0.32510 -0.05200
H 	H 	0.61710 0.94230 0.30190 0.03200
H 	H 	0.56920 0.89990 0.35080 0.03700
H 	H 	0.95390 0.51310 0.72570 0.02200
H 	H 	0.04610 0.61920 0.77750 0.03800
C 	C 	0.07033 0.52081 0.86113 -0.07300
H 	H 	0.07200 0.50750 0.90190 0.05200
H 	H 	0.11720 0.55080 0.85210 0.04000
C 	C 	0.06968 0.44489 0.82510 -0.05300
H 	H 	0.11710 0.44230 0.80190 0.03200
H 	H 	0.06920 0.39990 0.85080 0.03900
Cu	Cu	0.08857 0.75000 0.98424 0.74100
I 	I 	0.13112 0.75000 0.87198 -0.59900
N 	N 	0.19156 0.75000 0.03658 -0.17700
N 	N 	0.31940 0.75000 0.09948 -0.16800
C 	C 	0.26336 0.75000 0.00033 -0.04800
C 	C 	0.33820 0.75000 0.03675 -0.07400
Cu	Cu	0.41143 0.25000 0.48424 0.74200
I 	I 	0.36888 0.25000 0.37198 -0.60000
N 	N 	0.30844 0.25000 0.53658 -0.17600
N 	N 	0.18060 0.25000 0.59948 -0.16900
C 	C 	0.23664 0.25000 0.50033 -0.05800
C 	C 	0.16180 0.25000 0.53675 -0.07000
Cu	Cu	0.50000 0.83857 0.23424 0.74200
I 	I 	0.50000 0.88112 0.12198 -0.59900
N 	N 	0.50000 0.94156 0.28658 -0.17600
N 	N 	0.50000 0.06940 0.34948 -0.16900
C 	C 	0.50000 0.01336 0.25033 -0.05900
C 	C 	0.50000 0.08820 0.28675 -0.06900
Cu	Cu	0.00000 0.33857 0.73424 0.74600
I 	I 	0.00000 0.38112 0.62198 -0.58700
N 	N 	0.00000 0.44156 0.78658 -0.17200
N 	N 	0.00000 0.56940 0.84948 -0.16500
C 	C 	-0.00000 0.51336 0.75033 -0.03800
C 	C 	0.00000 0.58820 0.78675 -0.05100
Cu	Cu	0.00000 0.16143 0.73424 0.74600
I 	I 	0.00000 0.11888 0.62198 -0.58700
N 	N 	0.00000 0.05844 0.78658 -0.17200
N 	N 	0.00000 0.93060 0.84948 -0.16500
C 	C 	0.00000 0.98664 0.75033 -0.04100
C 	C 	0.00000 0.91180 0.78675 -0.05100
Cu	Cu	0.50000 0.66143 0.23424 0.74200
I 	I 	0.50000 0.61888 0.12198 -0.60100
N 	N 	0.50000 0.55844 0.28658 -0.17600
N 	N 	0.50000 0.43060 0.34948 -0.16900
C 	C 	0.50000 0.48664 0.25033 -0.05800
C 	C 	0.50000 0.41180 0.28675 -0.07000
Cu	Cu	0.58857 0.25000 0.48424 0.74200
I 	I 	0.63112 0.25000 0.37198 -0.60200
N 	N 	0.69156 0.25000 0.53658 -0.17600
N 	N 	0.81940 0.25000 0.59948 -0.17100
C 	C 	0.76336 0.25000 0.50033 -0.05900
C 	C 	0.83820 0.25000 0.53675 -0.06700
Cu	Cu	0.91143 0.75000 0.98424 0.73500
I 	I 	0.86888 0.75000 0.87198 -0.61000
N 	N 	0.80844 0.75000 0.03658 -0.17800
N 	N 	0.68060 0.75000 0.09948 -0.16800
C 	C 	0.73664 0.75000 0.00033 -0.04800
C 	C 	0.66180 0.75000 0.03675 -0.07400
Cu	Cu	0.00000 0.82810 0.90006 0.73400
I 	I 	-0.00000 0.87596 0.00940 -0.60700
Cu	Cu	0.50000 0.32810 0.40006 0.73000
I 	I 	0.50000 0.37596 0.50940 -0.62300
Cu	Cu	0.50000 0.17190 0.40006 0.73000
I 	I 	0.50000 0.12404 0.50940 -0.62300
Cu	Cu	0.00000 0.67190 0.90006 0.73400
I 	I 	0.00000 0.62404 0.00940 -0.60900
Cu	Cu	0.42190 0.75000 0.15006 0.73000
I 	I 	0.37404 0.75000 0.25940 -0.62300
Cu	Cu	0.07810 0.25000 0.65006 0.73100
I 	I 	0.12596 0.25000 0.75940 -0.62100
Cu	Cu	0.92190 0.25000 0.65006 0.72500
I 	I 	0.87404 0.25000 0.75940 -0.63200
Cu	Cu	0.57810 0.75000 0.15006 0.73000
I 	I 	0.62596 0.75000 0.25940 -0.62300
H 	H 	0.23690 0.70390 0.52430 0.03800
H 	H 	0.13080 0.79610 0.47250 0.04200
C 	C 	0.22919 0.82033 0.38887 -0.07400
H 	H 	0.24250 0.82200 0.34810 0.05100
H 	H 	0.19920 0.86720 0.39790 0.04100
C 	C 	0.30511 0.81968 0.42490 -0.05300
H 	H 	0.30770 0.86710 0.44810 0.03200
H 	H 	0.35010 0.81920 0.39920 0.03700
H 	H 	0.73690 0.20390 0.02430 0.03200
H 	H 	0.63080 0.29610 0.97250 0.04300
C 	C 	0.72919 0.32033 0.88887 -0.07500
H 	H 	0.74250 0.32200 0.84810 0.05100
H 	H 	0.69920 0.36720 0.89790 0.04100
C 	C 	0.80511 0.31968 0.92490 -0.05100
H 	H 	0.80770 0.36710 0.94810 0.03000
H 	H 	0.85010 0.31920 0.89920 0.03500
H 	H 	0.26310 0.29610 0.02430 0.03300
H 	H 	0.36920 0.20390 0.97250 0.04300
C 	C 	0.27081 0.17967 0.88887 -0.07400
H 	H 	0.25750 0.17800 0.84810 0.05100
H 	H 	0.30080 0.13280 0.89790 0.04100
C 	C 	0.19489 0.18032 0.92490 -0.05300
H 	H 	0.19230 0.13290 0.94810 0.03300
H 	H 	0.14990 0.18080 0.89920 0.03800
H 	H 	0.76310 0.79610 0.52430 0.03600
H 	H 	0.86920 0.70390 0.47250 0.03700
C 	C 	0.77081 0.67967 0.38887 -0.07300
H 	H 	0.75750 0.67800 0.34810 0.05000
H 	H 	0.80080 0.63280 0.39790 0.03800
C 	C 	0.69489 0.68032 0.42490 -0.05400
H 	H 	0.69230 0.63290 0.44810 0.03200
H 	H 	0.64990 0.68080 0.39920 0.03700
H 	H 	0.95390 0.01310 0.27430 0.02200
H 	H 	0.04610 0.11920 0.22250 0.03700
C 	C 	0.07033 0.02081 0.13887 -0.07700
H 	H 	0.07200 0.00750 0.09810 0.05100
H 	H 	0.11720 0.05080 0.14790 0.04000
C 	C 	0.06968 0.94489 0.17490 -0.04900
H 	H 	0.11710 0.94230 0.19810 0.03100
H 	H 	0.06920 0.89990 0.14920 0.03800
H 	H 	0.45390 0.51310 0.77430 0.03700
H 	H 	0.54610 0.61920 0.72250 0.04100
C 	C 	0.57033 0.52081 0.63887 -0.07400
H 	H 	0.57200 0.50750 0.59810 0.05100
H 	H 	0.61720 0.55080 0.64790 0.04000
C 	C 	0.56968 0.44489 0.67490 -0.05300
H 	H 	0.61710 0.44230 0.69810 0.03200
H 	H 	0.56920 0.39990 0.64920 0.03700
H 	H 	0.54610 0.98690 0.77430 0.03600
H 	H 	0.45390 0.88080 0.72250 0.04100
C 	C 	0.42967 0.97919 0.63887 -0.07600
H 	H 	0.42800 0.99250 0.59810 0.05100
H 	H 	0.38280 0.94920 0.64790 0.04100
C 	C 	0.43032 0.05511 0.67490 -0.05200
H 	H 	0.38290 0.05770 0.69810 0.03200
H 	H 	0.43080 0.10010 0.64920 0.03700
H 	H 	0.04610 0.48690 0.27430 0.03300
H 	H 	0.95390 0.38080 0.22250 0.02700
C 	C 	0.92967 0.47919 0.13887 -0.08300
H 	H 	0.92800 0.49250 0.09810 0.04900
H 	H 	0.88280 0.44920 0.14790 0.04100
C 	C 	0.93032 0.55511 0.17490 -0.06300
H 	H 	0.88290 0.55770 0.19810 0.03300
H 	H 	0.93080 0.60010 0.14920 0.03600
H 	H 	0.73690 0.29610 0.02430 0.03300
H 	H 	0.63080 0.20390 0.97250 0.04300
C 	C 	0.72919 0.17967 0.88887 -0.07500
H 	H 	0.74250 0.17800 0.84810 0.05200
H 	H 	0.69920 0.13280 0.89790 0.04100
C 	C 	0.80511 0.18032 0.92490 -0.05100
H 	H 	0.80770 0.13290 0.94810 0.03100
H 	H 	0.85010 0.18080 0.89920 0.03500
H 	H 	0.23690 0.79610 0.52430 0.03700
H 	H 	0.13080 0.70390 0.47250 0.04200
C 	C 	0.22919 0.67967 0.38887 -0.07400
H 	H 	0.24250 0.67800 0.34810 0.05100
H 	H 	0.19920 0.63280 0.39790 0.04100
C 	C 	0.30511 0.68032 0.42490 -0.05300
H 	H 	0.30770 0.63290 0.44810 0.03200
H 	H 	0.35010 0.68080 0.39920 0.03700
H 	H 	0.76310 0.70390 0.52430 0.03700
H 	H 	0.86920 0.79610 0.47250 0.03700
C 	C 	0.77081 0.82033 0.38887 -0.07300
H 	H 	0.75750 0.82200 0.34810 0.05000
H 	H 	0.80080 0.86720 0.39790 0.03800
C 	C 	0.69489 0.81968 0.42490 -0.05400
H 	H 	0.69230 0.86710 0.44810 0.03200
H 	H 	0.64990 0.81920 0.39920 0.03700
H 	H 	0.26310 0.20390 0.02430 0.03200
H 	H 	0.36920 0.29610 0.97250 0.04300
C 	C 	0.27081 0.32033 0.88887 -0.07400
H 	H 	0.25750 0.32200 0.84810 0.05100
H 	H 	0.30080 0.36720 0.89790 0.04100
C 	C 	0.19489 0.31968 0.92490 -0.05300
H 	H 	0.19230 0.36710 0.94810 0.03200
H 	H 	0.14990 0.31920 0.89920 0.03700
H 	H 	0.45390 0.98690 0.77430 0.03600
H 	H 	0.54610 0.88080 0.72250 0.04100
C 	C 	0.57033 0.97919 0.63887 -0.07600
H 	H 	0.57200 0.99250 0.59810 0.05100
H 	H 	0.61720 0.94920 0.64790 0.04000
C 	C 	0.56968 0.05511 0.67490 -0.05200
H 	H 	0.61710 0.05770 0.69810 0.03200
H 	H 	0.56920 0.10010 0.64920 0.03700
H 	H 	0.95390 0.48690 0.27430 0.02200
H 	H 	0.04610 0.38080 0.22250 0.03800
C 	C 	0.07033 0.47919 0.13887 -0.07300
H 	H 	0.07200 0.49250 0.09810 0.05200
H 	H 	0.11720 0.44920 0.14790 0.04000
C 	C 	0.06968 0.55511 0.17490 -0.05300
H 	H 	0.11710 0.55770 0.19810 0.03200
H 	H 	0.06920 0.60010 0.14920 0.03900
H 	H 	0.04610 0.01310 0.27430 0.03300
H 	H 	0.95390 0.11920 0.22250 0.02700
C 	C 	0.92967 0.02081 0.13887 -0.08600
H 	H 	0.92800 0.00750 0.09810 0.04900
H 	H 	0.88280 0.05080 0.14790 0.04200
C 	C 	0.93032 0.94489 0.17490 -0.05900
H 	H 	0.88290 0.94230 0.19810 0.03300
H 	H 	0.93080 0.89990 0.14920 0.03500
H 	H 	0.54610 0.51310 0.77430 0.03700
H 	H 	0.45390 0.61920 0.72250 0.04100
C 	C 	0.42967 0.52081 0.63887 -0.07400
H 	H 	0.42800 0.50750 0.59810 0.05100
H 	H 	0.38280 0.55080 0.64790 0.04100
C 	C 	0.43032 0.44489 0.67490 -0.05300
H 	H 	0.38290 0.44230 0.69810 0.03200
H 	H 	0.43080 0.39990 0.64920 0.03700
Cu	Cu	0.41143 0.75000 0.51576 0.74200
I 	I 	0.36888 0.75000 0.62802 -0.60000
N 	N 	0.30844 0.75000 0.46342 -0.17600
N 	N 	0.18060 0.75000 0.40052 -0.16900
C 	C 	0.23664 0.75000 0.49967 -0.05800
C 	C 	0.16180 0.75000 0.46325 -0.07000
Cu	Cu	0.08857 0.25000 0.01576 0.74100
I 	I 	0.13112 0.25000 0.12802 -0.59900
N 	N 	0.19156 0.25000 0.96342 -0.17700
N 	N 	0.31940 0.25000 0.90052 -0.16800
C 	C 	0.26336 0.25000 0.99967 -0.04800
C 	C 	0.33820 0.25000 0.96325 -0.07400
Cu	Cu	0.00000 0.83857 0.26576 0.74600
I 	I 	0.00000 0.88112 0.37802 -0.58700
N 	N 	0.00000 0.94156 0.21342 -0.17200
N 	N 	-0.00000 0.06940 0.15052 -0.16500
C 	C 	0.00000 0.01336 0.24967 -0.04100
C 	C 	0.00000 0.08820 0.21325 -0.05100
Cu	Cu	0.50000 0.33857 0.76576 0.74200
I 	I 	0.50000 0.38112 0.87802 -0.60100
N 	N 	0.50000 0.44156 0.71342 -0.17600
N 	N 	0.50000 0.56940 0.65052 -0.16900
C 	C 	0.50000 0.51336 0.74967 -0.05800
C 	C 	0.50000 0.58820 0.71325 -0.07000
Cu	Cu	0.50000 0.16143 0.76576 0.74200
I 	I 	0.50000 0.11888 0.87802 -0.59900
N 	N 	0.50000 0.05844 0.71342 -0.17600
N 	N 	0.50000 0.93060 0.65052 -0.16900
C 	C 	0.50000 0.98664 0.74967 -0.05900
C 	C 	0.50000 0.91180 0.71325 -0.06900
Cu	Cu	0.00000 0.66143 0.26576 0.74600
I 	I 	-0.00000 0.61888 0.37802 -0.58700
N 	N 	-0.00000 0.55844 0.21342 -0.17200
N 	N 	-0.00000 0.43060 0.15052 -0.16500
C 	C 	-0.00000 0.48664 0.24967 -0.03800
C 	C 	0.00000 0.41180 0.21325 -0.05100
Cu	Cu	0.91143 0.25000 0.01576 0.73500
I 	I 	0.86888 0.25000 0.12802 -0.61000
N 	N 	0.80844 0.25000 0.96342 -0.17800
N 	N 	0.68060 0.25000 0.90052 -0.16800
C 	C 	0.73664 0.25000 0.99967 -0.04800
C 	C 	0.66180 0.25000 0.96325 -0.07400
Cu	Cu	0.58857 0.75000 0.51576 0.74200
I 	I 	0.63112 0.75000 0.62802 -0.60200
N 	N 	0.69156 0.75000 0.46342 -0.17600
N 	N 	0.81940 0.75000 0.40052 -0.17100
C 	C 	0.76336 0.75000 0.49967 -0.05900
C 	C 	0.83820 0.75000 0.46325 -0.06700
Cu	Cu	0.50000 0.82810 0.59994 0.73000
I 	I 	0.50000 0.87596 0.49060 -0.62300
Cu	Cu	0.00000 0.32810 0.09994 0.73400
I 	I 	-0.00000 0.37596 0.99060 -0.60900
Cu	Cu	0.00000 0.17190 0.09994 0.73400
I 	I 	0.00000 0.12404 0.99060 -0.60700
Cu	Cu	0.50000 0.67190 0.59994 0.73000
I 	I 	0.50000 0.62404 0.49060 -0.62300
Cu	Cu	0.07810 0.75000 0.34994 0.73100
I 	I 	0.12596 0.75000 0.24060 -0.62100
Cu	Cu	0.42190 0.25000 0.84994 0.73000
I 	I 	0.37404 0.25000 0.74060 -0.62300
Cu	Cu	0.57810 0.25000 0.84994 0.73000
I 	I 	0.62596 0.25000 0.74060 -0.62300
Cu	Cu	0.92190 0.75000 0.34994 0.72500
I 	I 	0.87404 0.75000 0.24060 -0.63200
