data_crystal

_cell_length_a 15.63100
_cell_length_b 18.45600
_cell_length_c 27.51700
_cell_angle_alpha 80.16400
_cell_angle_beta  89.99400
_cell_angle_gamma 76.26400

_symmetry_space_group_name_	'P 1'
_symmetry_space_group_name_H-M	'P 1'

loop_
_symmetry_equiv_pos_as_xyz
  x,y,z

loop_
_atom_site_label
_atom_site_type_symbol
_atom_site_fract_x
_atom_site_fract_y
_atom_site_fract_z
_atom_site_charge
Ca	Ca	0.58984 0.33511 0.58634 1.52000
Ca	Ca	0.04931 0.82457 0.08797 1.51600
C 	C 	0.70340 0.20530 0.62220 0.28500
C 	C 	0.75850 0.12790 0.64750 -0.09600
C 	C 	0.74560 0.09500 0.69590 0.06600
H 	H 	0.70290 0.12010 0.71470 0.02700
C 	C 	0.79900 0.02310 0.71500 -0.18300
H 	H 	0.79070 0.00060 0.74700 0.09100
C 	C 	0.86540 0.98330 0.68730 0.16700
C 	C 	0.87890 0.02070 0.64070 -0.20600
H 	H 	0.92370 0.99640 0.62270 0.12700
C 	C 	0.82790 0.09450 0.61880 0.06700
H 	H 	0.83940 0.11880 0.58800 0.02100
C 	C 	0.91500 0.90940 0.70820 -0.08900
C 	C 	0.94070 0.89290 0.75860 -0.02500
H 	H 	0.92820 0.93310 0.77590 0.05200
C 	C 	0.98290 0.82270 0.78500 -0.01600
C 	C 	0.00020 0.75960 0.75690 0.06800
C 	C 	0.97510 0.77420 0.70590 -0.01700
C 	C 	0.93080 0.84720 0.68320 0.12300
C 	C 	0.00410 0.81440 0.83500 0.04300
C 	C 	0.04320 0.86810 0.85310 -0.13100
H 	H 	0.06230 0.90440 0.83100 0.07800
C 	C 	0.05270 0.86610 0.90380 0.07200
H 	H 	0.07890 0.90080 0.91500 0.00900
C 	C 	0.02480 0.81550 0.93650 -0.15300
C 	C 	0.98630 0.75950 0.92120 0.06600
H 	H 	0.96820 0.72360 0.94420 0.03200
C 	C 	0.97680 0.76030 0.87110 -0.10300
H 	H 	0.95180 0.72440 0.86060 0.07900
C 	C 	0.02720 0.81840 0.98940 0.35200
C 	C 	0.99090 0.70660 0.68160 -0.01400
C 	C 	0.07470 0.67280 0.66880 0.08800
C 	C 	0.09060 0.60980 0.64590 -0.05800
C 	C 	0.01750 0.58230 0.63050 -0.05500
H 	H 	0.02680 0.54040 0.61480 0.04800
C 	C 	0.93030 0.62170 0.64020 -0.03200
C 	C 	0.91930 0.68150 0.66670 0.10400
C 	C 	0.80680 0.67770 0.72320 -0.27200
H 	H 	0.74780 0.70340 0.72920 0.12900
H 	H 	0.84540 0.67690 0.75060 0.12700
H 	H 	0.80810 0.62670 0.71940 0.12000
C 	C 	0.19760 0.73130 0.64010 -0.26200
H 	H 	0.25560 0.72980 0.65240 0.11400
H 	H 	0.16860 0.78240 0.62580 0.11100
H 	H 	0.20200 0.69970 0.61540 0.11600
C 	C 	0.12920 0.67430 0.79990 -0.26300
H 	H 	0.14460 0.62620 0.82170 0.11600
H 	H 	0.13280 0.71380 0.81780 0.11700
H 	H 	0.16920 0.67430 0.77340 0.12600
C 	C 	0.18140 0.56670 0.63420 0.11100
C 	C 	0.24030 0.53690 0.67520 -0.15500
H 	H 	0.22670 0.54780 0.70640 0.09400
C 	C 	0.32190 0.48920 0.66590 0.07300
H 	H 	0.36280 0.46740 0.69190 0.01800
C 	C 	0.34170 0.47450 0.62000 -0.15100
C 	C 	0.28560 0.50790 0.58130 0.09000
H 	H 	0.30190 0.50090 0.54960 0.00300
C 	C 	0.20460 0.55210 0.58830 -0.17300
H 	H 	0.16480 0.57240 0.56150 0.09200
C 	C 	0.42810 0.42720 0.61140 0.30400
C 	C 	0.85690 0.58670 0.62690 0.07900
C 	C 	0.86470 0.50600 0.64130 -0.12300
H 	H 	0.91300 0.47470 0.66020 0.08100
C 	C 	0.79610 0.47750 0.62560 0.03700
H 	H 	0.79950 0.42590 0.63420 0.03500
C 	C 	0.72550 0.52210 0.59840 -0.09700
C 	C 	0.71620 0.60060 0.58370 0.03500
H 	H 	0.66800 0.63040 0.56400 0.03800
C 	C 	0.78290 0.63300 0.59990 -0.11800
H 	H 	0.77680 0.68510 0.59250 0.08800
C 	C 	0.65660 0.47910 0.58160 0.37800
C 	C 	0.55120 0.32740 0.48940 0.34100
C 	C 	0.53220 0.31770 0.44110 -0.15700
C 	C 	0.49530 0.25900 0.43050 0.08100
H 	H 	0.48690 0.22050 0.45530 0.01700
C 	C 	0.47190 0.26130 0.38120 -0.16100
H 	H 	0.44700 0.22270 0.37470 0.09700
C 	C 	0.48150 0.31440 0.34100 0.11500
C 	C 	0.52080 0.37120 0.35420 -0.16100
H 	H 	0.52960 0.40890 0.32910 0.08800
C 	C 	0.54620 0.37390 0.40110 0.07600
H 	H 	0.57250 0.41200 0.40710 -0.00500
C 	C 	0.44830 0.32050 0.29090 -0.08700
C 	C 	0.46780 0.25380 0.26690 0.12700
C 	C 	0.43470 0.26250 0.22030 -0.05700
C 	C 	0.38380 0.33120 0.19290 0.12100
C 	C 	0.36140 0.39410 0.21830 -0.08000
C 	C 	0.39870 0.38540 0.26550 -0.00200
H 	H 	0.38830 0.42780 0.28070 0.03700
C 	C 	0.25220 0.34610 0.14080 -0.25800
H 	H 	0.23520 0.36030 0.10630 0.11300
H 	H 	0.22450 0.38620 0.15780 0.11300
H 	H 	0.23400 0.30090 0.15420 0.12200
C 	C 	0.60340 0.17860 0.30280 -0.22100
H 	H 	0.62510 0.13490 0.32790 0.10400
H 	H 	0.61040 0.22310 0.31440 0.10200
H 	H 	0.63600 0.17300 0.27350 0.11600
C 	C 	0.30790 0.47030 0.19390 0.08800
C 	C 	0.32390 0.49850 0.14530 -0.12300
H 	H 	0.36650 0.46960 0.12830 0.08200
C 	C 	0.27510 0.57150 0.12180 0.02000
H 	H 	0.28650 0.59210 0.08990 0.03600
C 	C 	0.20580 0.61300 0.15000 -0.07800
C 	C 	0.19020 0.58070 0.19700 0.02500
H 	H 	0.14580 0.60730 0.21420 0.03800
C 	C 	0.24000 0.50800 0.22000 -0.12700
H 	H 	0.22760 0.48630 0.25150 0.07300
C 	C 	0.14830 0.68720 0.12700 0.26900
C 	C 	0.38530 0.15440 0.19230 0.10200
C 	C 	0.39640 0.08850 0.17320 -0.05300
C 	C 	0.48240 0.05710 0.15790 -0.03100
H 	H 	0.49260 0.01230 0.14530 0.03800
C 	C 	0.55070 0.09150 0.16150 -0.05200
C 	C 	0.53230 0.16200 0.17770 0.10500
C 	C 	0.45040 0.19050 0.19550 -0.03200
C 	C 	0.59730 0.26870 0.15070 -0.25000
H 	H 	0.64870 0.28680 0.15590 0.10900
H 	H 	0.54560 0.30500 0.15760 0.11700
H 	H 	0.59360 0.26170 0.11710 0.10900
C 	C 	0.28710 0.14390 0.25850 -0.27500
H 	H 	0.22530 0.15440 0.26470 0.13000
H 	H 	0.31800 0.15930 0.28350 0.12900
H 	H 	0.30910 0.09060 0.25900 0.12000
C 	C 	0.64010 0.05970 0.14450 0.06400
C 	C 	0.67970 0.98300 0.16540 -0.08500
H 	H 	0.65030 0.95720 0.18920 0.07300
C 	C 	0.76290 0.94520 0.15080 0.02700
H 	H 	0.79390 0.89890 0.16850 0.04300
C 	C 	0.79630 0.98030 0.10870 -0.09500
C 	C 	0.75760 0.05150 0.08750 0.01200
H 	H 	0.78330 0.07540 0.06090 0.02900
C 	C 	0.67710 0.09130 0.10530 -0.11000
H 	H 	0.65010 0.14000 0.08930 0.07200
C 	C 	0.88170 0.94330 0.09240 0.36800
C 	C 	0.31920 0.05540 0.16200 0.05200
C 	C 	0.24670 0.09930 0.13760 -0.10500
H 	H 	0.23680 0.15170 0.13350 0.07800
C 	C 	0.18490 0.06660 0.11810 -0.00000
H 	H 	0.13400 0.09760 0.10140 0.03900
C 	C 	0.19830 0.99390 0.12300 -0.06900
C 	C 	0.27070 0.94240 0.15020 0.00300
H 	H 	0.27640 0.89030 0.15550 0.04600
C 	C 	0.33360 0.97500 0.16880 -0.07900
H 	H 	0.38460 0.94420 0.18550 0.06700
C 	C 	0.13340 0.95480 0.10000 0.38400
C 	C 	0.97830 0.85210 0.59030 -0.12500
H 	H 	0.01340 0.80100 0.59400 0.06500
H 	H 	0.01590 0.88580 0.59260 0.05600
H 	H 	0.94730 0.86590 0.55870 0.08500
O 	O 	0.63220 0.22980 0.64560 -0.39500
O 	O 	0.72820 0.24390 0.58620 -0.37700
O 	O 	0.06120 0.87030 0.00420 -0.57500
O 	O 	0.99910 0.77240 0.02180 -0.39400
O 	O 	0.47460 0.37480 0.64780 -0.34500
O 	O 	0.45680 0.42730 0.56660 -0.55600
O 	O 	0.65730 0.41820 0.60190 -0.52300
O 	O 	0.60950 0.52400 0.53980 -0.45300
O 	O 	0.03870 0.68750 0.77960 -0.15400
O 	O 	0.90940 0.85810 0.63280 -0.17100
O 	O 	0.83600 0.71740 0.67840 -0.14600
O 	O 	0.14450 0.70250 0.68240 -0.15800
O 	O 	0.53990 0.27610 0.52630 -0.39700
O 	O 	0.58500 0.38010 0.49940 -0.55500
O 	O 	0.07990 0.71980 0.14770 -0.40700
O 	O 	0.17720 0.72210 0.08750 -0.36600
O 	O 	0.08830 0.99670 0.06430 -0.49500
O 	O 	0.13300 0.88720 0.11890 -0.48100
O 	O 	0.90050 0.96910 0.04770 -0.49300
O 	O 	0.92270 0.87880 0.11560 -0.46200
O 	O 	0.51370 0.18550 0.29190 -0.16500
O 	O 	0.35100 0.33170 0.14720 -0.16500
O 	O 	0.60350 0.19490 0.18440 -0.15700
O 	O 	0.30030 0.18580 0.21010 -0.15400
Cd	Cd	0.41016 0.66489 0.41366 1.24300
Cd	Cd	0.95069 0.17543 0.91203 1.24400
C 	C 	0.29660 0.79470 0.37780 0.26100
C 	C 	0.24150 0.87210 0.35250 -0.02600
C 	C 	0.25440 0.90500 0.30410 -0.02700
H 	H 	0.29710 0.87990 0.28530 0.05900
C 	C 	0.20100 0.97690 0.28500 -0.04700
H 	H 	0.20930 0.99940 0.25300 0.05800
C 	C 	0.13460 0.01670 0.31270 0.00200
C 	C 	0.12110 0.97930 0.35930 0.00100
H 	H 	0.07630 0.00360 0.37730 0.02400
C 	C 	0.17210 0.90550 0.38120 -0.05000
H 	H 	0.16060 0.88120 0.41200 0.06400
C 	C 	0.08500 0.09060 0.29180 -0.05600
C 	C 	0.05930 0.10710 0.24140 0.00500
H 	H 	0.07180 0.06690 0.22410 0.02500
C 	C 	0.01710 0.17730 0.21500 -0.14400
C 	C 	0.99980 0.24040 0.24310 0.16800
C 	C 	0.02490 0.22580 0.29410 -0.05700
C 	C 	0.06920 0.15280 0.31680 0.10300
C 	C 	0.99590 0.18560 0.16500 0.17300
C 	C 	0.95680 0.13190 0.14690 -0.18100
H 	H 	0.93770 0.09560 0.16900 0.09900
C 	C 	0.94730 0.13390 0.09620 0.08600
H 	H 	0.92110 0.09920 0.08500 -0.00700
C 	C 	0.97520 0.18450 0.06350 -0.12000
C 	C 	0.01370 0.24050 0.07880 0.05100
H 	H 	0.03180 0.27640 0.05580 0.01600
C 	C 	0.02320 0.23970 0.12890 -0.19600
H 	H 	0.04820 0.27560 0.13940 0.10000
C 	C 	0.97280 0.18160 0.01060 0.28500
C 	C 	0.00910 0.29340 0.31840 -0.07000
C 	C 	0.92530 0.32720 0.33120 0.14500
C 	C 	0.90940 0.39020 0.35410 -0.09500
C 	C 	0.98250 0.41770 0.36950 0.02200
H 	H 	0.97320 0.45960 0.38520 0.03400
C 	C 	0.06970 0.37830 0.35980 -0.09700
C 	C 	0.08070 0.31850 0.33330 0.13200
C 	C 	0.19320 0.32230 0.27680 -0.25600
H 	H 	0.25220 0.29660 0.27080 0.12500
H 	H 	0.15460 0.32310 0.24940 0.11700
H 	H 	0.19190 0.37330 0.28060 0.11400
C 	C 	0.80240 0.26870 0.35990 -0.25100
H 	H 	0.74440 0.27020 0.34760 0.11100
H 	H 	0.83140 0.21760 0.37420 0.10700
H 	H 	0.79800 0.30030 0.38460 0.11100
C 	C 	0.87080 0.32570 0.20010 -0.24800
H 	H 	0.85540 0.37380 0.17830 0.11500
H 	H 	0.86720 0.28620 0.18220 0.11400
H 	H 	0.83080 0.32570 0.22660 0.12200
C 	C 	0.81860 0.43330 0.36580 0.13200
C 	C 	0.75970 0.46310 0.32480 -0.16700
H 	H 	0.77330 0.45220 0.29360 0.10100
C 	C 	0.67810 0.51080 0.33410 0.08500
H 	H 	0.63720 0.53260 0.30810 0.01500
C 	C 	0.65830 0.52550 0.38000 -0.15800
C 	C 	0.71440 0.49210 0.41870 0.10400
H 	H 	0.69810 0.49910 0.45040 -0.00100
C 	C 	0.79540 0.44790 0.41170 -0.18900
H 	H 	0.83520 0.42760 0.43850 0.10100
C 	C 	0.57190 0.57280 0.38860 0.30700
C 	C 	0.14310 0.41330 0.37310 0.09400
C 	C 	0.13530 0.49400 0.35870 -0.13400
H 	H 	0.08700 0.52530 0.33980 0.07600
C 	C 	0.20390 0.52250 0.37440 0.03900
H 	H 	0.20050 0.57410 0.36580 0.03300
C 	C 	0.27450 0.47790 0.40160 -0.09500
C 	C 	0.28380 0.39940 0.41630 0.03700
H 	H 	0.33200 0.36960 0.43600 0.03600
C 	C 	0.21710 0.36700 0.40010 -0.12900
H 	H 	0.22320 0.31490 0.40750 0.08800
C 	C 	0.34340 0.52090 0.41840 0.36200
C 	C 	0.44880 0.67260 0.51060 0.33500
C 	C 	0.46780 0.68230 0.55890 -0.15200
C 	C 	0.50470 0.74100 0.56950 0.07800
H 	H 	0.51310 0.77950 0.54470 0.02200
C 	C 	0.52810 0.73870 0.61880 -0.15800
H 	H 	0.55300 0.77730 0.62530 0.09900
C 	C 	0.51850 0.68560 0.65900 0.11200
C 	C 	0.47920 0.62880 0.64580 -0.15900
H 	H 	0.47040 0.59110 0.67090 0.08700
C 	C 	0.45380 0.62610 0.59890 0.07200
H 	H 	0.42750 0.58800 0.59290 -0.00500
C 	C 	0.55170 0.67950 0.70910 -0.08400
C 	C 	0.53220 0.74620 0.73310 0.12300
C 	C 	0.56530 0.73750 0.77970 -0.05100
C 	C 	0.61620 0.66880 0.80710 0.11600
C 	C 	0.63860 0.60590 0.78170 -0.07600
C 	C 	0.60130 0.61460 0.73450 -0.00500
H 	H 	0.61170 0.57220 0.71930 0.03700
C 	C 	0.74780 0.65390 0.85920 -0.27800
H 	H 	0.76480 0.63970 0.89370 0.12800
H 	H 	0.77550 0.61380 0.84220 0.12300
H 	H 	0.76600 0.69910 0.84580 0.13100
C 	C 	0.39660 0.82140 0.69720 -0.22900
H 	H 	0.37490 0.86510 0.67210 0.11000
H 	H 	0.38960 0.77690 0.68560 0.10400
H 	H 	0.36400 0.82700 0.72650 0.12000
C 	C 	0.69210 0.52970 0.80610 0.08500
C 	C 	0.67610 0.50150 0.85470 -0.11700
H 	H 	0.63350 0.53040 0.87170 0.08500
C 	C 	0.72490 0.42850 0.87820 0.01900
H 	H 	0.71350 0.40790 0.91010 0.04600
C 	C 	0.79420 0.38700 0.85000 -0.07000
C 	C 	0.80980 0.41930 0.80300 0.02200
H 	H 	0.85420 0.39270 0.78580 0.04300
C 	C 	0.76000 0.49200 0.78000 -0.12100
H 	H 	0.77240 0.51370 0.74850 0.07300
C 	C 	0.85170 0.31280 0.87300 0.26700
C 	C 	0.61470 0.84560 0.80770 0.12500
C 	C 	0.60360 0.91150 0.82680 -0.09600
C 	C 	0.51760 0.94290 0.84210 0.01700
H 	H 	0.50740 0.98770 0.85470 0.03700
C 	C 	0.44930 0.90850 0.83850 -0.09600
C 	C 	0.46770 0.83800 0.82230 0.12700
C 	C 	0.54960 0.80950 0.80450 -0.04600
C 	C 	0.40270 0.73130 0.84930 -0.25600
H 	H 	0.35130 0.71320 0.84410 0.11300
H 	H 	0.45440 0.69500 0.84240 0.12100
H 	H 	0.40640 0.73830 0.88290 0.11500
C 	C 	0.71290 0.85610 0.74150 -0.28600
H 	H 	0.77470 0.84560 0.73530 0.13600
H 	H 	0.68200 0.84070 0.71650 0.13500
H 	H 	0.69090 0.90940 0.74100 0.13000
C 	C 	0.35990 0.94030 0.85550 0.17600
C 	C 	0.32030 0.01700 0.83460 -0.21000
H 	H 	0.34970 0.04280 0.81080 0.10400
C 	C 	0.23710 0.05480 0.84920 0.12100
H 	H 	0.20610 0.10110 0.83150 0.00400
C 	C 	0.20370 0.01970 0.89130 -0.20800
C 	C 	0.24240 0.94850 0.91250 0.15100
H 	H 	0.21670 0.92460 0.93910 -0.00300
C 	C 	0.32290 0.90870 0.89470 -0.21100
H 	H 	0.34990 0.86000 0.91070 0.11400
C 	C 	0.11830 0.05670 0.90760 0.39400
C 	C 	0.68080 0.94460 0.83800 0.17200
C 	C 	0.75330 0.90070 0.86240 -0.22300
H 	H 	0.76320 0.84830 0.86650 0.12300
C 	C 	0.81510 0.93340 0.88190 0.16300
H 	H 	0.86600 0.90240 0.89860 -0.00000
C 	C 	0.80170 0.00610 0.87700 -0.19100
C 	C 	0.72930 0.05760 0.84980 0.10700
H 	H 	0.72360 0.10970 0.84450 0.01200
C 	C 	0.66640 0.02500 0.83120 -0.20800
H 	H 	0.61540 0.05580 0.81450 0.10300
C 	C 	0.86660 0.04520 0.90000 0.41000
C 	C 	0.02170 0.14790 0.40970 -0.42500
H 	H 	0.98660 0.19900 0.40600 0.18000
H 	H 	0.98410 0.11420 0.40740 0.17100
H 	H 	0.05270 0.13410 0.44130 0.15700
O 	O 	0.36780 0.77020 0.35440 -0.34700
O 	O 	0.27180 0.75610 0.41380 -0.33900
O 	O 	0.93880 0.12970 0.99580 -0.48100
O 	O 	0.00090 0.22760 0.97820 -0.34300
O 	O 	0.52540 0.62520 0.35220 -0.31400
O 	O 	0.54320 0.57270 0.43340 -0.52000
O 	O 	0.34270 0.58180 0.39810 -0.46700
O 	O 	0.39050 0.47600 0.46020 -0.44500
O 	O 	0.96130 0.31250 0.22040 -0.16300
O 	O 	0.09060 0.14190 0.36720 -0.13700
O 	O 	0.16400 0.28260 0.32160 -0.15700
O 	O 	0.85550 0.29750 0.31760 -0.16600
O 	O 	0.46010 0.72390 0.47370 -0.35500
O 	O 	0.41500 0.61990 0.50060 -0.52100
O 	O 	0.92010 0.28020 0.85230 -0.35000
O 	O 	0.82280 0.27790 0.91250 -0.31900
O 	O 	0.91170 0.00330 0.93570 -0.48500
O 	O 	0.86700 0.11280 0.88110 -0.43300
O 	O 	0.09950 0.03090 0.95230 -0.49900
O 	O 	0.07730 0.12120 0.88440 -0.43600
O 	O 	0.48630 0.81450 0.70810 -0.16000
O 	O 	0.64900 0.66830 0.85280 -0.15700
O 	O 	0.39650 0.80510 0.81560 -0.16100
O 	O 	0.69970 0.81420 0.78990 -0.15700
Ca	Ca	0.50000 0.50000 0.50000 1.52000
Ca	Ca	-0.00000 0.00000 -0.00000 1.51400
