data_crystal

_cell_length_a 6.52280
_cell_length_b 13.84130
_cell_length_c 15.64050
_cell_angle_alpha 96.64100
_cell_angle_beta  93.77500
_cell_angle_gamma 94.72700

_symmetry_space_group_name_	'P 1'
_symmetry_space_group_name_H-M	'P 1'

loop_
_symmetry_equiv_pos_as_xyz
  x,y,z

loop_
_atom_site_label
_atom_site_type_symbol
_atom_site_fract_x
_atom_site_fract_y
_atom_site_fract_z
_atom_site_charge
Cu	Cu	0.69599 0.70859 0.70819 0.86500
N 	N 	0.91510 0.98330 0.98230 -0.04000
N 	N 	0.52640 0.56190 0.91370 -0.10100
N 	N 	0.80010 0.78570 0.61630 -0.20100
N 	N 	0.57660 0.63800 0.80250 -0.19400
N 	N 	0.57740 0.51190 0.98230 -0.04000
N 	N 	0.85390 0.80790 0.80230 -0.19700
N 	N 	0.51080 0.61450 0.62370 -0.19100
N 	N 	0.22910 0.54630 0.55270 -0.10300
N 	N 	0.99780 0.99550 0.53850 -0.04200
N 	N 	0.06630 0.81210 0.81880 -0.10800
N 	N 	0.94060 0.91110 0.91560 -0.10300
C 	C 	0.34080 0.63160 0.58110 0.09900
H 	H 	0.30290 0.69310 0.57190 0.00000
N 	N 	0.91400 0.90120 0.54620 -0.10300
N 	N 	0.77040 0.75060 0.52830 -0.09800
C 	C 	0.78160 0.86750 0.86040 0.10400
H 	H 	0.64350 0.87860 0.86380 -0.00200
N 	N 	0.51050 0.51350 0.62300 -0.09400
C 	C 	0.11390 0.87580 0.88670 0.10000
H 	H 	0.24690 0.89420 0.91160 0.02000
N 	N 	0.03430 0.54300 0.50970 -0.04500
N 	N 	0.36800 0.63390 0.81610 -0.10400
C 	C 	0.88250 0.87420 0.62460 0.10200
H 	H 	0.91530 0.91360 0.67680 0.00500
C 	C 	0.34000 0.47410 0.57980 0.09900
H 	H 	0.30020 0.40750 0.56910 0.02700
C 	C 	0.66890 0.59410 0.86090 0.10600
H 	H 	0.80910 0.58600 0.86600 -0.00000
C 	C 	0.83930 0.82250 0.48780 0.09500
H 	H 	0.83790 0.82070 0.42810 0.02400
C 	C 	0.34240 0.58830 0.88330 0.10200
H 	H 	0.21720 0.57570 0.90690 0.02000
Cu	Cu	0.30401 0.29141 0.29181 0.86400
N 	N 	0.08490 0.01670 0.01770 -0.04100
N 	N 	0.47360 0.43810 0.08630 -0.10200
N 	N 	0.19990 0.21430 0.38370 -0.20200
N 	N 	0.42340 0.36200 0.19750 -0.19400
N 	N 	0.42260 0.48810 0.01770 -0.04000
N 	N 	0.14610 0.19210 0.19770 -0.19700
N 	N 	0.48920 0.38550 0.37630 -0.19100
N 	N 	0.77090 0.45370 0.44730 -0.10300
N 	N 	0.00220 0.00450 0.46150 -0.04200
N 	N 	0.93370 0.18790 0.18120 -0.10800
N 	N 	0.05940 0.08890 0.08440 -0.10300
C 	C 	0.65920 0.36840 0.41890 0.09900
H 	H 	0.69710 0.30690 0.42810 0.00000
N 	N 	0.08600 0.09880 0.45380 -0.10300
N 	N 	0.22960 0.24940 0.47170 -0.09800
C 	C 	0.21840 0.13250 0.13960 0.10400
H 	H 	0.35650 0.12140 0.13620 -0.00200
N 	N 	0.48950 0.48650 0.37700 -0.09400
C 	C 	0.88610 0.12420 0.11330 0.10000
H 	H 	0.75310 0.10580 0.08840 0.02000
N 	N 	0.96570 0.45700 0.49030 -0.04500
N 	N 	0.63200 0.36610 0.18390 -0.10400
C 	C 	0.11750 0.12580 0.37540 0.10200
H 	H 	0.08470 0.08640 0.32320 0.00500
C 	C 	0.66000 0.52590 0.42020 0.09900
H 	H 	0.69980 0.59250 0.43090 0.02700
C 	C 	0.33110 0.40590 0.13910 0.10600
H 	H 	0.19090 0.41400 0.13400 -0.00000
C 	C 	0.16070 0.17750 0.51220 0.09500
H 	H 	0.16210 0.17930 0.57190 0.02400
C 	C 	0.65760 0.41170 0.11670 0.10200
H 	H 	0.78280 0.42430 0.09310 0.02000
