data_crystal

_cell_length_a 11.52800
_cell_length_b 11.52800
_cell_length_c 15.16800
_cell_angle_alpha 90.00000
_cell_angle_beta  90.00000
_cell_angle_gamma 120.00000

_symmetry_space_group_name_	'P 1'
_symmetry_space_group_name_H-M	'P 1'

loop_
_symmetry_equiv_pos_as_xyz
  x,y,z

loop_
_atom_site_label
_atom_site_type_symbol
_atom_site_fract_x
_atom_site_fract_y
_atom_site_fract_z
_atom_site_charge
C 	C 	0.08950 0.16660 0.17980 0.06500
H 	H 	0.18490 0.19860 0.18160 0.01500
H 	H 	0.06310 0.15820 0.11840 -0.01200
C 	C 	0.06310 0.26990 0.22370 -0.58300
H 	H 	0.96720 0.23500 0.22710 0.25800
H 	H 	0.09820 0.28610 0.28330 0.19700
C 	C 	0.12760 0.40090 0.17300 0.48200
O 	O 	0.24570 0.48920 0.19520 -0.48100
O 	O 	0.06640 0.41580 0.11210 -0.38900
C 	C 	0.49310 0.71640 0.92920 -0.13300
H 	H 	0.52240 0.65430 0.94710 0.09600
H 	H 	0.48110 0.70930 0.86570 0.08200
C 	C 	0.60220 0.85740 0.95170 -0.19400
H 	H 	0.58120 0.92120 0.92490 0.11700
H 	H 	0.60540 0.86990 0.01510 0.07200
C 	C 	0.73750 0.88420 0.91940 0.33900
O 	O 	0.83960 0.99060 0.94820 -0.34200
O 	O 	0.74640 0.80850 0.86550 -0.30200
C 	C 	0.83340 0.92290 0.17980 0.10400
H 	H 	0.80140 0.98630 0.18160 0.04300
H 	H 	0.84180 0.90490 0.11840 0.03500
C 	C 	0.73010 0.79320 0.22370 -0.43800
H 	H 	0.76500 0.73220 0.22710 0.18500
H 	H 	0.71390 0.81210 0.28330 0.18900
C 	C 	0.59910 0.72670 0.17300 0.44700
O 	O 	0.51080 0.75650 0.19520 -0.45900
O 	O 	0.58420 0.65060 0.11210 -0.34700
C 	C 	0.28360 0.77670 0.92920 -0.15100
H 	H 	0.34570 0.86810 0.94710 0.10900
H 	H 	0.29070 0.77180 0.86570 0.08900
C 	C 	0.14260 0.74480 0.95170 -0.17200
H 	H 	0.07880 0.66000 0.92490 0.08200
H 	H 	0.13010 0.73550 0.01510 0.05200
C 	C 	0.11580 0.85330 0.91940 0.33200
O 	O 	0.00940 0.84900 0.94820 -0.41800
O 	O 	0.19150 0.93790 0.86550 -0.29200
C 	C 	0.07710 0.91050 0.17980 -0.01300
H 	H 	0.01370 0.81510 0.18160 0.02500
H 	H 	0.09510 0.93690 0.11840 0.05300
C 	C 	0.20680 0.93690 0.22370 -0.22200
H 	H 	0.26780 0.03280 0.22710 0.06100
H 	H 	0.18790 0.90180 0.28330 0.12300
C 	C 	0.27330 0.87240 0.17300 0.38600
O 	O 	0.24350 0.75430 0.19520 -0.45500
O 	O 	0.34940 0.93360 0.11210 -0.30800
C 	C 	0.22330 0.50690 0.92920 -0.11700
H 	H 	0.13190 0.47760 0.94710 0.08000
H 	H 	0.22820 0.51890 0.86570 0.07100
C 	C 	0.25520 0.39780 0.95170 -0.21800
H 	H 	0.34000 0.41880 0.92490 0.10800
H 	H 	0.26450 0.39460 0.01510 0.07000
C 	C 	0.14670 0.26250 0.91940 0.35800
O 	O 	0.15100 0.16040 0.94820 -0.45000
O 	O 	0.06210 0.25360 0.86550 -0.37200
C 	C 	0.91050 0.83340 0.67980 0.03300
H 	H 	0.81510 0.80140 0.68160 0.04400
H 	H 	0.93690 0.84180 0.61840 0.07200
C 	C 	0.93690 0.73010 0.72370 -0.24900
H 	H 	0.03280 0.76500 0.72710 0.08400
H 	H 	0.90180 0.71390 0.78330 0.14300
C 	C 	0.87240 0.59910 0.67300 0.39300
O 	O 	0.75430 0.51080 0.69520 -0.44400
O 	O 	0.93360 0.58420 0.61210 -0.29300
C 	C 	0.50690 0.28360 0.42920 -0.07600
H 	H 	0.47760 0.34570 0.44710 0.06700
H 	H 	0.51890 0.29070 0.36570 0.06100
C 	C 	0.39780 0.14260 0.45170 -0.31200
H 	H 	0.41880 0.07880 0.42490 0.11700
H 	H 	0.39460 0.13010 0.51510 0.11900
C 	C 	0.26250 0.11580 0.41940 0.37800
O 	O 	0.16040 0.00940 0.44820 -0.48900
O 	O 	0.25360 0.19150 0.36550 -0.35500
C 	C 	0.16660 0.07710 0.67980 -0.01200
H 	H 	0.19860 0.01370 0.68160 0.01700
H 	H 	0.15820 0.09510 0.61840 0.02500
C 	C 	0.26990 0.20680 0.72370 -0.38000
H 	H 	0.23500 0.26780 0.72710 0.14700
H 	H 	0.28610 0.18790 0.78330 0.14700
C 	C 	0.40090 0.27330 0.67300 0.42400
O 	O 	0.48920 0.24350 0.69520 -0.46600
O 	O 	0.41580 0.34940 0.61210 -0.33500
C 	C 	0.71640 0.22330 0.42920 -0.05700
H 	H 	0.65430 0.13190 0.44710 0.05400
H 	H 	0.70930 0.22820 0.36570 0.05500
C 	C 	0.85740 0.25520 0.45170 -0.33600
H 	H 	0.92120 0.34000 0.42490 0.15200
H 	H 	0.86990 0.26450 0.51510 0.14100
C 	C 	0.88420 0.14670 0.41940 0.38500
O 	O 	0.99060 0.15100 0.44820 -0.40600
O 	O 	0.80850 0.06210 0.36550 -0.36000
C 	C 	0.92290 0.08950 0.67980 0.11100
H 	H 	0.98630 0.18490 0.68160 0.03800
H 	H 	0.90490 0.06310 0.61840 0.01000
C 	C 	0.79320 0.06310 0.72370 -0.59200
H 	H 	0.73220 0.96720 0.72710 0.26900
H 	H 	0.81210 0.09820 0.78330 0.21600
C 	C 	0.72670 0.12760 0.67300 0.48500
O 	O 	0.75650 0.24570 0.69520 -0.46900
O 	O 	0.65060 0.06640 0.61210 -0.37300
C 	C 	0.77670 0.49310 0.42920 -0.08800
H 	H 	0.86810 0.52240 0.44710 0.08200
H 	H 	0.77180 0.48110 0.36570 0.07200
C 	C 	0.74480 0.60220 0.45170 -0.29500
H 	H 	0.66000 0.58120 0.42490 0.12700
H 	H 	0.73550 0.60540 0.51510 0.12500
C 	C 	0.85330 0.73750 0.41940 0.36200
O 	O 	0.84900 0.83960 0.44820 -0.38300
O 	O 	0.93790 0.74640 0.36550 -0.28700
Zn	Zn	0.33333 0.66667 0.13592 1.20300
P 	P 	0.33333 0.66667 0.98052 -0.01000
Zn	Zn	0.66667 0.33333 0.63592 1.20800
P 	P 	0.66667 0.33333 0.48052 -0.06200
P 	P 	-0.00000 0.00000 0.23164 -0.22000
Zn	Zn	0.00000 0.00000 0.38890 1.17200
P 	P 	0.00000 0.00000 0.73164 -0.21800
Zn	Zn	-0.00000 0.00000 0.88890 1.17200
