data_crystal

_cell_length_a 7.56900
_cell_length_b 7.82100
_cell_length_c 18.03300
_cell_angle_alpha 90.00000
_cell_angle_beta  98.80000
_cell_angle_gamma 90.00000

_symmetry_space_group_name_	'P 1'
_symmetry_space_group_name_H-M	'P 1'

loop_
_symmetry_equiv_pos_as_xyz
  x,y,z

loop_
_atom_site_label
_atom_site_type_symbol
_atom_site_fract_x
_atom_site_fract_y
_atom_site_fract_z
_atom_site_charge
Fe	Fe	0.36590 0.05650 0.63520 1.19800
Fe	Fe	0.71220 0.79800 0.69010 1.20000
P 	P 	0.55400 0.41710 0.69090 0.52500
O 	O 	0.42200 0.30650 0.63990 -0.39000
O 	O 	0.19510 0.84840 0.61690 -0.33600
O 	O 	0.58470 0.94650 0.59260 -0.45400
O 	O 	0.50590 0.93390 0.73220 -0.51300
O 	O 	0.29820 0.09770 0.51240 -0.31800
O 	O 	0.13910 0.12990 0.69740 -0.39100
O 	O 	0.57880 0.58880 0.65600 -0.39100
O 	O 	0.94340 0.73580 0.64280 -0.31000
O 	O 	0.88180 0.01190 0.72120 -0.32300
O 	O 	0.74510 0.33070 0.70030 -0.22500
C 	C 	0.05770 0.85250 0.64690 0.24300
C 	C 	0.02420 0.01320 0.69350 0.23900
C 	C 	0.58380 0.95560 0.52220 0.25200
Fe	Fe	0.63410 0.55650 0.86480 1.19700
Fe	Fe	0.28780 0.29800 0.80990 1.19900
P 	P 	0.44600 0.91710 0.80910 0.52400
O 	O 	0.57800 0.80650 0.86010 -0.39100
O 	O 	0.80490 0.34840 0.88310 -0.33700
O 	O 	0.41530 0.44650 0.90740 -0.45500
O 	O 	0.49410 0.43390 0.76780 -0.51300
O 	O 	0.70180 0.59770 0.98760 -0.31800
O 	O 	0.86090 0.62990 0.80260 -0.39300
O 	O 	0.42120 0.08880 0.84400 -0.39100
O 	O 	0.05660 0.23580 0.85720 -0.30900
O 	O 	0.11820 0.51190 0.77880 -0.32600
O 	O 	0.25490 0.83070 0.79970 -0.22500
C 	C 	0.94230 0.35250 0.85310 0.23800
C 	C 	0.97580 0.51320 0.80650 0.24500
C 	C 	0.41620 0.45560 0.97780 0.25200
Fe	Fe	0.63410 0.94350 0.36480 1.19700
Fe	Fe	0.28780 0.20200 0.30990 1.19900
P 	P 	0.44600 0.58290 0.30910 0.52400
O 	O 	0.57800 0.69350 0.36010 -0.39100
O 	O 	0.80490 0.15160 0.38310 -0.33700
O 	O 	0.41530 0.05350 0.40740 -0.45500
O 	O 	0.49410 0.06610 0.26780 -0.51300
O 	O 	0.70180 0.90230 0.48760 -0.31800
O 	O 	0.86090 0.87010 0.30260 -0.39100
O 	O 	0.42120 0.41120 0.34400 -0.39100
O 	O 	0.05660 0.26420 0.35720 -0.31000
O 	O 	0.11820 0.98810 0.27880 -0.32300
O 	O 	0.25490 0.66930 0.29970 -0.22500
C 	C 	0.94230 0.14750 0.35310 0.24300
C 	C 	0.97580 0.98680 0.30650 0.23900
C 	C 	0.41620 0.04440 0.47780 0.25200
Fe	Fe	0.36590 0.44350 0.13520 1.19700
Fe	Fe	0.71220 0.70200 0.19010 1.19900
P 	P 	0.55400 0.08290 0.19090 0.52400
O 	O 	0.42200 0.19350 0.13990 -0.39100
O 	O 	0.19510 0.65160 0.11690 -0.33700
O 	O 	0.58470 0.55350 0.09260 -0.45500
O 	O 	0.50590 0.56610 0.23220 -0.51300
O 	O 	0.29820 0.40230 0.01240 -0.31800
O 	O 	0.13910 0.37010 0.19740 -0.39300
O 	O 	0.57880 0.91120 0.15600 -0.39100
O 	O 	0.94340 0.76420 0.14280 -0.30900
O 	O 	0.88180 0.48810 0.22120 -0.32600
O 	O 	0.74510 0.16930 0.20030 -0.22500
C 	C 	0.05770 0.64750 0.14690 0.23800
C 	C 	0.02420 0.48680 0.19350 0.24500
C 	C 	0.58380 0.54440 0.02220 0.25200
