data_crystal

_cell_length_a 5.04000
_cell_length_b 22.73800
_cell_length_c 9.29680
_cell_angle_alpha 90.00000
_cell_angle_beta  103.80000
_cell_angle_gamma 90.00000

_symmetry_space_group_name_	'P 1'
_symmetry_space_group_name_H-M	'P 1'

loop_
_symmetry_equiv_pos_as_xyz
  x,y,z

loop_
_atom_site_label
_atom_site_type_symbol
_atom_site_fract_x
_atom_site_fract_y
_atom_site_fract_z
_atom_site_charge
Ga	Ga	0.81950 0.21119 0.74583 2.07900
Ga	Ga	0.17960 0.06307 0.60166 2.08400
Ga	Ga	0.93190 0.92714 0.01698 2.07500
Ga	Ga	0.57130 0.07737 0.15127 2.08300
P 	P 	0.35000 0.15500 0.87770 0.65500
P 	P 	0.11610 0.01690 0.26910 0.67200
P 	P 	0.40520 0.98278 0.87700 0.65500
P 	P 	0.31700 0.83047 0.13620 0.54300
P 	P 	0.63140 0.12765 0.48410 0.62800
O 	O 	0.76490 0.18660 0.55610 -0.63100
O 	O 	0.28210 0.78900 0.25990 -0.58500
O 	O 	0.17960 0.21400 0.85150 -0.59800
O 	O 	0.63460 0.16740 0.85370 -0.66100
O 	O 	0.18920 0.11050 0.77800 -0.65800
O 	O 	0.80170 0.07510 0.54810 -0.65300
O 	O 	0.35190 0.00090 0.71340 -0.56900
O 	O 	0.13820 0.00980 0.43460 -0.51700
O 	O 	0.34600 0.12310 0.51470 -0.61200
O 	O 	0.03460 0.85060 0.04390 -0.59000
O 	O 	0.58860 0.92820 0.89720 -0.62000
O 	O 	0.12920 0.96790 0.90730 -0.65700
O 	O 	0.97300 0.96170 0.19810 -0.66700
O 	O 	0.38610 0.14150 0.04280 -0.55500
O 	O 	0.55280 0.03210 0.97620 -0.64000
O 	O 	0.60950 0.13670 0.31980 -0.47100
O 	O 	0.40330 0.02300 0.24350 -0.63400
O 	O 	0.95270 0.07270 0.20460 -0.64400
O 	O 	0.42510 0.79280 0.01920 -0.21100
O 	O 	0.50430 0.88020 0.19720 -0.29900
Ga	Ga	0.18050 0.71119 0.25417 2.07800
Ga	Ga	0.82040 0.56307 0.39834 2.08500
Ga	Ga	0.06810 0.42714 0.98302 2.07500
Ga	Ga	0.42870 0.57737 0.84873 2.08200
P 	P 	0.65000 0.65500 0.12230 0.65600
P 	P 	0.88390 0.51690 0.73090 0.66200
P 	P 	0.59480 0.48278 0.12300 0.68100
P 	P 	0.68300 0.33047 0.86380 0.54300
P 	P 	0.36860 0.62765 0.51590 0.62800
O 	O 	0.23510 0.68660 0.44390 -0.63200
O 	O 	0.71790 0.28900 0.74010 -0.58300
O 	O 	0.82040 0.71400 0.14850 -0.59700
O 	O 	0.36540 0.66740 0.14630 -0.66200
O 	O 	0.81080 0.61050 0.22200 -0.65900
O 	O 	0.19830 0.57510 0.45190 -0.65700
O 	O 	0.64810 0.50090 0.28660 -0.58500
O 	O 	0.86180 0.50980 0.56540 -0.51900
O 	O 	0.65400 0.62310 0.48530 -0.61100
O 	O 	0.96540 0.35060 0.95610 -0.58900
O 	O 	0.41140 0.42820 0.10280 -0.61900
O 	O 	0.87080 0.46790 0.09270 -0.65100
O 	O 	0.02700 0.46170 0.80190 -0.65300
O 	O 	0.61390 0.64150 0.95720 -0.55700
O 	O 	0.44720 0.53210 0.02380 -0.65300
O 	O 	0.39050 0.63670 0.68020 -0.47200
O 	O 	0.59670 0.52300 0.75650 -0.63900
O 	O 	0.04730 0.57270 0.79540 -0.64700
O 	O 	0.57490 0.29280 0.98080 -0.21100
O 	O 	0.49570 0.38020 0.80280 -0.29600
