data_crystal

_cell_length_a 15.33800
_cell_length_b 22.10000
_cell_length_c 16.42500
_cell_angle_alpha 90.00000
_cell_angle_beta  102.64000
_cell_angle_gamma 90.00000

_symmetry_space_group_name_	'P 1'
_symmetry_space_group_name_H-M	'P 1'

loop_
_symmetry_equiv_pos_as_xyz
  x,y,z

loop_
_atom_site_label
_atom_site_type_symbol
_atom_site_fract_x
_atom_site_fract_y
_atom_site_fract_z
_atom_site_charge
Mn	Mn	0.45457 0.49178 0.63591 1.31100
O 	O 	0.37050 0.55813 0.67000 -0.46700
O 	O 	0.23350 0.53870 0.60230 -0.27000
O 	O 	0.62427 0.57487 0.31838 -0.43900
O 	O 	0.57584 0.55111 0.18423 -0.48700
O 	O 	0.00971 0.93654 0.08083 -0.43900
O 	O 	0.07965 0.94096 0.97654 -0.41600
O 	O 	0.09680 0.71739 0.89786 -0.22100
O 	O 	0.92675 0.71720 0.10070 -0.22000
C 	C 	0.16680 0.63240 0.68160 0.09900
H 	H 	0.13070 0.61520 0.63450 0.02000
C 	C 	0.13150 0.67550 0.72520 -0.17400
H 	H 	0.07250 0.68790 0.70700 0.10800
C 	C 	0.18480 0.70053 0.79725 0.13700
C 	C 	0.27220 0.68246 0.82280 -0.17400
H 	H 	0.30780 0.69910 0.87070 0.10200
C 	C 	0.30770 0.63916 0.77730 0.09400
H 	H 	0.36700 0.62710 0.79480 0.01100
C 	C 	0.25460 0.61420 0.70600 -0.15700
C 	C 	0.73640 0.68813 0.11920 -0.17900
H 	H 	0.72530 0.70470 0.06590 0.10400
C 	C 	0.67550 0.64750 0.13990 0.10700
H 	H 	0.62450 0.63680 0.10050 0.00600
C 	C 	0.69091 0.62316 0.21909 -0.16800
C 	C 	0.76670 0.63936 0.27608 0.10600
H 	H 	0.77730 0.62340 0.32970 0.01700
C 	C 	0.82780 0.67936 0.25470 -0.18300
H 	H 	0.87940 0.68950 0.29370 0.10700
C 	C 	0.81230 0.70418 0.17570 0.14600
C 	C 	0.01390 0.72092 0.00100 -0.29200
H 	H 	0.00870 0.67910 0.99670 0.15900
C 	C 	0.97460 0.75231 0.05711 0.25500
C 	C 	0.98415 0.81454 0.06572 -0.21500
H 	H 	0.95910 0.83530 0.10420 0.11800
C 	C 	0.03173 0.84533 0.01591 0.04300
C 	C 	0.07017 0.81508 0.95796 -0.21600
H 	H 	0.10130 0.83630 0.92440 0.12300
C 	C 	0.06100 0.75260 0.95146 0.25700
C 	C 	0.29130 0.56650 0.65620 0.40200
C 	C 	0.62420 0.57962 0.24200 0.42000
C 	C 	0.03976 0.91296 0.02480 0.36500
C 	C 	0.14710 0.74803 0.84600 -0.07300
H 	H 	0.19520 0.77130 0.88010 0.06200
H 	H 	0.10870 0.77550 0.80810 0.06000
C 	C 	0.87650 0.74896 0.15160 -0.07600
H 	H 	0.84400 0.78240 0.12070 0.05900
H 	H 	0.91630 0.76500 0.20110 0.05900
Mn	Mn	0.95457 0.99178 0.63591 1.31200
O 	O 	0.87050 0.05813 0.67000 -0.46500
O 	O 	0.73350 0.03870 0.60230 -0.26800
O 	O 	0.12427 0.07487 0.31838 -0.43700
O 	O 	0.07584 0.05111 0.18423 -0.48600
O 	O 	0.50971 0.43654 0.08083 -0.44000
O 	O 	0.57965 0.44096 0.97654 -0.41200
O 	O 	0.59680 0.21739 0.89786 -0.22200
O 	O 	0.42675 0.21720 0.10070 -0.22200
C 	C 	0.66680 0.13240 0.68160 0.10000
H 	H 	0.63070 0.11520 0.63450 0.02000
C 	C 	0.63150 0.17550 0.72520 -0.17400
H 	H 	0.57250 0.18790 0.70700 0.10800
C 	C 	0.68480 0.20053 0.79725 0.13700
C 	C 	0.77220 0.18246 0.82280 -0.17400
H 	H 	0.80780 0.19910 0.87070 0.10300
C 	C 	0.80770 0.13916 0.77730 0.09400
H 	H 	0.86700 0.12710 0.79480 0.01100
C 	C 	0.75460 0.11420 0.70600 -0.15600
C 	C 	0.23640 0.18813 0.11920 -0.17900
H 	H 	0.22530 0.20470 0.06590 0.10400
C 	C 	0.17550 0.14750 0.13990 0.10700
H 	H 	0.12450 0.13680 0.10050 0.00600
C 	C 	0.19091 0.12316 0.21909 -0.16800
C 	C 	0.26670 0.13936 0.27608 0.10600
H 	H 	0.27730 0.12340 0.32970 0.01700
C 	C 	0.32780 0.17936 0.25470 -0.18300
H 	H 	0.37940 0.18950 0.29370 0.10700
C 	C 	0.31230 0.20418 0.17570 0.14500
C 	C 	0.51390 0.22092 0.00100 -0.31300
H 	H 	0.50870 0.17910 0.99670 0.17000
C 	C 	0.47460 0.25231 0.05711 0.26400
C 	C 	0.48415 0.31454 0.06572 -0.21700
H 	H 	0.45910 0.33530 0.10420 0.11900
C 	C 	0.53173 0.34533 0.01591 0.04100
C 	C 	0.57017 0.31508 0.95796 -0.21600
H 	H 	0.60130 0.33630 0.92440 0.12400
C 	C 	0.56100 0.25260 0.95146 0.26700
C 	C 	0.79130 0.06650 0.65620 0.40200
C 	C 	0.12420 0.07962 0.24200 0.42000
C 	C 	0.53976 0.41296 0.02480 0.36000
C 	C 	0.64710 0.24803 0.84600 -0.07300
H 	H 	0.69520 0.27130 0.88010 0.06200
H 	H 	0.60870 0.27550 0.80810 0.06000
C 	C 	0.37650 0.24896 0.15160 -0.07500
H 	H 	0.34400 0.28240 0.12070 0.05800
H 	H 	0.41630 0.26500 0.20110 0.05800
Mn	Mn	0.54543 0.49178 0.86409 1.31200
O 	O 	0.62950 0.55813 0.83000 -0.46600
O 	O 	0.76650 0.53870 0.89770 -0.26800
O 	O 	0.37573 0.57487 0.18162 -0.43800
O 	O 	0.42416 0.55111 0.31577 -0.48700
O 	O 	0.99029 0.93654 0.41917 -0.44000
O 	O 	0.92035 0.94096 0.52346 -0.41200
O 	O 	0.90320 0.71739 0.60214 -0.22200
O 	O 	0.07325 0.71720 0.39930 -0.22100
C 	C 	0.83320 0.63240 0.81840 0.10000
H 	H 	0.86930 0.61520 0.86550 0.02100
C 	C 	0.86850 0.67550 0.77480 -0.17400
H 	H 	0.92750 0.68790 0.79300 0.10900
C 	C 	0.81520 0.70053 0.70275 0.13700
C 	C 	0.72780 0.68246 0.67720 -0.17400
H 	H 	0.69220 0.69910 0.62930 0.10300
C 	C 	0.69230 0.63916 0.72270 0.09400
H 	H 	0.63300 0.62710 0.70520 0.01000
C 	C 	0.74540 0.61420 0.79400 -0.15700
C 	C 	0.26360 0.68813 0.38080 -0.17900
H 	H 	0.27470 0.70470 0.43410 0.10400
C 	C 	0.32450 0.64750 0.36010 0.10700
H 	H 	0.37550 0.63680 0.39950 0.00600
C 	C 	0.30909 0.62316 0.28091 -0.16800
C 	C 	0.23330 0.63936 0.22392 0.10600
H 	H 	0.22270 0.62340 0.17030 0.01700
C 	C 	0.17220 0.67936 0.24530 -0.18300
H 	H 	0.12060 0.68950 0.20630 0.10800
C 	C 	0.18770 0.70418 0.32430 0.14600
C 	C 	0.98610 0.72092 0.49900 -0.30600
H 	H 	0.99130 0.67910 0.50330 0.16700
C 	C 	0.02540 0.75231 0.44289 0.26200
C 	C 	0.01585 0.81454 0.43428 -0.21500
H 	H 	0.04090 0.83530 0.39580 0.11800
C 	C 	0.96827 0.84533 0.48409 0.04100
C 	C 	0.92983 0.81508 0.54204 -0.21500
H 	H 	0.89870 0.83630 0.57560 0.12300
C 	C 	0.93900 0.75260 0.54854 0.26400
C 	C 	0.70870 0.56650 0.84380 0.40200
C 	C 	0.37580 0.57962 0.25800 0.42000
C 	C 	0.96024 0.91296 0.47520 0.36100
C 	C 	0.85290 0.74803 0.65400 -0.07300
H 	H 	0.80480 0.77130 0.61990 0.06200
H 	H 	0.89130 0.77550 0.69190 0.06000
C 	C 	0.12350 0.74896 0.34840 -0.07600
H 	H 	0.15600 0.78240 0.37930 0.05900
H 	H 	0.08370 0.76500 0.29890 0.05900
Mn	Mn	0.04543 0.99178 0.86409 1.31100
O 	O 	0.12950 0.05813 0.83000 -0.46500
O 	O 	0.26650 0.03870 0.89770 -0.26800
O 	O 	0.87573 0.07487 0.18162 -0.43800
O 	O 	0.92416 0.05111 0.31577 -0.48700
O 	O 	0.49029 0.43654 0.41917 -0.44000
O 	O 	0.42035 0.44096 0.52346 -0.41200
O 	O 	0.40320 0.21739 0.60214 -0.22200
O 	O 	0.57325 0.21720 0.39930 -0.22100
C 	C 	0.33320 0.13240 0.81840 0.09900
H 	H 	0.36930 0.11520 0.86550 0.02100
C 	C 	0.36850 0.17550 0.77480 -0.17400
H 	H 	0.42750 0.18790 0.79300 0.10800
C 	C 	0.31520 0.20053 0.70275 0.13700
C 	C 	0.22780 0.18246 0.67720 -0.17400
H 	H 	0.19220 0.19910 0.62930 0.10300
C 	C 	0.19230 0.13916 0.72270 0.09400
H 	H 	0.13300 0.12710 0.70520 0.01100
C 	C 	0.24540 0.11420 0.79400 -0.15600
C 	C 	0.76360 0.18813 0.38080 -0.17900
H 	H 	0.77470 0.20470 0.43410 0.10400
C 	C 	0.82450 0.14750 0.36010 0.10700
H 	H 	0.87550 0.13680 0.39950 0.00600
C 	C 	0.80909 0.12316 0.28091 -0.16800
C 	C 	0.73330 0.13936 0.22392 0.10600
H 	H 	0.72270 0.12340 0.17030 0.01700
C 	C 	0.67220 0.17936 0.24530 -0.18300
H 	H 	0.62060 0.18950 0.20630 0.10700
C 	C 	0.68770 0.20418 0.32430 0.14600
C 	C 	0.48610 0.22092 0.49900 -0.30600
H 	H 	0.49130 0.17910 0.50330 0.16700
C 	C 	0.52540 0.25231 0.44289 0.26100
C 	C 	0.51585 0.31454 0.43428 -0.21500
H 	H 	0.54090 0.33530 0.39580 0.11800
C 	C 	0.46827 0.34533 0.48409 0.04100
C 	C 	0.42983 0.31508 0.54204 -0.21500
H 	H 	0.39870 0.33630 0.57560 0.12300
C 	C 	0.43900 0.25260 0.54854 0.26300
C 	C 	0.20870 0.06650 0.84380 0.40200
C 	C 	0.87580 0.07962 0.25800 0.42000
C 	C 	0.46024 0.41296 0.47520 0.36100
C 	C 	0.35290 0.24803 0.65400 -0.07300
H 	H 	0.30480 0.27130 0.61990 0.06200
H 	H 	0.39130 0.27550 0.69190 0.06000
C 	C 	0.62350 0.24896 0.34840 -0.07600
H 	H 	0.65600 0.28240 0.37930 0.05900
H 	H 	0.58370 0.26500 0.29890 0.05900
Mn	Mn	0.54543 0.50822 0.36409 1.31200
O 	O 	0.62950 0.44187 0.33000 -0.46600
O 	O 	0.76650 0.46130 0.39770 -0.26900
O 	O 	0.37573 0.42513 0.68162 -0.43800
O 	O 	0.42416 0.44889 0.81577 -0.48700
O 	O 	0.99029 0.06346 0.91917 -0.43900
O 	O 	0.92035 0.05904 0.02346 -0.41600
O 	O 	0.90320 0.28261 0.10214 -0.22100
O 	O 	0.07325 0.28280 0.89930 -0.22000
C 	C 	0.83320 0.36760 0.31840 0.09900
H 	H 	0.86930 0.38480 0.36550 0.02000
C 	C 	0.86850 0.32450 0.27480 -0.17400
H 	H 	0.92750 0.31210 0.29300 0.10800
C 	C 	0.81520 0.29947 0.20275 0.13700
C 	C 	0.72780 0.31754 0.17720 -0.17400
H 	H 	0.69220 0.30090 0.12930 0.10200
C 	C 	0.69230 0.36084 0.22270 0.09400
H 	H 	0.63300 0.37290 0.20520 0.01100
C 	C 	0.74540 0.38580 0.29400 -0.15700
C 	C 	0.26360 0.31187 0.88080 -0.17900
H 	H 	0.27470 0.29530 0.93410 0.10400
C 	C 	0.32450 0.35250 0.86010 0.10700
H 	H 	0.37550 0.36320 0.89950 0.00600
C 	C 	0.30909 0.37684 0.78091 -0.16800
C 	C 	0.23330 0.36064 0.72392 0.10600
H 	H 	0.22270 0.37660 0.67030 0.01700
C 	C 	0.17220 0.32064 0.74530 -0.18300
H 	H 	0.12060 0.31050 0.70630 0.10700
C 	C 	0.18770 0.29582 0.82430 0.14600
C 	C 	0.98610 0.27908 0.99900 -0.29200
H 	H 	0.99130 0.32090 0.00330 0.15900
C 	C 	0.02540 0.24769 0.94289 0.25500
C 	C 	0.01585 0.18546 0.93428 -0.21500
H 	H 	0.04090 0.16470 0.89580 0.11800
C 	C 	0.96827 0.15467 0.98409 0.04300
C 	C 	0.92983 0.18492 0.04204 -0.21600
H 	H 	0.89870 0.16370 0.07560 0.12300
C 	C 	0.93900 0.24740 0.04854 0.25700
C 	C 	0.70870 0.43350 0.34380 0.40200
C 	C 	0.37580 0.42038 0.75800 0.42000
C 	C 	0.96024 0.08704 0.97520 0.36500
C 	C 	0.85290 0.25197 0.15400 -0.07300
H 	H 	0.80480 0.22870 0.11990 0.06200
H 	H 	0.89130 0.22450 0.19190 0.06000
C 	C 	0.12350 0.25104 0.84840 -0.07600
H 	H 	0.15600 0.21760 0.87930 0.05900
H 	H 	0.08370 0.23500 0.79890 0.05900
Mn	Mn	0.04543 0.00822 0.36409 1.31200
O 	O 	0.12950 0.94187 0.33000 -0.46500
O 	O 	0.26650 0.96130 0.39770 -0.26800
O 	O 	0.87573 0.92513 0.68162 -0.43700
O 	O 	0.92416 0.94889 0.81577 -0.48600
O 	O 	0.49029 0.56346 0.91917 -0.44000
O 	O 	0.42035 0.55904 0.02346 -0.41200
O 	O 	0.40320 0.78261 0.10214 -0.22200
O 	O 	0.57325 0.78280 0.89930 -0.22200
C 	C 	0.33320 0.86760 0.31840 0.10000
H 	H 	0.36930 0.88480 0.36550 0.02000
C 	C 	0.36850 0.82450 0.27480 -0.17400
H 	H 	0.42750 0.81210 0.29300 0.10800
C 	C 	0.31520 0.79947 0.20275 0.13700
C 	C 	0.22780 0.81754 0.17720 -0.17400
H 	H 	0.19220 0.80090 0.12930 0.10300
C 	C 	0.19230 0.86084 0.22270 0.09400
H 	H 	0.13300 0.87290 0.20520 0.01100
C 	C 	0.24540 0.88580 0.29400 -0.15600
C 	C 	0.76360 0.81187 0.88080 -0.17900
H 	H 	0.77470 0.79530 0.93410 0.10400
C 	C 	0.82450 0.85250 0.86010 0.10700
H 	H 	0.87550 0.86320 0.89950 0.00600
C 	C 	0.80909 0.87684 0.78091 -0.16800
C 	C 	0.73330 0.86064 0.72392 0.10600
H 	H 	0.72270 0.87660 0.67030 0.01700
C 	C 	0.67220 0.82064 0.74530 -0.18300
H 	H 	0.62060 0.81050 0.70630 0.10700
C 	C 	0.68770 0.79582 0.82430 0.14500
C 	C 	0.48610 0.77908 0.99900 -0.31300
H 	H 	0.49130 0.82090 0.00330 0.17000
C 	C 	0.52540 0.74769 0.94289 0.26400
C 	C 	0.51585 0.68546 0.93428 -0.21700
H 	H 	0.54090 0.66470 0.89580 0.11900
C 	C 	0.46827 0.65467 0.98409 0.04100
C 	C 	0.42983 0.68492 0.04204 -0.21600
H 	H 	0.39870 0.66370 0.07560 0.12400
C 	C 	0.43900 0.74740 0.04854 0.26700
C 	C 	0.20870 0.93350 0.34380 0.40200
C 	C 	0.87580 0.92038 0.75800 0.42000
C 	C 	0.46024 0.58704 0.97520 0.36000
C 	C 	0.35290 0.75197 0.15400 -0.07300
H 	H 	0.30480 0.72870 0.11990 0.06200
H 	H 	0.39130 0.72450 0.19190 0.06000
C 	C 	0.62350 0.75104 0.84840 -0.07500
H 	H 	0.65600 0.71760 0.87930 0.05800
H 	H 	0.58370 0.73500 0.79890 0.05800
Mn	Mn	0.45457 0.50822 0.13591 1.31200
O 	O 	0.37050 0.44187 0.17000 -0.46600
O 	O 	0.23350 0.46130 0.10230 -0.26800
O 	O 	0.62427 0.42513 0.81838 -0.43800
O 	O 	0.57584 0.44889 0.68423 -0.48700
O 	O 	0.00971 0.06346 0.58083 -0.44000
O 	O 	0.07965 0.05904 0.47654 -0.41200
O 	O 	0.09680 0.28261 0.39786 -0.22200
O 	O 	0.92675 0.28280 0.60070 -0.22100
C 	C 	0.16680 0.36760 0.18160 0.10000
H 	H 	0.13070 0.38480 0.13450 0.02100
C 	C 	0.13150 0.32450 0.22520 -0.17400
H 	H 	0.07250 0.31210 0.20700 0.10900
C 	C 	0.18480 0.29947 0.29725 0.13700
C 	C 	0.27220 0.31754 0.32280 -0.17400
H 	H 	0.30780 0.30090 0.37070 0.10300
C 	C 	0.30770 0.36084 0.27730 0.09400
H 	H 	0.36700 0.37290 0.29480 0.01000
C 	C 	0.25460 0.38580 0.20600 -0.15700
C 	C 	0.73640 0.31187 0.61920 -0.17900
H 	H 	0.72530 0.29530 0.56590 0.10400
C 	C 	0.67550 0.35250 0.63990 0.10700
H 	H 	0.62450 0.36320 0.60050 0.00600
C 	C 	0.69091 0.37684 0.71909 -0.16800
C 	C 	0.76670 0.36064 0.77608 0.10600
H 	H 	0.77730 0.37660 0.82970 0.01700
C 	C 	0.82780 0.32064 0.75470 -0.18300
H 	H 	0.87940 0.31050 0.79370 0.10800
C 	C 	0.81230 0.29582 0.67570 0.14600
C 	C 	0.01390 0.27908 0.50100 -0.30600
H 	H 	0.00870 0.32090 0.49670 0.16700
C 	C 	0.97460 0.24769 0.55711 0.26200
C 	C 	0.98415 0.18546 0.56572 -0.21500
H 	H 	0.95910 0.16470 0.60420 0.11800
C 	C 	0.03173 0.15467 0.51591 0.04100
C 	C 	0.07017 0.18492 0.45796 -0.21500
H 	H 	0.10130 0.16370 0.42440 0.12300
C 	C 	0.06100 0.24740 0.45146 0.26400
C 	C 	0.29130 0.43350 0.15620 0.40200
C 	C 	0.62420 0.42038 0.74200 0.42000
C 	C 	0.03976 0.08704 0.52480 0.36100
C 	C 	0.14710 0.25197 0.34600 -0.07300
H 	H 	0.19520 0.22870 0.38010 0.06200
H 	H 	0.10870 0.22450 0.30810 0.06000
C 	C 	0.87650 0.25104 0.65160 -0.07600
H 	H 	0.84400 0.21760 0.62070 0.05900
H 	H 	0.91630 0.23500 0.70110 0.05900
Mn	Mn	0.95457 0.00822 0.13591 1.31100
O 	O 	0.87050 0.94187 0.17000 -0.46500
O 	O 	0.73350 0.96130 0.10230 -0.26800
O 	O 	0.12427 0.92513 0.81838 -0.43800
O 	O 	0.07584 0.94889 0.68423 -0.48700
O 	O 	0.50971 0.56346 0.58083 -0.44000
O 	O 	0.57965 0.55904 0.47654 -0.41200
O 	O 	0.59680 0.78261 0.39786 -0.22200
O 	O 	0.42675 0.78280 0.60070 -0.22100
C 	C 	0.66680 0.86760 0.18160 0.09900
H 	H 	0.63070 0.88480 0.13450 0.02100
C 	C 	0.63150 0.82450 0.22520 -0.17400
H 	H 	0.57250 0.81210 0.20700 0.10800
C 	C 	0.68480 0.79947 0.29725 0.13700
C 	C 	0.77220 0.81754 0.32280 -0.17400
H 	H 	0.80780 0.80090 0.37070 0.10300
C 	C 	0.80770 0.86084 0.27730 0.09400
H 	H 	0.86700 0.87290 0.29480 0.01100
C 	C 	0.75460 0.88580 0.20600 -0.15600
C 	C 	0.23640 0.81187 0.61920 -0.17900
H 	H 	0.22530 0.79530 0.56590 0.10400
C 	C 	0.17550 0.85250 0.63990 0.10700
H 	H 	0.12450 0.86320 0.60050 0.00600
C 	C 	0.19091 0.87684 0.71909 -0.16800
C 	C 	0.26670 0.86064 0.77608 0.10600
H 	H 	0.27730 0.87660 0.82970 0.01700
C 	C 	0.32780 0.82064 0.75470 -0.18300
H 	H 	0.37940 0.81050 0.79370 0.10700
C 	C 	0.31230 0.79582 0.67570 0.14600
C 	C 	0.51390 0.77908 0.50100 -0.30600
H 	H 	0.50870 0.82090 0.49670 0.16700
C 	C 	0.47460 0.74769 0.55711 0.26100
C 	C 	0.48415 0.68546 0.56572 -0.21500
H 	H 	0.45910 0.66470 0.60420 0.11800
C 	C 	0.53173 0.65467 0.51591 0.04100
C 	C 	0.57017 0.68492 0.45796 -0.21500
H 	H 	0.60130 0.66370 0.42440 0.12300
C 	C 	0.56100 0.74740 0.45146 0.26300
C 	C 	0.79130 0.93350 0.15620 0.40200
C 	C 	0.12420 0.92038 0.74200 0.42000
C 	C 	0.53976 0.58704 0.52480 0.36100
C 	C 	0.64710 0.75197 0.34600 -0.07300
H 	H 	0.69520 0.72870 0.38010 0.06200
H 	H 	0.60870 0.72450 0.30810 0.06000
C 	C 	0.37650 0.75104 0.65160 -0.07600
H 	H 	0.34400 0.71760 0.62070 0.05900
H 	H 	0.41630 0.73500 0.70110 0.05900
