data_crystal

_cell_length_a 13.63090
_cell_length_b 13.63090
_cell_length_c 13.63090
_cell_angle_alpha 105.85000
_cell_angle_beta  109.73700
_cell_angle_gamma 112.90300

_symmetry_space_group_name_	'P 1'
_symmetry_space_group_name_H-M	'P 1'

loop_
_symmetry_equiv_pos_as_xyz
  x,y,z

loop_
_atom_site_label
_atom_site_type_symbol
_atom_site_fract_x
_atom_site_fract_y
_atom_site_fract_z
_atom_site_charge
Co	Co	-0.00000 0.50000 0.50000 1.13700
Co	Co	0.50000 1.00000 0.50000 1.12900
H 	H 	0.95860 0.63850 0.35710 -0.01700
H 	H 	0.95890 0.65680 0.19650 0.08600
H 	H 	0.98750 0.36660 0.11010 0.10900
H 	H 	0.98780 0.35720 0.26840 -0.01500
H 	H 	0.97920 0.58980 0.02480 0.04700
H 	H 	0.28140 0.60150 0.64290 -0.02900
H 	H 	0.46030 0.76240 0.80350 0.09300
H 	H 	0.25650 0.87740 0.88990 0.11300
H 	H 	0.08880 0.71940 0.73160 -0.03200
H 	H 	0.56500 0.95440 0.97520 0.08300
H 	H 	0.54140 0.89850 0.67990 -0.02800
H 	H 	0.54110 0.73760 0.69790 0.08500
H 	H 	0.51250 0.62260 0.37910 0.10500
H 	H 	0.51220 0.78060 0.36940 -0.02300
H 	H 	0.52080 0.54560 0.61060 0.05900
H 	H 	0.21860 0.86150 0.32010 -0.01900
H 	H 	0.03970 0.84320 0.30210 0.07100
H 	H 	0.24350 0.13340 0.62090 0.11000
H 	H 	0.41120 0.14280 0.63060 -0.01200
H 	H 	0.93500 0.91020 0.38940 0.15600
H 	H 	0.04140 0.36150 0.64290 -0.03000
H 	H 	0.04110 0.34320 0.80350 0.08400
H 	H 	0.01250 0.63340 0.88990 0.10300
H 	H 	0.01220 0.64280 0.73160 -0.02400
H 	H 	0.02080 0.41020 0.97520 0.06800
H 	H 	0.71860 0.39850 0.35710 -0.01900
H 	H 	0.53970 0.23760 0.19650 0.07700
H 	H 	0.74350 0.12260 0.11010 0.09800
H 	H 	0.91120 0.28060 0.26840 -0.00700
H 	H 	0.43500 0.04560 0.02480 0.03200
H 	H 	0.45860 0.10150 0.32010 -0.01900
H 	H 	0.45890 0.26240 0.30210 0.08500
H 	H 	0.48750 0.37740 0.62090 0.10600
H 	H 	0.48780 0.21940 0.63060 -0.01600
H 	H 	0.47920 0.45440 0.38940 0.05600
H 	H 	0.78140 0.13850 0.67990 -0.02800
H 	H 	0.96030 0.15680 0.69790 0.09900
H 	H 	0.75650 0.86660 0.37910 0.10100
H 	H 	0.58880 0.85720 0.36940 -0.02600
H 	H 	0.06500 0.08980 0.61060 -0.04200
C 	C 	0.83690 0.21160 0.37470 0.11100
C 	C 	0.96470 0.58310 0.30580 0.11100
C 	C 	0.96370 0.59530 0.21060 -0.17200
C 	C 	0.97070 0.50160 0.12870 0.13000
C 	C 	0.98050 0.42320 0.15870 -0.21800
C 	C 	0.98160 0.41780 0.25360 0.14500
C 	C 	0.98770 0.52790 0.03400 -0.05600
C 	C 	0.83690 0.46220 0.62530 0.11600
C 	C 	0.27730 0.65890 0.69420 0.12400
C 	C 	0.38470 0.75310 0.78940 -0.20400
C 	C 	0.37290 0.84200 0.87130 0.18400
C 	C 	0.26450 0.82180 0.84130 -0.26700
C 	C 	0.16420 0.72800 0.74640 0.16200
C 	C 	0.49390 0.95370 0.96600 -0.18700
C 	C 	0.66310 0.03780 0.37470 0.11900
C 	C 	0.53530 0.84110 0.61840 0.11000
C 	C 	0.53630 0.74690 0.63160 -0.18300
C 	C 	0.52930 0.65800 0.53090 0.14300
C 	C 	0.51950 0.67820 0.44270 -0.23100
C 	C 	0.51840 0.77200 0.43620 0.14100
C 	C 	0.51230 0.54630 0.54020 -0.09400
C 	C 	0.66310 0.28840 0.62530 0.11000
C 	C 	0.22270 0.91690 0.38160 0.05900
C 	C 	0.11530 0.90470 0.36840 -0.18500
C 	C 	0.12710 0.99840 0.46910 0.16400
C 	C 	0.23550 0.07680 0.55730 -0.20200
C 	C 	0.33580 0.08220 0.56380 0.14500
C 	C 	0.00610 0.97210 0.45980 -0.36700
C 	C 	0.16310 0.78840 0.62530 0.10400
C 	C 	0.03530 0.41690 0.69420 0.11000
C 	C 	0.03630 0.40470 0.78940 -0.19100
C 	C 	0.02930 0.49840 0.87130 0.15200
C 	C 	0.01950 0.57680 0.84130 -0.23800
C 	C 	0.01840 0.58220 0.74640 0.13300
C 	C 	0.01230 0.47210 0.96600 -0.12700
C 	C 	0.16310 0.53780 0.37470 0.09900
C 	C 	0.72270 0.34110 0.30580 0.09700
C 	C 	0.61530 0.24690 0.21060 -0.15800
C 	C 	0.62710 0.15800 0.12870 0.09800
C 	C 	0.73550 0.17820 0.15870 -0.18900
C 	C 	0.83580 0.27200 0.25360 0.11600
C 	C 	0.50610 0.04630 0.03400 0.00300
C 	C 	0.33690 0.96220 0.62530 0.09700
C 	C 	0.46470 0.15890 0.38160 0.11100
C 	C 	0.46370 0.25310 0.36840 -0.17900
C 	C 	0.47070 0.34200 0.46910 0.13900
C 	C 	0.48050 0.32180 0.55730 -0.22500
C 	C 	0.48160 0.22800 0.56380 0.13700
C 	C 	0.48770 0.45370 0.45980 -0.09000
C 	C 	0.33690 0.71160 0.37470 0.10500
C 	C 	0.77730 0.08310 0.61840 0.16200
C 	C 	0.88470 0.09530 0.63160 -0.17800
C 	C 	0.87290 0.00160 0.53090 0.11800
C 	C 	0.76450 0.92320 0.44270 -0.25400
C 	C 	0.66420 0.91780 0.43620 0.13300
C 	C 	0.99390 0.02790 0.54020 0.18400
S 	S 	0.75340 0.06850 0.31510 -0.02900
S 	S 	0.75340 0.43830 0.68490 -0.03400
S 	S 	0.74660 0.06170 0.31510 -0.03100
S 	S 	0.74660 0.43150 0.68490 -0.03400
S 	S 	0.24660 0.93150 0.68490 -0.04900
S 	S 	0.24660 0.56170 0.31510 -0.04400
S 	S 	0.25340 0.93830 0.68490 -0.04800
S 	S 	0.25340 0.56850 0.31510 -0.04500
N 	N 	0.89850 0.31300 0.41450 -0.22900
N 	N 	0.97360 0.49990 0.33330 -0.20300
N 	N 	0.89850 0.48400 0.58550 -0.22600
N 	N 	0.16660 0.64030 0.66670 -0.21900
N 	N 	0.60150 0.01600 0.41450 -0.21700
N 	N 	0.52640 0.85970 0.52630 -0.21400
N 	N 	0.60150 0.18700 0.58550 -0.22900
N 	N 	0.33340 0.00010 0.47370 -0.17500
N 	N 	0.10150 0.68700 0.58550 -0.24300
N 	N 	0.02640 0.50010 0.66670 -0.21900
N 	N 	0.10150 0.51600 0.41450 -0.24600
N 	N 	0.83340 0.35970 0.33330 -0.20400
N 	N 	0.39850 0.98400 0.58550 -0.25200
N 	N 	0.47360 0.14030 0.47370 -0.20600
N 	N 	0.39850 0.81300 0.41450 -0.24100
N 	N 	0.66660 0.99990 0.52630 -0.24600
