data_crystal

_cell_length_a 14.28500
_cell_length_b 18.71580
_cell_length_c 18.71580
_cell_angle_alpha 66.24000
_cell_angle_beta  75.26080
_cell_angle_gamma 104.73900

_symmetry_space_group_name_	'P 1'
_symmetry_space_group_name_H-M	'P 1'

loop_
_symmetry_equiv_pos_as_xyz
  x,y,z

loop_
_atom_site_label
_atom_site_type_symbol
_atom_site_fract_x
_atom_site_fract_y
_atom_site_fract_z
_atom_site_charge
Cu	Cu	0.40337 0.44059 0.00743 0.83800
Cu	Cu	0.46757 0.52714 0.33119 0.88600
Cu	Cu	0.41080 0.00743 0.55198 0.83700
Cu	Cu	0.79876 0.33119 0.14167 0.88600
Cu	Cu	0.96278 0.55198 0.44059 0.83700
Cu	Cu	0.94043 0.14167 0.52714 0.88600
Cu	Cu	0.59663 0.55941 0.99257 0.83800
Cu	Cu	0.53243 0.47286 0.66881 0.88600
Cu	Cu	0.58920 0.99257 0.44802 0.83700
Cu	Cu	0.20124 0.66881 0.85833 0.88600
Cu	Cu	0.03722 0.44802 0.55941 0.83800
Cu	Cu	0.05957 0.85833 0.47286 0.88700
H 	H 	0.19900 0.31530 0.17110 0.01500
H 	H 	0.59280 0.57850 0.15140 -0.01800
H 	H 	0.26840 0.37040 0.40500 0.14400
H 	H 	0.17060 0.30540 0.41800 0.16500
H 	H 	0.34510 0.25520 0.08760 -0.02000
H 	H 	0.75860 0.49770 0.05110 -0.00400
H 	H 	0.52720 0.11570 0.18240 0.15800
H 	H 	0.62880 0.17830 0.16730 0.12800
H 	H 	0.37010 0.17110 0.51360 0.01500
H 	H 	0.74420 0.15140 0.27010 -0.01800
H 	H 	0.67340 0.40500 0.22460 0.14400
H 	H 	0.58860 0.41800 0.27660 0.16500
H 	H 	0.43270 0.08760 0.65720 -0.02000
H 	H 	0.80970 0.05110 0.45120 -0.00400
H 	H 	0.70960 0.18240 0.70190 0.15800
H 	H 	0.79610 0.16730 0.65440 0.12800
H 	H 	0.88370 0.51360 0.31530 0.01500
H 	H 	0.01430 0.27010 0.57850 -0.01900
H 	H 	0.89800 0.22460 0.37040 0.14500
H 	H 	0.86520 0.27660 0.30540 0.16500
H 	H 	0.08990 0.65720 0.25520 -0.02000
H 	H 	0.26090 0.45120 0.49770 -0.00400
H 	H 	0.41150 0.70190 0.11570 0.15800
H 	H 	0.45050 0.65440 0.17830 0.12800
H 	H 	0.80100 0.68470 0.82890 0.01500
H 	H 	0.40720 0.42150 0.84860 -0.01800
H 	H 	0.73160 0.62960 0.59500 0.14400
H 	H 	0.82940 0.69460 0.58200 0.16500
H 	H 	0.65490 0.74480 0.91240 -0.02000
H 	H 	0.24140 0.50230 0.94890 -0.00400
H 	H 	0.47280 0.88430 0.81760 0.15800
H 	H 	0.37120 0.82170 0.83270 0.12800
H 	H 	0.62990 0.82890 0.48640 0.01500
H 	H 	0.25580 0.84860 0.72990 -0.01800
H 	H 	0.32660 0.59500 0.77540 0.14400
H 	H 	0.41140 0.58200 0.72340 0.16500
H 	H 	0.56730 0.91240 0.34280 -0.02000
H 	H 	0.19030 0.94890 0.54880 -0.00400
H 	H 	0.29040 0.81760 0.29810 0.15800
H 	H 	0.20390 0.83270 0.34560 0.12800
H 	H 	0.11630 0.48640 0.68470 0.01500
H 	H 	0.98570 0.72990 0.42150 -0.01900
H 	H 	0.10200 0.77540 0.62960 0.14500
H 	H 	0.13480 0.72340 0.69460 0.16500
H 	H 	0.91010 0.34280 0.74480 -0.02000
H 	H 	0.73910 0.54880 0.50230 -0.00400
H 	H 	0.58850 0.29810 0.88430 0.15800
H 	H 	0.54950 0.34560 0.82170 0.12800
C 	C 	0.66940 0.56830 0.32000 0.23600
C 	C 	0.61240 0.59280 0.38350 0.21100
C 	C 	0.24180 0.35550 0.19210 0.10500
C 	C 	0.39710 0.45730 0.15590 0.11300
C 	C 	0.36440 0.44050 0.24080 -0.04100
C 	C 	0.26750 0.37390 0.30170 0.15500
C 	C 	0.52100 0.53610 0.16780 0.07500
C 	C 	0.41290 0.27280 0.08720 0.11400
C 	C 	0.55610 0.37580 0.06180 0.11300
C 	C 	0.59980 0.31660 0.09800 -0.03800
C 	C 	0.53700 0.23050 0.13010 0.14400
C 	C 	0.70430 0.44050 0.05690 0.08300
C 	C 	0.98940 0.32000 0.11170 0.23600
C 	C 	0.99590 0.38350 0.02370 0.21100
C 	C 	0.43390 0.19210 0.45240 0.10500
C 	C 	0.55300 0.15590 0.38680 0.11300
C 	C 	0.60520 0.24080 0.31870 -0.04100
C 	C 	0.56920 0.30170 0.32440 0.15500
C 	C 	0.68880 0.16780 0.29610 0.07500
C 	C 	0.50010 0.08720 0.64000 0.11400
C 	C 	0.61790 0.06180 0.56240 0.11300
C 	C 	0.69780 0.09800 0.58540 -0.03800
C 	C 	0.66710 0.13010 0.63940 0.14400
C 	C 	0.76120 0.05690 0.50260 0.08300
C 	C 	0.10110 0.11170 0.56830 0.23700
C 	C 	0.01960 0.02370 0.59280 0.20900
C 	C 	0.88630 0.45240 0.35550 0.10500
C 	C 	0.93980 0.38680 0.45730 0.11300
C 	C 	0.92390 0.31870 0.44050 -0.04100
C 	C 	0.89360 0.32440 0.37390 0.15500
C 	C 	0.98490 0.29610 0.53610 0.07600
C 	C 	0.14010 0.64000 0.27280 0.11400
C 	C 	0.18030 0.56240 0.37580 0.11300
C 	C 	0.28320 0.58540 0.31660 -0.03800
C 	C 	0.30650 0.63940 0.23050 0.14400
C 	C 	0.26380 0.50260 0.44050 0.08300
C 	C 	0.33060 0.43170 0.68000 0.23600
C 	C 	0.38760 0.40720 0.61650 0.21100
C 	C 	0.75820 0.64450 0.80790 0.10500
C 	C 	0.60290 0.54270 0.84410 0.11300
C 	C 	0.63560 0.55950 0.75920 -0.04100
C 	C 	0.73250 0.62610 0.69830 0.15500
C 	C 	0.47900 0.46390 0.83220 0.07500
C 	C 	0.58710 0.72720 0.91280 0.11400
C 	C 	0.44390 0.62420 0.93820 0.11300
C 	C 	0.40020 0.68340 0.90200 -0.03800
C 	C 	0.46300 0.76950 0.86990 0.14400
C 	C 	0.29570 0.55950 0.94310 0.08300
C 	C 	0.01060 0.68000 0.88830 0.23600
C 	C 	0.00410 0.61650 0.97630 0.21100
C 	C 	0.56610 0.80790 0.54760 0.10500
C 	C 	0.44700 0.84410 0.61320 0.11300
C 	C 	0.39480 0.75920 0.68130 -0.04100
C 	C 	0.43080 0.69830 0.67560 0.15500
C 	C 	0.31120 0.83220 0.70390 0.07500
C 	C 	0.49990 0.91280 0.36000 0.11400
C 	C 	0.38210 0.93820 0.43760 0.11300
C 	C 	0.30220 0.90200 0.41460 -0.03800
C 	C 	0.33290 0.86990 0.36060 0.14400
C 	C 	0.23880 0.94310 0.49740 0.08300
C 	C 	0.89890 0.88830 0.43170 0.23700
C 	C 	0.98040 0.97630 0.40720 0.20900
C 	C 	0.11370 0.54760 0.64450 0.10500
C 	C 	0.06020 0.61320 0.54270 0.11300
C 	C 	0.07610 0.68130 0.55950 -0.04100
C 	C 	0.10640 0.67560 0.62610 0.15500
C 	C 	0.01510 0.70390 0.46390 0.07600
C 	C 	0.85990 0.36000 0.72720 0.11400
C 	C 	0.81970 0.43760 0.62420 0.11300
C 	C 	0.71680 0.41460 0.68340 -0.03800
C 	C 	0.69350 0.36060 0.76950 0.14400
C 	C 	0.73620 0.49740 0.55950 0.08300
N 	N 	0.20670 0.33380 0.27150 -0.15000
N 	N 	0.33690 0.41550 0.12730 -0.25400
N 	N 	0.44440 0.49430 0.24660 -0.21600
N 	N 	0.49480 0.51760 0.11150 -0.25900
N 	N 	0.23260 0.34780 0.38420 -0.31700
N 	N 	0.43960 0.20750 0.12840 -0.14900
N 	N 	0.46250 0.35330 0.05310 -0.26400
N 	N 	0.69550 0.36120 0.09370 -0.21300
N 	N 	0.62290 0.45280 0.03620 -0.25600
N 	N 	0.56850 0.16720 0.16310 -0.31000
N 	N 	0.47820 0.27150 0.39470 -0.15000
N 	N 	0.46420 0.12730 0.45720 -0.25400
N 	N 	0.69100 0.24660 0.25910 -0.21600
N 	N 	0.60630 0.11150 0.37090 -0.25900
N 	N 	0.61680 0.38420 0.26800 -0.31700
N 	N 	0.56800 0.12840 0.66410 -0.14900
N 	N 	0.51560 0.05310 0.59360 -0.26400
N 	N 	0.78920 0.09370 0.54510 -0.21300
N 	N 	0.65910 0.03620 0.51100 -0.25600
N 	N 	0.73160 0.16310 0.66970 -0.31000
N 	N 	0.87290 0.39470 0.33380 -0.15000
N 	N 	0.92140 0.45720 0.41550 -0.25400
N 	N 	0.95010 0.25910 0.49430 -0.21700
N 	N 	0.97720 0.37090 0.51760 -0.25900
N 	N 	0.88480 0.26800 0.34780 -0.31700
N 	N 	0.23210 0.66410 0.20750 -0.14900
N 	N 	0.10920 0.59360 0.35330 -0.26400
N 	N 	0.33430 0.54510 0.36120 -0.21300
N 	N 	0.17010 0.51100 0.45280 -0.25600
N 	N 	0.40130 0.66970 0.16720 -0.31000
N 	N 	0.79330 0.66620 0.72850 -0.15000
N 	N 	0.66310 0.58450 0.87270 -0.25400
N 	N 	0.55560 0.50570 0.75340 -0.21600
N 	N 	0.50520 0.48240 0.88850 -0.25900
N 	N 	0.76740 0.65220 0.61580 -0.31700
N 	N 	0.56040 0.79250 0.87160 -0.14900
N 	N 	0.53750 0.64670 0.94690 -0.26400
N 	N 	0.30450 0.63880 0.90630 -0.21300
N 	N 	0.37710 0.54720 0.96380 -0.25600
N 	N 	0.43150 0.83280 0.83690 -0.31000
N 	N 	0.52180 0.72850 0.60530 -0.15000
N 	N 	0.53580 0.87270 0.54280 -0.25400
N 	N 	0.30900 0.75340 0.74090 -0.21600
N 	N 	0.39370 0.88850 0.62910 -0.25900
N 	N 	0.38320 0.61580 0.73200 -0.31700
N 	N 	0.43200 0.87160 0.33590 -0.14900
N 	N 	0.48440 0.94690 0.40640 -0.26400
N 	N 	0.21080 0.90630 0.45490 -0.21300
N 	N 	0.34090 0.96380 0.48900 -0.25600
N 	N 	0.26840 0.83690 0.33030 -0.31000
N 	N 	0.12710 0.60530 0.66620 -0.15000
N 	N 	0.07860 0.54280 0.58450 -0.25400
N 	N 	0.04990 0.74090 0.50570 -0.21700
N 	N 	0.02280 0.62910 0.48240 -0.25900
N 	N 	0.11520 0.73200 0.65220 -0.31700
N 	N 	0.76790 0.33590 0.79250 -0.14900
N 	N 	0.89080 0.40640 0.64670 -0.26400
N 	N 	0.66570 0.45490 0.63880 -0.21300
N 	N 	0.82990 0.48900 0.54720 -0.25600
N 	N 	0.59870 0.33030 0.83280 -0.31000
O 	O 	0.61200 0.53470 0.29150 -0.37300
O 	O 	0.51310 0.57330 0.39790 -0.34900
O 	O 	0.76340 0.58300 0.30080 -0.22900
O 	O 	0.66340 0.62830 0.41180 -0.22300
O 	O 	0.90350 0.29150 0.17380 -0.37300
O 	O 	0.91100 0.39790 0.02880 -0.34900
O 	O 	0.06420 0.30080 0.11620 -0.22900
O 	O 	0.07520 0.41180 0.95990 -0.22300
O 	O 	0.07730 0.17380 0.53470 -0.37300
O 	O 	0.93980 0.02880 0.57330 -0.34800
O 	O 	0.18040 0.11620 0.58300 -0.22900
O 	O 	0.03510 0.95990 0.62830 -0.22200
O 	O 	0.38800 0.46530 0.70850 -0.37300
O 	O 	0.48690 0.42670 0.60210 -0.34900
O 	O 	0.23660 0.41700 0.69920 -0.22900
O 	O 	0.33660 0.37170 0.58820 -0.22300
O 	O 	0.09650 0.70850 0.82620 -0.37300
O 	O 	0.08900 0.60210 0.97120 -0.34900
O 	O 	0.93580 0.69920 0.88380 -0.22900
O 	O 	0.92480 0.58820 0.04010 -0.22300
O 	O 	0.92270 0.82620 0.46530 -0.37300
O 	O 	0.06020 0.97120 0.42670 -0.34800
O 	O 	0.81960 0.88380 0.41700 -0.22900
O 	O 	0.96490 0.04010 0.37170 -0.22200
