data_crystal

_cell_length_a 22.70900
_cell_length_b 7.11800
_cell_length_c 12.82800
_cell_angle_alpha 90.00000
_cell_angle_beta  90.00000
_cell_angle_gamma 90.00000

_symmetry_space_group_name_	'P 1'
_symmetry_space_group_name_H-M	'P 1'

loop_
_symmetry_equiv_pos_as_xyz
  x,y,z

loop_
_atom_site_label
_atom_site_type_symbol
_atom_site_fract_x
_atom_site_fract_y
_atom_site_fract_z
_atom_site_charge
N 	N 	0.11080 0.09510 0.38650 -0.09900
N 	N 	0.06210 0.15840 0.43330 -0.17600
C 	C 	0.22280 0.10100 0.27630 -0.19900
H 	H 	0.20560 0.98420 0.29450 0.39200
C 	C 	0.20600 0.89500 0.29900 -0.33000
N 	N 	0.61080 0.59510 0.88650 -0.07800
N 	N 	0.56210 0.65840 0.93330 -0.13300
C 	C 	0.72280 0.60100 0.77630 -0.11600
H 	H 	0.70560 0.48420 0.79450 0.29300
C 	C 	0.70600 0.39500 0.79900 -0.25300
N 	N 	0.88920 0.40490 0.38650 -0.08200
N 	N 	0.93790 0.34160 0.43330 -0.14200
C 	C 	0.77720 0.39900 0.27630 -0.11100
H 	H 	0.79440 0.51580 0.29450 0.19500
C 	C 	0.79400 0.60500 0.29900 -0.11500
N 	N 	0.38920 0.90490 0.88650 -0.06800
N 	N 	0.43790 0.84160 0.93330 -0.12600
C 	C 	0.27720 0.89900 0.77630 -0.03500
H 	H 	0.29440 0.01580 0.79450 0.10700
C 	C 	0.29400 0.10500 0.79900 -0.05500
N 	N 	0.88920 0.59510 0.61350 -0.08500
N 	N 	0.93790 0.65840 0.56670 -0.13800
C 	C 	0.77720 0.60100 0.72370 -0.09100
H 	H 	0.79440 0.48420 0.70550 0.28100
C 	C 	0.79400 0.39500 0.70100 -0.25100
N 	N 	0.38920 0.09510 0.11350 -0.10600
N 	N 	0.43790 0.15840 0.06670 -0.17800
C 	C 	0.27720 0.10100 0.22370 -0.17600
H 	H 	0.29440 0.98420 0.20550 0.38100
C 	C 	0.29400 0.89500 0.20100 -0.33000
N 	N 	0.11080 0.90490 0.61350 -0.08400
N 	N 	0.06210 0.84160 0.56670 -0.16000
C 	C 	0.22280 0.89900 0.72370 0.00500
H 	H 	0.20560 0.01580 0.70550 0.08800
C 	C 	0.20600 0.10500 0.70100 -0.05500
N 	N 	0.61080 0.40490 0.11350 -0.09800
N 	N 	0.56210 0.34160 0.06670 -0.17400
C 	C 	0.72280 0.39900 0.22370 -0.07100
H 	H 	0.70560 0.51580 0.20550 0.17500
C 	C 	0.70600 0.60500 0.20100 -0.11400
N 	N 	0.88920 0.90490 0.61350 -0.07500
N 	N 	0.93790 0.84160 0.56670 -0.13000
C 	C 	0.77720 0.89900 0.72370 0.00200
H 	H 	0.79440 0.01580 0.70550 0.08400
C 	C 	0.79400 0.10500 0.70100 -0.04300
N 	N 	0.38920 0.40490 0.11350 -0.09700
N 	N 	0.43790 0.34160 0.06670 -0.17400
C 	C 	0.27720 0.39900 0.22370 -0.08400
H 	H 	0.29440 0.51580 0.20550 0.18600
C 	C 	0.29400 0.60500 0.20100 -0.12300
N 	N 	0.11080 0.59510 0.61350 -0.09400
N 	N 	0.06210 0.65840 0.56670 -0.16800
C 	C 	0.22280 0.60100 0.72370 -0.08900
H 	H 	0.20560 0.48420 0.70550 0.28700
C 	C 	0.20600 0.39500 0.70100 -0.26600
N 	N 	0.61080 0.09510 0.11350 -0.10700
N 	N 	0.56210 0.15840 0.06670 -0.17800
C 	C 	0.72280 0.10100 0.22370 -0.16100
H 	H 	0.70560 0.98420 0.20550 0.36600
C 	C 	0.70600 0.89500 0.20100 -0.31600
N 	N 	0.11080 0.40490 0.38650 -0.09100
N 	N 	0.06210 0.34160 0.43330 -0.17200
C 	C 	0.22280 0.39900 0.27630 -0.10900
H 	H 	0.20560 0.51580 0.29450 0.19800
C 	C 	0.20600 0.60500 0.29900 -0.12600
N 	N 	0.61080 0.90490 0.88650 -0.06900
N 	N 	0.56210 0.84160 0.93330 -0.12600
C 	C 	0.72280 0.89900 0.77630 -0.02300
H 	H 	0.70560 0.01580 0.79450 0.09700
C 	C 	0.70600 0.10500 0.79900 -0.04600
N 	N 	0.88920 0.09510 0.38650 -0.09100
N 	N 	0.93790 0.15840 0.43330 -0.14600
C 	C 	0.77720 0.10100 0.27630 -0.20100
H 	H 	0.79440 0.98420 0.29450 0.38500
C 	C 	0.79400 0.89500 0.29900 -0.31600
N 	N 	0.38920 0.59510 0.88650 -0.07700
N 	N 	0.43790 0.65840 0.93330 -0.13300
C 	C 	0.27720 0.60100 0.77630 -0.12900
H 	H 	0.29440 0.48420 0.79450 0.30700
C 	C 	0.29400 0.39500 0.79900 -0.26700
Cu	Cu	0.00000 0.00000 0.50000 0.80200
Cu	Cu	0.50000 0.50000 -0.00000 0.80900
Cu	Cu	-0.00000 0.50000 0.50000 0.81600
Cu	Cu	0.50000 0.00000 -0.00000 0.79600
C 	C 	0.19610 0.25000 0.30040 0.10500
C 	C 	0.13930 0.25000 0.35920 0.07900
C 	C 	0.69610 0.75000 0.80040 0.05800
C 	C 	0.63930 0.75000 0.85920 0.12700
C 	C 	0.80390 0.25000 0.30040 0.11300
C 	C 	0.86070 0.25000 0.35920 0.08600
C 	C 	0.30390 0.75000 0.80040 0.06800
C 	C 	0.36070 0.75000 0.85920 0.12300
C 	C 	0.80390 0.75000 0.69960 0.03500
C 	C 	0.86070 0.75000 0.64080 0.13200
C 	C 	0.30390 0.25000 0.19960 0.08300
C 	C 	0.36070 0.25000 0.14080 0.08300
C 	C 	0.19610 0.75000 0.69960 0.02700
C 	C 	0.13930 0.75000 0.64080 0.12500
C 	C 	0.69610 0.25000 0.19960 0.07200
C 	C 	0.63930 0.25000 0.14080 0.08800
