data_crystal

_cell_length_a 11.20720
_cell_length_b 22.30340
_cell_length_c 22.30340
_cell_angle_alpha 86.38090
_cell_angle_beta  75.44880
_cell_angle_gamma 75.44880

_symmetry_space_group_name_	'P 1'
_symmetry_space_group_name_H-M	'P 1'

loop_
_symmetry_equiv_pos_as_xyz
  x,y,z

loop_
_atom_site_label
_atom_site_type_symbol
_atom_site_fract_x
_atom_site_fract_y
_atom_site_fract_z
_atom_site_charge
Co	Co	0.03606 0.40346 0.86828 1.15000
Co	Co	0.25532 0.39862 0.72996 1.18600
Co	Co	0.80780 0.09654 0.63172 1.14900
Co	Co	0.88390 0.10138 0.77004 1.18500
Co	Co	0.90434 0.13172 0.90346 1.14800
Co	Co	0.98528 0.27004 0.89862 1.18500
Co	Co	0.43952 0.36828 0.59654 1.15000
Co	Co	0.65394 0.22996 0.60138 1.18700
Co	Co	0.96394 0.59654 0.13172 1.15100
Co	Co	0.74468 0.60138 0.27004 1.18700
Co	Co	0.19220 0.90346 0.36828 1.15000
Co	Co	0.11610 0.89862 0.22996 1.18600
Co	Co	0.09566 0.86828 0.09654 1.14900
Co	Co	0.01472 0.72996 0.10138 1.18600
Co	Co	0.56048 0.63172 0.40346 1.15000
Co	Co	0.34606 0.77004 0.39862 1.18700
H 	H 	0.39590 0.54730 0.79510 0.02200
H 	H 	0.43120 0.62840 0.84200 0.07300
H 	H 	0.30450 0.66520 0.93720 0.02300
H 	H 	0.12060 0.53140 0.94520 0.03200
H 	H 	0.28240 0.21470 0.92730 0.01800
H 	H 	0.43430 0.12290 0.92910 0.07900
H 	H 	0.58990 0.08680 0.84040 0.01700
H 	H 	0.43350 0.23130 0.74590 0.01000
H 	H 	0.23830 0.95270 0.70490 0.01900
H 	H 	0.40160 0.87160 0.65800 0.07500
H 	H 	0.40690 0.83480 0.56280 0.02200
H 	H 	0.09720 0.96860 0.55480 0.03000
H 	H 	0.92440 0.28530 0.57270 0.01800
H 	H 	0.98630 0.37710 0.57090 0.07800
H 	H 	0.01710 0.41320 0.65960 0.02000
H 	H 	0.91070 0.26870 0.75410 0.01000
H 	H 	0.19100 0.20490 0.04730 0.02100
H 	H 	0.27320 0.15800 0.12840 0.07400
H 	H 	0.24170 0.06280 0.16520 0.02300
H 	H 	0.06580 0.05480 0.03140 0.03100
H 	H 	0.20970 0.07270 0.71470 0.01800
H 	H 	0.36340 0.07090 0.62290 0.07900
H 	H 	0.43030 0.15960 0.58680 0.01700
H 	H 	0.17940 0.25410 0.73130 0.01000
H 	H 	0.94320 0.29510 0.45270 0.02100
H 	H 	0.05960 0.34200 0.37160 0.07400
H 	H 	0.96970 0.43720 0.33480 0.02200
H 	H 	0.65200 0.44520 0.46860 0.03100
H 	H 	0.49710 0.42730 0.78530 0.01700
H 	H 	0.55720 0.42910 0.87710 0.07900
H 	H 	0.67670 0.34040 0.91320 0.01700
H 	H 	0.66480 0.24590 0.76870 0.01000
H 	H 	0.60410 0.45270 0.20490 0.02200
H 	H 	0.56880 0.37160 0.15800 0.07300
H 	H 	0.69550 0.33480 0.06280 0.02300
H 	H 	0.87940 0.46860 0.05480 0.03200
H 	H 	0.71760 0.78530 0.07270 0.01800
H 	H 	0.56570 0.87710 0.07090 0.07900
H 	H 	0.41010 0.91320 0.15960 0.01700
H 	H 	0.56650 0.76870 0.25410 0.01000
H 	H 	0.76170 0.04730 0.29510 0.01900
H 	H 	0.59840 0.12840 0.34200 0.07500
H 	H 	0.59310 0.16520 0.43720 0.02200
H 	H 	0.90280 0.03140 0.44520 0.03000
H 	H 	0.07560 0.71470 0.42730 0.01800
H 	H 	0.01370 0.62290 0.42910 0.07800
H 	H 	0.98290 0.58680 0.34040 0.02000
H 	H 	0.08930 0.73130 0.24590 0.01000
H 	H 	0.80900 0.79510 0.95270 0.02100
H 	H 	0.72680 0.84200 0.87160 0.07400
H 	H 	0.75830 0.93720 0.83480 0.02300
H 	H 	0.93420 0.94520 0.96860 0.03100
H 	H 	0.79030 0.92730 0.28530 0.01800
H 	H 	0.63660 0.92910 0.37710 0.07900
H 	H 	0.56970 0.84040 0.41320 0.01700
H 	H 	0.82060 0.74590 0.26870 0.01000
H 	H 	0.05680 0.70490 0.54730 0.02100
H 	H 	0.94040 0.65800 0.62840 0.07400
H 	H 	0.03030 0.56280 0.66520 0.02200
H 	H 	0.34800 0.55480 0.53140 0.03100
H 	H 	0.50290 0.57270 0.21470 0.01700
H 	H 	0.44280 0.57090 0.12290 0.07900
H 	H 	0.32330 0.65960 0.08680 0.01700
H 	H 	0.33520 0.75410 0.23130 0.01000
C 	C 	0.22834 0.47773 0.83779 0.38800
C 	C 	0.25397 0.53130 0.86556 -0.13900
C 	C 	0.34710 0.56056 0.83444 0.06000
C 	C 	0.36680 0.60960 0.86220 -0.12800
C 	C 	0.29222 0.63115 0.91961 0.05800
C 	C 	0.19932 0.60200 0.95076 -0.13100
C 	C 	0.18168 0.55175 0.92389 0.06700
C 	C 	0.11642 0.62421 0.01335 0.37400
C 	C 	0.25450 0.29480 0.83260 0.42300
C 	C 	0.34392 0.23315 0.83641 -0.16300
C 	C 	0.34356 0.20009 0.89139 0.07800
C 	C 	0.43505 0.14514 0.89236 -0.13500
C 	C 	0.52760 0.12293 0.83907 0.07400
C 	C 	0.52616 0.15526 0.78382 -0.16200
C 	C 	0.43440 0.20985 0.78295 0.10600
C 	C 	0.62623 0.13518 0.72616 0.37900
C 	C 	0.04386 0.02227 0.66221 0.39500
C 	C 	0.15083 0.96870 0.63444 -0.14500
C 	C 	0.24210 0.93944 0.66556 0.06500
C 	C 	0.33860 0.89040 0.63780 -0.13200
C 	C 	0.34298 0.86885 0.58039 0.06200
C 	C 	0.25208 0.89800 0.54924 -0.13600
C 	C 	0.15732 0.94825 0.57611 0.07200
C 	C 	0.25398 0.87579 0.48665 0.37600
C 	C 	0.88190 0.20520 0.66740 0.42300
C 	C 	0.91348 0.26685 0.66359 -0.16200
C 	C 	0.93504 0.29991 0.60861 0.07600
C 	C 	0.97255 0.35486 0.60764 -0.13200
C 	C 	0.98960 0.37707 0.66093 0.06800
C 	C 	0.96524 0.34474 0.71618 -0.15900
C 	C 	0.92720 0.29015 0.71705 0.10300
C 	C 	0.98757 0.36482 0.77384 0.37600
C 	C 	0.06613 0.16221 0.97773 0.39100
C 	C 	0.11953 0.13444 0.03130 -0.14200
C 	C 	0.18154 0.16556 0.06056 0.06200
C 	C 	0.22900 0.13780 0.10960 -0.12900
C 	C 	0.21183 0.08039 0.13115 0.05900
C 	C 	0.15008 0.04924 0.10200 -0.13300
C 	C 	0.10557 0.07611 0.05175 0.06900
C 	C 	0.12977 0.98665 0.12421 0.37400
C 	C 	0.08710 0.16740 0.79480 0.42300
C 	C 	0.18033 0.16359 0.73315 -0.16200
C 	C 	0.23495 0.10861 0.70009 0.07800
C 	C 	0.32741 0.10764 0.64514 -0.13400
C 	C 	0.36667 0.16093 0.62293 0.07300
C 	C 	0.30998 0.21618 0.65526 -0.16200
C 	C 	0.21735 0.21705 0.70985 0.10500
C 	C 	0.35239 0.27384 0.63518 0.37900
C 	C 	0.70607 0.33779 0.52227 0.38900
C 	C 	0.78527 0.36556 0.46870 -0.14000
C 	C 	0.90766 0.33444 0.43944 0.06200
C 	C 	0.97640 0.36220 0.39040 -0.13000
C 	C 	0.92337 0.41961 0.36885 0.06000
C 	C 	0.80132 0.45076 0.39800 -0.13400
C 	C 	0.73343 0.42389 0.44825 0.06900
C 	C 	0.74063 0.51335 0.37579 0.37600
C 	C 	0.54930 0.33260 0.70520 0.42400
C 	C 	0.57707 0.33641 0.76685 -0.16300
C 	C 	0.54365 0.39139 0.79991 0.07800
C 	C 	0.58019 0.39236 0.85486 -0.13500
C 	C 	0.65053 0.33907 0.87707 0.07400
C 	C 	0.68142 0.28382 0.84474 -0.16200
C 	C 	0.64425 0.28295 0.79015 0.10600
C 	C 	0.76141 0.22616 0.86482 0.37900
C 	C 	0.77166 0.52227 0.16221 0.38800
C 	C 	0.74603 0.46870 0.13444 -0.13900
C 	C 	0.65290 0.43944 0.16556 0.06000
C 	C 	0.63320 0.39040 0.13780 -0.12800
C 	C 	0.70778 0.36885 0.08039 0.05800
C 	C 	0.80068 0.39800 0.04924 -0.13100
C 	C 	0.81832 0.44825 0.07611 0.06700
C 	C 	0.88358 0.37579 0.98665 0.37400
C 	C 	0.74550 0.70520 0.16740 0.42300
C 	C 	0.65608 0.76685 0.16359 -0.16300
C 	C 	0.65644 0.79991 0.10861 0.07800
C 	C 	0.56495 0.85486 0.10764 -0.13500
C 	C 	0.47240 0.87707 0.16093 0.07400
C 	C 	0.47384 0.84474 0.21618 -0.16200
C 	C 	0.56560 0.79015 0.21705 0.10600
C 	C 	0.37377 0.86482 0.27384 0.37900
C 	C 	0.95614 0.97773 0.33779 0.39500
C 	C 	0.84917 0.03130 0.36556 -0.14500
C 	C 	0.75790 0.06056 0.33444 0.06500
C 	C 	0.66140 0.10960 0.36220 -0.13200
C 	C 	0.65702 0.13115 0.41961 0.06200
C 	C 	0.74792 0.10200 0.45076 -0.13600
C 	C 	0.84268 0.05175 0.42389 0.07200
C 	C 	0.74602 0.12421 0.51335 0.37600
C 	C 	0.11810 0.79480 0.33260 0.42300
C 	C 	0.08652 0.73315 0.33641 -0.16200
C 	C 	0.06496 0.70009 0.39139 0.07600
C 	C 	0.02745 0.64514 0.39236 -0.13200
C 	C 	0.01040 0.62293 0.33907 0.06800
C 	C 	0.03476 0.65526 0.28382 -0.15900
C 	C 	0.07280 0.70985 0.28295 0.10300
C 	C 	0.01243 0.63518 0.22616 0.37600
C 	C 	0.93387 0.83779 0.02227 0.39100
C 	C 	0.88047 0.86556 0.96870 -0.14200
C 	C 	0.81846 0.83444 0.93944 0.06200
C 	C 	0.77100 0.86220 0.89040 -0.12900
C 	C 	0.78817 0.91961 0.86885 0.05900
C 	C 	0.84992 0.95076 0.89800 -0.13300
C 	C 	0.89443 0.92389 0.94825 0.06900
C 	C 	0.87023 0.01335 0.87579 0.37400
C 	C 	0.91290 0.83260 0.20520 0.42300
C 	C 	0.81967 0.83641 0.26685 -0.16200
C 	C 	0.76505 0.89139 0.29991 0.07800
C 	C 	0.67259 0.89236 0.35486 -0.13400
C 	C 	0.63333 0.83907 0.37707 0.07300
C 	C 	0.69002 0.78382 0.34474 -0.16200
C 	C 	0.78265 0.78295 0.29015 0.10500
C 	C 	0.64761 0.72616 0.36482 0.37900
C 	C 	0.29393 0.66221 0.47773 0.38900
C 	C 	0.21473 0.63444 0.53130 -0.14000
C 	C 	0.09234 0.66556 0.56056 0.06200
C 	C 	0.02360 0.63780 0.60960 -0.13000
C 	C 	0.07663 0.58039 0.63115 0.06000
C 	C 	0.19868 0.54924 0.60200 -0.13400
C 	C 	0.26657 0.57611 0.55175 0.06900
C 	C 	0.25937 0.48665 0.62421 0.37600
C 	C 	0.45070 0.66740 0.29480 0.42400
C 	C 	0.42293 0.66359 0.23315 -0.16300
C 	C 	0.45635 0.60861 0.20009 0.07800
C 	C 	0.41981 0.60764 0.14514 -0.13500
C 	C 	0.34947 0.66093 0.12293 0.07400
C 	C 	0.31858 0.71618 0.15526 -0.16200
C 	C 	0.35575 0.71705 0.20985 0.10600
C 	C 	0.23859 0.77384 0.13518 0.37900
O 	O 	0.16900 0.44489 0.87551 -0.45400
O 	O 	0.26759 0.46896 0.78066 -0.43100
O 	O 	0.03422 0.59505 0.03871 -0.44400
O 	O 	0.13485 0.66987 0.03643 -0.44300
O 	O 	0.15076 0.31170 0.87398 -0.51200
O 	O 	0.29075 0.32721 0.78709 -0.46500
O 	O 	0.61046 0.15401 0.67387 -0.48400
O 	O 	0.73122 0.09727 0.72969 -0.52600
O 	O 	0.98940 0.05511 0.62449 -0.45800
O 	O 	0.01721 0.03104 0.71934 -0.43100
O 	O 	0.16798 0.90495 0.46129 -0.44300
O 	O 	0.34115 0.83013 0.46357 -0.44200
O 	O 	0.83644 0.18830 0.62602 -0.51300
O 	O 	0.90505 0.17279 0.71291 -0.46600
O 	O 	0.93834 0.34599 0.82613 -0.48400
O 	O 	0.05818 0.40273 0.77031 -0.52400
O 	O 	0.04451 0.12449 0.94489 -0.45300
O 	O 	0.04825 0.21934 0.96896 -0.43000
O 	O 	0.07293 0.96129 0.09505 -0.44400
O 	O 	0.17128 0.96357 0.16987 -0.44300
O 	O 	0.02474 0.12602 0.81170 -0.51100
O 	O 	0.07784 0.21291 0.82721 -0.46400
O 	O 	0.28433 0.32613 0.65401 -0.48400
O 	O 	0.46091 0.27031 0.59727 -0.52600
O 	O 	0.61389 0.37551 0.55511 -0.45400
O 	O 	0.73655 0.28066 0.53104 -0.43200
O 	O 	0.62927 0.53871 0.40495 -0.44300
O 	O 	0.80472 0.53643 0.33013 -0.44200
O 	O 	0.46246 0.37398 0.68830 -0.51300
O 	O 	0.61796 0.28709 0.67279 -0.46500
O 	O 	0.76447 0.17387 0.84599 -0.48500
O 	O 	0.82849 0.22969 0.90273 -0.52700
O 	O 	0.83100 0.55511 0.12449 -0.45400
O 	O 	0.73241 0.53104 0.21934 -0.43100
O 	O 	0.96578 0.40495 0.96129 -0.44400
O 	O 	0.86515 0.33013 0.96357 -0.44300
O 	O 	0.84924 0.68830 0.12602 -0.51200
O 	O 	0.70925 0.67279 0.21291 -0.46500
O 	O 	0.38954 0.84599 0.32613 -0.48400
O 	O 	0.26878 0.90273 0.27031 -0.52600
O 	O 	0.01060 0.94489 0.37551 -0.45800
O 	O 	0.98279 0.96896 0.28066 -0.43100
O 	O 	0.83202 0.09505 0.53871 -0.44300
O 	O 	0.65885 0.16987 0.53643 -0.44200
O 	O 	0.16356 0.81170 0.37398 -0.51300
O 	O 	0.09495 0.82721 0.28709 -0.46600
O 	O 	0.06166 0.65401 0.17387 -0.48400
O 	O 	0.94182 0.59727 0.22969 -0.52400
O 	O 	0.95549 0.87551 0.05511 -0.45300
O 	O 	0.95175 0.78066 0.03104 -0.43000
O 	O 	0.92707 0.03871 0.90495 -0.44400
O 	O 	0.82872 0.03643 0.83013 -0.44300
O 	O 	0.97526 0.87398 0.18830 -0.51100
O 	O 	0.92216 0.78709 0.17279 -0.46400
O 	O 	0.71567 0.67387 0.34599 -0.48400
O 	O 	0.53909 0.72969 0.40273 -0.52600
O 	O 	0.38611 0.62449 0.44489 -0.45400
O 	O 	0.26345 0.71934 0.46896 -0.43200
O 	O 	0.37073 0.46129 0.59505 -0.44300
O 	O 	0.19528 0.46357 0.66987 -0.44200
O 	O 	0.53754 0.62602 0.31170 -0.51300
O 	O 	0.38204 0.71291 0.32721 -0.46500
O 	O 	0.23553 0.82613 0.15401 -0.48500
O 	O 	0.17151 0.77031 0.09727 -0.52700
