data_crystal

_cell_length_a 10.89690
_cell_length_b 21.02400
_cell_length_c 28.74100
_cell_angle_alpha 90.00000
_cell_angle_beta  90.00000
_cell_angle_gamma 90.00000

_symmetry_space_group_name_	'P 1'
_symmetry_space_group_name_H-M	'P 1'

loop_
_symmetry_equiv_pos_as_xyz
  x,y,z

loop_
_atom_site_label
_atom_site_type_symbol
_atom_site_fract_x
_atom_site_fract_y
_atom_site_fract_z
_atom_site_charge
Co	Co	0.84811 0.53497 0.29630 1.18600
Co	Co	0.28964 0.95667 0.29318 1.18700
Co	Co	0.56844 0.54350 0.11956 1.13200
Co	Co	0.97818 0.45671 0.38625 1.13600
Co	Co	0.84893 0.58264 0.16201 1.17600
Co	Co	0.70428 0.39557 0.33614 1.16600
Co	Co	0.84811 0.46503 0.70370 1.18600
Co	Co	0.28964 0.04333 0.70682 1.18700
Co	Co	0.56844 0.45650 0.88044 1.13100
Co	Co	0.97818 0.54329 0.61375 1.13500
Co	Co	0.84893 0.41736 0.83799 1.17500
Co	Co	0.70428 0.60443 0.66386 1.16500
Co	Co	0.15189 0.96503 0.79630 1.18500
Co	Co	0.71036 0.54333 0.79318 1.18600
Co	Co	0.43156 0.95650 0.61956 1.13100
Co	Co	0.02182 0.04329 0.88625 1.13500
Co	Co	0.15107 0.91736 0.66201 1.17500
Co	Co	0.29572 0.10443 0.83614 1.16500
Co	Co	0.15189 0.03497 0.20370 1.18500
Co	Co	0.71036 0.45667 0.20682 1.18600
Co	Co	0.43156 0.04350 0.38044 1.13100
Co	Co	0.02182 0.95671 0.11375 1.13500
Co	Co	0.15107 0.08264 0.33799 1.17500
Co	Co	0.29572 0.89557 0.16386 1.16500
H 	H 	0.90910 0.42340 0.30780 0.14000
H 	H 	0.34920 0.07440 0.30110 0.15500
H 	H 	0.59570 0.63430 0.39370 0.01500
H 	H 	0.47960 0.67050 0.45660 0.09000
H 	H 	0.55410 0.65900 0.53170 -0.00600
H 	H 	0.84520 0.56680 0.48300 -0.00100
H 	H 	0.91630 0.67730 0.32780 0.01900
H 	H 	0.03820 0.74700 0.36700 0.07600
H 	H 	0.17790 0.81280 0.32850 0.02600
H 	H 	0.05310 0.74250 0.20670 0.02300
H 	H 	0.18280 0.63460 0.26720 0.01600
H 	H 	0.36950 0.67010 0.24180 0.08400
H 	H 	0.54570 0.61090 0.25460 -0.01200
H 	H 	0.34690 0.48400 0.32530 0.01300
H 	H 	0.02510 0.38550 0.25970 -0.01900
H 	H 	0.20100 0.32890 0.27360 0.08700
H 	H 	0.38600 0.36310 0.24550 0.00300
H 	H 	0.21330 0.50340 0.17630 0.01700
H 	H 	0.04860 0.87040 0.39610 0.01000
H 	H 	0.92570 0.84530 0.45650 0.08400
H 	H 	0.99970 0.84900 0.53260 0.00600
H 	H 	0.30440 0.93300 0.48340 0.00900
H 	H 	0.90910 0.57660 0.69220 0.14000
H 	H 	0.34920 0.92560 0.69890 0.15500
H 	H 	0.59570 0.36570 0.60630 0.01500
H 	H 	0.47960 0.32950 0.54340 0.09000
H 	H 	0.55410 0.34100 0.46830 -0.00600
H 	H 	0.84520 0.43320 0.51700 -0.00100
H 	H 	0.91630 0.32270 0.67220 0.01900
H 	H 	0.03820 0.25300 0.63300 0.07600
H 	H 	0.17790 0.18720 0.67150 0.02600
H 	H 	0.05310 0.25750 0.79330 0.02300
H 	H 	0.18280 0.36540 0.73280 0.01600
H 	H 	0.36950 0.32990 0.75820 0.08400
H 	H 	0.54570 0.38910 0.74540 -0.01200
H 	H 	0.34690 0.51600 0.67470 0.01300
H 	H 	0.02510 0.61450 0.74030 -0.01900
H 	H 	0.20100 0.67110 0.72640 0.08700
H 	H 	0.38600 0.63690 0.75450 0.00300
H 	H 	0.21330 0.49660 0.82370 0.01700
H 	H 	0.04860 0.12960 0.60390 0.01000
H 	H 	0.92570 0.15470 0.54350 0.08400
H 	H 	0.99970 0.15100 0.46740 0.00600
H 	H 	0.30440 0.06700 0.51660 0.00900
H 	H 	0.09090 0.07660 0.80780 0.14000
H 	H 	0.65080 0.42560 0.80110 0.15500
H 	H 	0.40430 0.86570 0.89370 0.01500
H 	H 	0.52040 0.82950 0.95660 0.09000
H 	H 	0.44590 0.84100 0.03170 -0.00600
H 	H 	0.15480 0.93320 0.98300 -0.00100
H 	H 	0.08370 0.82270 0.82780 0.01800
H 	H 	0.96180 0.75300 0.86700 0.07600
H 	H 	0.82210 0.68720 0.82850 0.02600
H 	H 	0.94690 0.75750 0.70670 0.02300
H 	H 	0.81720 0.86540 0.76720 0.01500
H 	H 	0.63050 0.82990 0.74180 0.08400
H 	H 	0.45430 0.88910 0.75460 -0.01200
H 	H 	0.65310 0.01600 0.82530 0.01300
H 	H 	0.97490 0.11450 0.75970 -0.01900
H 	H 	0.79900 0.17110 0.77360 0.08700
H 	H 	0.61400 0.13690 0.74550 0.00300
H 	H 	0.78670 0.99660 0.67630 0.01700
H 	H 	0.95140 0.62960 0.89610 0.00900
H 	H 	0.07430 0.65470 0.95650 0.08500
H 	H 	0.00030 0.65100 0.03260 0.00600
H 	H 	0.69560 0.56700 0.98340 0.00900
H 	H 	0.09090 0.92340 0.19220 0.14000
H 	H 	0.65080 0.57440 0.19890 0.15500
H 	H 	0.40430 0.13430 0.10630 0.01500
H 	H 	0.52040 0.17050 0.04340 0.09000
H 	H 	0.44590 0.15900 0.96830 -0.00600
H 	H 	0.15480 0.06680 0.01700 -0.00100
H 	H 	0.08370 0.17730 0.17220 0.01800
H 	H 	0.96180 0.24700 0.13300 0.07600
H 	H 	0.82210 0.31280 0.17150 0.02600
H 	H 	0.94690 0.24250 0.29330 0.02300
H 	H 	0.81720 0.13460 0.23280 0.01500
H 	H 	0.63050 0.17010 0.25820 0.08400
H 	H 	0.45430 0.11090 0.24540 -0.01200
H 	H 	0.65310 0.98400 0.17470 0.01300
H 	H 	0.97490 0.88550 0.24030 -0.01900
H 	H 	0.79900 0.82890 0.22640 0.08700
H 	H 	0.61400 0.86310 0.25450 0.00300
H 	H 	0.78670 0.00340 0.32370 0.01700
H 	H 	0.95140 0.37040 0.10390 0.00900
H 	H 	0.07430 0.34530 0.04350 0.08500
H 	H 	0.00030 0.34900 0.96740 0.00600
H 	H 	0.69560 0.43300 0.01660 0.00900
C 	C 	0.80890 0.57160 0.39350 0.38900
C 	C 	0.73650 0.59830 0.43220 -0.17800
C 	C 	0.62400 0.62880 0.42390 0.09500
C 	C 	0.55480 0.65080 0.46160 -0.17300
C 	C 	0.59880 0.64290 0.50670 0.12100
C 	C 	0.70620 0.61220 0.51480 -0.21500
C 	C 	0.77310 0.58920 0.47730 0.13000
C 	C 	0.75300 0.60210 0.56290 0.49100
C 	C 	0.89350 0.65630 0.23600 0.40500
C 	C 	0.97310 0.70340 0.26260 -0.14700
C 	C 	0.96880 0.70430 0.31170 0.06200
C 	C 	0.04290 0.74530 0.33470 -0.12100
C 	C 	0.12700 0.78570 0.31180 0.05700
C 	C 	0.13140 0.78360 0.26340 -0.15200
C 	C 	0.05210 0.74280 0.23910 0.07800
C 	C 	0.21200 0.82750 0.23650 0.39100
C 	C 	0.12440 0.53320 0.31720 0.40200
C 	C 	0.24570 0.55560 0.30000 -0.16600
C 	C 	0.25340 0.61150 0.27390 0.09400
C 	C 	0.36450 0.63200 0.25810 -0.16700
C 	C 	0.47060 0.59670 0.26600 0.10100
C 	C 	0.46420 0.54190 0.29030 -0.18300
C 	C 	0.35080 0.52130 0.30801 0.11000
C 	C 	0.57520 0.50120 0.29650 0.42500
C 	C 	0.98790 0.48700 0.20680 0.40700
C 	C 	0.10020 0.44970 0.21640 -0.18200
C 	C 	0.09840 0.39810 0.24590 0.10800
C 	C 	0.20430 0.36510 0.25500 -0.17700
C 	C 	0.31410 0.38430 0.23740 0.10100
C 	C 	0.31790 0.43630 0.20690 -0.17000
C 	C 	0.21120 0.46880 0.19650 0.11100
C 	C 	0.43800 0.45820 0.18730 0.41500
C 	C 	0.26150 0.93150 0.39380 0.39600
C 	C 	0.18400 0.90770 0.43360 -0.16900
C 	C 	0.07480 0.87840 0.42640 0.10200
C 	C 	0.00420 0.86080 0.46220 -0.16200
C 	C 	0.04580 0.86520 0.50810 0.09000
C 	C 	0.15860 0.89450 0.51590 -0.16500
C 	C 	0.22780 0.91460 0.47840 0.10100
C 	C 	0.20500 0.90490 0.56530 0.42600
C 	C 	0.80890 0.42840 0.60650 0.38900
C 	C 	0.73650 0.40170 0.56780 -0.17800
C 	C 	0.62400 0.37120 0.57610 0.09500
C 	C 	0.55480 0.34920 0.53840 -0.17300
C 	C 	0.59880 0.35710 0.49330 0.12100
C 	C 	0.70620 0.38780 0.48520 -0.21500
C 	C 	0.77310 0.41080 0.52270 0.13000
C 	C 	0.75300 0.39790 0.43710 0.49100
C 	C 	0.89350 0.34370 0.76400 0.40500
C 	C 	0.97310 0.29660 0.73740 -0.14700
C 	C 	0.96880 0.29570 0.68830 0.06200
C 	C 	0.04290 0.25470 0.66530 -0.12100
C 	C 	0.12700 0.21430 0.68820 0.05700
C 	C 	0.13140 0.21640 0.73660 -0.15200
C 	C 	0.05210 0.25720 0.76090 0.07800
C 	C 	0.21200 0.17250 0.76350 0.39100
C 	C 	0.12440 0.46680 0.68280 0.40200
C 	C 	0.24570 0.44440 0.70000 -0.16600
C 	C 	0.25340 0.38850 0.72610 0.09400
C 	C 	0.36450 0.36800 0.74190 -0.16700
C 	C 	0.47060 0.40330 0.73400 0.10100
C 	C 	0.46420 0.45810 0.70970 -0.18300
C 	C 	0.35080 0.47870 0.69199 0.11000
C 	C 	0.57520 0.49880 0.70350 0.42500
C 	C 	0.98790 0.51300 0.79320 0.40700
C 	C 	0.10020 0.55030 0.78360 -0.18200
C 	C 	0.09840 0.60190 0.75410 0.10800
C 	C 	0.20430 0.63490 0.74500 -0.17700
C 	C 	0.31410 0.61570 0.76260 0.10100
C 	C 	0.31790 0.56370 0.79310 -0.17000
C 	C 	0.21120 0.53120 0.80350 0.11100
C 	C 	0.43800 0.54180 0.81270 0.41500
C 	C 	0.26150 0.06850 0.60620 0.39600
C 	C 	0.18400 0.09230 0.56640 -0.16900
C 	C 	0.07480 0.12160 0.57360 0.10200
C 	C 	0.00420 0.13920 0.53780 -0.16200
C 	C 	0.04580 0.13480 0.49190 0.09000
C 	C 	0.15860 0.10550 0.48410 -0.16500
C 	C 	0.22780 0.08540 0.52160 0.10100
C 	C 	0.20500 0.09510 0.43470 0.42600
C 	C 	0.19110 0.92840 0.89350 0.38900
C 	C 	0.26350 0.90170 0.93220 -0.17800
C 	C 	0.37600 0.87120 0.92390 0.09500
C 	C 	0.44520 0.84920 0.96160 -0.17300
C 	C 	0.40120 0.85710 0.00670 0.12100
C 	C 	0.29380 0.88780 0.01480 -0.21500
C 	C 	0.22690 0.91080 0.97730 0.13000
C 	C 	0.24700 0.89790 0.06290 0.49100
C 	C 	0.10650 0.84370 0.73600 0.40500
C 	C 	0.02690 0.79660 0.76260 -0.14600
C 	C 	0.03120 0.79570 0.81170 0.06300
C 	C 	0.95710 0.75470 0.83470 -0.12200
C 	C 	0.87300 0.71430 0.81180 0.05800
C 	C 	0.86860 0.71640 0.76340 -0.15200
C 	C 	0.94790 0.75720 0.73910 0.07700
C 	C 	0.78800 0.67250 0.73650 0.39100
C 	C 	0.87560 0.96680 0.81720 0.40200
C 	C 	0.75430 0.94440 0.80000 -0.16600
C 	C 	0.74660 0.88850 0.77390 0.09400
C 	C 	0.63550 0.86800 0.75810 -0.16700
C 	C 	0.52940 0.90330 0.76600 0.10100
C 	C 	0.53580 0.95810 0.79030 -0.18300
C 	C 	0.64920 0.97870 0.80801 0.11000
C 	C 	0.42480 0.99880 0.79650 0.42500
C 	C 	0.01210 0.01300 0.70680 0.40900
C 	C 	0.89980 0.05030 0.71640 -0.18300
C 	C 	0.90160 0.10190 0.74590 0.10900
C 	C 	0.79570 0.13490 0.75500 -0.17800
C 	C 	0.68590 0.11570 0.73740 0.10100
C 	C 	0.68210 0.06370 0.70690 -0.17000
C 	C 	0.78880 0.03120 0.69650 0.11100
C 	C 	0.56200 0.04180 0.68730 0.41500
C 	C 	0.73850 0.56850 0.89380 0.39600
C 	C 	0.81600 0.59230 0.93360 -0.17000
C 	C 	0.92520 0.62160 0.92640 0.10200
C 	C 	0.99580 0.63920 0.96220 -0.16400
C 	C 	0.95420 0.63480 0.00810 0.09000
C 	C 	0.84140 0.60550 0.01590 -0.16500
C 	C 	0.77220 0.58540 0.97840 0.10100
C 	C 	0.79500 0.59510 0.06530 0.42600
C 	C 	0.19110 0.07160 0.10650 0.38900
C 	C 	0.26350 0.09830 0.06780 -0.17800
C 	C 	0.37600 0.12880 0.07610 0.09500
C 	C 	0.44520 0.15080 0.03840 -0.17300
C 	C 	0.40120 0.14290 0.99330 0.12100
C 	C 	0.29380 0.11220 0.98520 -0.21500
C 	C 	0.22690 0.08920 0.02270 0.13000
C 	C 	0.24700 0.10210 0.93710 0.49100
C 	C 	0.10650 0.15630 0.26400 0.40500
C 	C 	0.02690 0.20340 0.23740 -0.14600
C 	C 	0.03120 0.20430 0.18830 0.06300
C 	C 	0.95710 0.24530 0.16530 -0.12200
C 	C 	0.87300 0.28570 0.18820 0.05800
C 	C 	0.86860 0.28360 0.23660 -0.15200
C 	C 	0.94790 0.24280 0.26090 0.07700
C 	C 	0.78800 0.32750 0.26350 0.39100
C 	C 	0.87560 0.03320 0.18280 0.40200
C 	C 	0.75430 0.05560 0.20000 -0.16600
C 	C 	0.74660 0.11150 0.22610 0.09400
C 	C 	0.63550 0.13200 0.24190 -0.16700
C 	C 	0.52940 0.09670 0.23400 0.10100
C 	C 	0.53580 0.04190 0.20970 -0.18300
C 	C 	0.64920 0.02130 0.19199 0.11000
C 	C 	0.42480 0.00120 0.20350 0.42500
C 	C 	0.01210 0.98700 0.29320 0.40900
C 	C 	0.89980 0.94970 0.28360 -0.18300
C 	C 	0.90160 0.89810 0.25410 0.10900
C 	C 	0.79570 0.86510 0.24500 -0.17800
C 	C 	0.68590 0.88430 0.26260 0.10100
C 	C 	0.68210 0.93630 0.29310 -0.17000
C 	C 	0.78880 0.96880 0.30350 0.11100
C 	C 	0.56200 0.95820 0.31270 0.41500
C 	C 	0.73850 0.43150 0.10620 0.39600
C 	C 	0.81600 0.40770 0.06640 -0.17000
C 	C 	0.92520 0.37840 0.07360 0.10200
C 	C 	0.99580 0.36080 0.03780 -0.16400
C 	C 	0.95420 0.36520 0.99190 0.09000
C 	C 	0.84140 0.39450 0.98410 -0.16500
C 	C 	0.77220 0.41460 0.02160 0.10100
C 	C 	0.79500 0.40490 0.93470 0.42600
O 	O 	0.86040 0.44860 0.32974 -0.69100
O 	O 	0.31140 0.04670 0.32450 -0.72000
O 	O 	0.90940 0.54510 0.40250 -0.45400
O 	O 	0.76740 0.57710 0.35224 -0.42400
O 	O 	0.85850 0.58520 0.56768 -0.51700
O 	O 	0.68190 0.61340 0.59512 -0.49500
O 	O 	0.83100 0.61740 0.25562 -0.47500
O 	O 	0.89790 0.66140 0.19195 -0.46300
O 	O 	0.21780 0.81970 0.19267 -0.46500
O 	O 	0.27010 0.87030 0.25550 -0.46800
O 	O 	0.12490 0.49270 0.35037 -0.46400
O 	O 	0.03070 0.55620 0.29822 -0.44600
O 	O 	0.66690 0.51120 0.27111 -0.54600
O 	O 	0.57150 0.45910 0.32724 -0.47100
O 	O 	0.89170 0.47680 0.23132 -0.53700
O 	O 	0.98970 0.52710 0.17464 -0.45800
O 	O 	0.53300 0.43160 0.20178 -0.45100
O 	O 	0.43250 0.50400 0.15880 -0.47100
O 	O 	0.21710 0.92520 0.35364 -0.44900
O 	O 	0.36100 0.95810 0.40300 -0.45600
O 	O 	0.12330 0.90500 0.59582 -0.47500
O 	O 	0.31580 0.91170 0.57190 -0.49700
O 	O 	0.86040 0.55140 0.67026 -0.69100
O 	O 	0.31140 0.95330 0.67550 -0.72000
O 	O 	0.90940 0.45490 0.59750 -0.45400
O 	O 	0.76740 0.42290 0.64776 -0.42400
O 	O 	0.85850 0.41480 0.43232 -0.51700
O 	O 	0.68190 0.38660 0.40488 -0.49500
O 	O 	0.83100 0.38260 0.74438 -0.47500
O 	O 	0.89790 0.33860 0.80805 -0.46300
O 	O 	0.21780 0.18030 0.80733 -0.46500
O 	O 	0.27010 0.12970 0.74450 -0.46800
O 	O 	0.12490 0.50730 0.64963 -0.46400
O 	O 	0.03070 0.44380 0.70178 -0.44600
O 	O 	0.66690 0.48880 0.72889 -0.54600
O 	O 	0.57150 0.54090 0.67276 -0.47100
O 	O 	0.89170 0.52320 0.76868 -0.53700
O 	O 	0.98970 0.47290 0.82536 -0.45800
O 	O 	0.53300 0.56840 0.79822 -0.45100
O 	O 	0.43250 0.49600 0.84120 -0.47100
O 	O 	0.21710 0.07480 0.64636 -0.44900
O 	O 	0.36100 0.04190 0.59700 -0.45600
O 	O 	0.12330 0.09500 0.40418 -0.47500
O 	O 	0.31580 0.08830 0.42810 -0.49700
O 	O 	0.13960 0.05140 0.82974 -0.69100
O 	O 	0.68860 0.45330 0.82450 -0.72000
O 	O 	0.09060 0.95490 0.90250 -0.45400
O 	O 	0.23260 0.92290 0.85224 -0.42400
O 	O 	0.14150 0.91480 0.06768 -0.51700
O 	O 	0.31810 0.88660 0.09512 -0.49500
O 	O 	0.16900 0.88260 0.75562 -0.47500
O 	O 	0.10210 0.83860 0.69195 -0.46300
O 	O 	0.78220 0.68030 0.69267 -0.46500
O 	O 	0.72990 0.62970 0.75550 -0.46900
O 	O 	0.87510 0.00730 0.85037 -0.46400
O 	O 	0.96930 0.94380 0.79822 -0.44600
O 	O 	0.33310 0.98880 0.77111 -0.54600
O 	O 	0.42850 0.04090 0.82724 -0.47100
O 	O 	0.10830 0.02320 0.73132 -0.53700
O 	O 	0.01030 0.97290 0.67464 -0.45700
O 	O 	0.46700 0.06840 0.70178 -0.45100
O 	O 	0.56750 0.99600 0.65880 -0.47100
O 	O 	0.78290 0.57480 0.85364 -0.44900
O 	O 	0.63900 0.54190 0.90300 -0.45600
O 	O 	0.87670 0.59500 0.09582 -0.47600
O 	O 	0.68420 0.58830 0.07190 -0.49700
O 	O 	0.13960 0.94860 0.17026 -0.69100
O 	O 	0.68860 0.54670 0.17550 -0.72000
O 	O 	0.09060 0.04510 0.09750 -0.45400
O 	O 	0.23260 0.07710 0.14776 -0.42400
O 	O 	0.14150 0.08520 0.93232 -0.51700
O 	O 	0.31810 0.11340 0.90488 -0.49500
O 	O 	0.16900 0.11740 0.24438 -0.47500
O 	O 	0.10210 0.16140 0.30805 -0.46300
O 	O 	0.78220 0.31970 0.30733 -0.46500
O 	O 	0.72990 0.37030 0.24450 -0.46900
O 	O 	0.87510 0.99270 0.14963 -0.46400
O 	O 	0.96930 0.05620 0.20178 -0.44600
O 	O 	0.33310 0.01120 0.22889 -0.54600
O 	O 	0.42850 0.95910 0.17276 -0.47100
O 	O 	0.10830 0.97680 0.26868 -0.53700
O 	O 	0.01030 0.02710 0.32536 -0.45700
O 	O 	0.46700 0.93160 0.29822 -0.45100
O 	O 	0.56750 0.00400 0.34120 -0.47100
O 	O 	0.78290 0.42520 0.14636 -0.44900
O 	O 	0.63900 0.45810 0.09700 -0.45600
O 	O 	0.87670 0.40500 0.90418 -0.47600
O 	O 	0.68420 0.41170 0.92810 -0.49700
