data_crystal

_cell_length_a 12.90300
_cell_length_b 13.78200
_cell_length_c 27.91200
_cell_angle_alpha 75.64000
_cell_angle_beta  79.46000
_cell_angle_gamma 85.71000

_symmetry_space_group_name_	'P 1'
_symmetry_space_group_name_H-M	'P 1'

loop_
_symmetry_equiv_pos_as_xyz
  x,y,z

loop_
_atom_site_label
_atom_site_type_symbol
_atom_site_fract_x
_atom_site_fract_y
_atom_site_fract_z
_atom_site_charge
Tb	Tb	0.88016 0.02123 0.55365 1.74000
Tb	Tb	0.47005 0.53812 0.41489 1.61200
Tb	Tb	0.03018 0.87474 0.06046 1.75300
Tb	Tb	0.51652 0.47940 0.91422 1.63300
O 	O 	0.94570 0.93230 0.47205 -0.54400
O 	O 	0.79930 0.90020 0.52540 -0.44600
O 	O 	0.59940 0.56660 0.45600 -0.52300
O 	O 	0.62450 0.58960 0.52867 -0.52200
O 	O 	0.04470 0.88790 0.14420 -0.43900
O 	O 	0.92840 0.78600 0.14037 -0.42600
O 	O 	0.63700 0.51630 0.35742 -0.39200
O 	O 	0.59270 0.39200 0.42291 -0.39500
O 	O 	0.86820 0.13500 0.47597 -0.50300
O 	O 	0.01960 0.12600 0.42269 -0.45300
O 	O 	0.26060 0.66040 0.14770 -0.34500
O 	O 	0.32640 0.50900 0.14120 -0.48600
O 	O 	0.89010 0.98370 0.07700 -0.47100
O 	O 	0.87640 0.12730 0.02089 -0.51200
O 	O 	0.50560 0.35390 0.13850 -0.41100
O 	O 	0.61340 0.38940 0.06707 -0.40700
O 	O 	0.48870 0.69410 0.36320 -0.50000
O 	O 	0.44490 0.81490 0.40310 -0.33100
O 	O 	0.59600 0.57190 0.95410 -0.52300
O 	O 	0.61050 0.60840 0.02490 -0.54600
O 	O 	0.90060 0.96920 0.96650 -0.53300
O 	O 	0.89370 0.82760 0.02470 -0.47800
O 	O 	0.77720 0.93700 0.63470 -0.42100
O 	O 	0.91240 0.01750 0.63746 -0.44800
C 	C 	0.82430 0.82430 0.45690 -0.19000
C 	C 	0.74930 0.75240 0.48070 0.12200
H 	H 	0.72270 0.74460 0.51470 0.00600
C 	C 	0.71480 0.69360 0.45480 -0.19800
C 	C 	0.75180 0.70670 0.40400 0.07300
H 	H 	0.72540 0.66780 0.38640 0.01200
C 	C 	0.82770 0.77660 0.37850 -0.09800
C 	C 	0.86460 0.83480 0.40640 0.06200
H 	H 	0.91670 0.88090 0.39080 0.01400
C 	C 	0.86470 0.78840 0.32380 0.13000
C 	C 	0.95950 0.83500 0.30040 -0.17200
H 	H 	0.00060 0.85760 0.31930 0.08900
C 	C 	0.99260 0.84790 0.24910 0.10800
H 	H 	0.05580 0.87930 0.23400 -0.00100
C 	C 	0.93370 0.81510 0.22050 -0.16400
C 	C 	0.84490 0.76350 0.24380 0.10200
H 	H 	0.80680 0.73660 0.22520 0.00300
C 	C 	0.81120 0.75090 0.29460 -0.18800
H 	H 	0.75020 0.71590 0.30960 0.10400
C 	C 	0.85970 0.88890 0.48570 0.44500
C 	C 	0.63980 0.61070 0.48120 0.48000
C 	C 	0.97100 0.82990 0.16480 0.38100
C 	C 	0.76430 0.38200 0.37400 -0.09500
C 	C 	0.79360 0.29870 0.40820 0.04300
H 	H 	0.74790 0.27290 0.43780 0.02600
C 	C 	0.89320 0.25340 0.39770 -0.13500
C 	C 	0.96030 0.29270 0.35370 0.01300
H 	H 	0.02530 0.26080 0.34650 0.04100
C 	C 	0.93270 0.37940 0.31970 -0.05500
C 	C 	0.83380 0.42310 0.33090 0.00100
H 	H 	0.81370 0.48120 0.30900 0.03900
C 	C 	0.01050 0.42770 0.27490 0.11000
C 	C 	0.01550 0.53010 0.25990 -0.18000
H 	H 	0.96650 0.56980 0.27590 0.09600
C 	C 	0.09320 0.57460 0.22100 0.09000
H 	H 	0.09530 0.64420 0.21110 0.00200
C 	C 	0.16760 0.51790 0.19670 -0.17200
C 	C 	0.16020 0.41480 0.21080 0.09100
H 	H 	0.20840 0.37550 0.19410 0.01200
C 	C 	0.08280 0.36920 0.24920 -0.17000
H 	H 	0.07870 0.29970 0.25790 0.09600
C 	C 	0.65770 0.43390 0.38550 0.31600
C 	C 	0.92950 0.16370 0.43520 0.43800
C 	C 	0.25810 0.56650 0.15880 0.38800
C 	C 	0.76390 0.10300 0.09960 -0.16400
C 	C 	0.71620 0.19870 0.08770 0.06600
H 	H 	0.73920 0.24230 0.05690 0.01100
C 	C 	0.63530 0.22900 0.12130 -0.11900
C 	C 	0.59930 0.16360 0.16680 0.01600
H 	H 	0.54430 0.18400 0.18920 0.03200
C 	C 	0.64450 0.06770 0.17950 -0.06600
C 	C 	0.72730 0.03950 0.14590 0.03200
H 	H 	0.75920 0.97630 0.15450 0.03500
C 	C 	0.60210 0.99640 0.22820 0.11400
C 	C 	0.59910 0.89460 0.22910 -0.16400
H 	H 	0.62380 0.87190 0.20020 0.08500
C 	C 	0.55840 0.82720 0.27390 0.08500
H 	H 	0.55640 0.75940 0.27490 0.00100
C 	C 	0.52070 0.86170 0.31730 -0.17200
C 	C 	0.52280 0.96150 0.31550 0.10000
H 	H 	0.49650 0.98490 0.34400 0.00600
C 	C 	0.56370 0.02750 0.27140 -0.17500
H 	H 	0.56540 0.09510 0.27090 0.09200
C 	C 	0.85070 0.06970 0.06300 0.47200
C 	C 	0.58070 0.32940 0.10830 0.32800
C 	C 	0.48140 0.78590 0.36460 0.40200
C 	C 	0.69960 0.70790 0.95110 -0.23000
C 	C 	0.75210 0.75400 0.97830 0.14500
H 	H 	0.74500 0.73030 0.01290 -0.01000
C 	C 	0.81450 0.83470 0.95440 -0.22100
C 	C 	0.82410 0.86860 0.90300 0.09300
H 	H 	0.86550 0.92350 0.88680 0.00600
C 	C 	0.77440 0.82380 0.87490 -0.12100
C 	C 	0.71230 0.74180 0.89920 0.09600
H 	H 	0.67920 0.70980 0.88080 0.00700
C 	C 	0.79030 0.85860 0.81920 0.14600
C 	C 	0.71200 0.85080 0.79270 -0.19200
H 	H 	0.64800 0.82380 0.81000 0.10400
C 	C 	0.72710 0.88250 0.74090 0.10000
H 	H 	0.67340 0.87670 0.72370 0.00700
C 	C 	0.82260 0.92300 0.71440 -0.16900
C 	C 	0.89810 0.93080 0.74090 0.11000
H 	H 	0.96190 0.95840 0.72360 0.00800
C 	C 	0.88410 0.89930 0.79220 -0.19600
H 	H 	0.93830 0.90550 0.80900 0.10700
C 	C 	0.63020 0.62400 0.97860 0.51900
C 	C 	0.87270 0.88120 0.98390 0.49200
C 	C 	0.83840 0.96160 0.65850 0.38600
Tb	Tb	0.11984 0.97877 0.44635 1.73900
Tb	Tb	0.52995 0.46188 0.58511 1.61100
Tb	Tb	0.96982 0.12526 0.93954 1.75200
Tb	Tb	0.48348 0.52060 0.08578 1.63200
O 	O 	0.05430 0.06770 0.52795 -0.54400
O 	O 	0.20070 0.09980 0.47460 -0.44600
O 	O 	0.40060 0.43340 0.54400 -0.52300
O 	O 	0.37550 0.41040 0.47133 -0.52200
O 	O 	0.95530 0.11210 0.85580 -0.43900
O 	O 	0.07160 0.21400 0.85963 -0.42600
O 	O 	0.36300 0.48370 0.64258 -0.39200
O 	O 	0.40730 0.60800 0.57709 -0.39500
O 	O 	0.13180 0.86500 0.52403 -0.50300
O 	O 	0.98040 0.87400 0.57731 -0.45300
O 	O 	0.73940 0.33960 0.85230 -0.34500
O 	O 	0.67360 0.49100 0.85880 -0.48600
O 	O 	0.10990 0.01630 0.92300 -0.47100
O 	O 	0.12360 0.87270 0.97911 -0.51200
O 	O 	0.49440 0.64610 0.86150 -0.41100
O 	O 	0.38660 0.61060 0.93293 -0.40700
O 	O 	0.51130 0.30590 0.63680 -0.50000
O 	O 	0.55510 0.18510 0.59690 -0.33100
O 	O 	0.40400 0.42810 0.04590 -0.52300
O 	O 	0.38950 0.39160 0.97510 -0.54600
O 	O 	0.09940 0.03080 0.03350 -0.53300
O 	O 	0.10630 0.17240 0.97530 -0.47800
O 	O 	0.22280 0.06300 0.36530 -0.42100
O 	O 	0.08760 0.98250 0.36254 -0.44800
C 	C 	0.17570 0.17570 0.54310 -0.19000
C 	C 	0.25070 0.24760 0.51930 0.12200
H 	H 	0.27730 0.25540 0.48530 0.00600
C 	C 	0.28520 0.30640 0.54520 -0.19800
C 	C 	0.24820 0.29330 0.59600 0.07300
H 	H 	0.27460 0.33220 0.61360 0.01200
C 	C 	0.17230 0.22340 0.62150 -0.09800
C 	C 	0.13540 0.16520 0.59360 0.06200
H 	H 	0.08330 0.11910 0.60920 0.01400
C 	C 	0.13530 0.21160 0.67620 0.13000
C 	C 	0.04050 0.16500 0.69960 -0.17200
H 	H 	0.99940 0.14240 0.68070 0.08900
C 	C 	0.00740 0.15210 0.75090 0.10800
H 	H 	0.94420 0.12070 0.76600 -0.00100
C 	C 	0.06630 0.18490 0.77950 -0.16400
C 	C 	0.15510 0.23650 0.75620 0.10200
H 	H 	0.19320 0.26340 0.77480 0.00300
C 	C 	0.18880 0.24910 0.70540 -0.18800
H 	H 	0.24980 0.28410 0.69040 0.10400
C 	C 	0.14030 0.11110 0.51430 0.44500
C 	C 	0.36020 0.38930 0.51880 0.48000
C 	C 	0.02900 0.17010 0.83520 0.38100
C 	C 	0.23570 0.61800 0.62600 -0.09500
C 	C 	0.20640 0.70130 0.59180 0.04300
H 	H 	0.25210 0.72710 0.56220 0.02600
C 	C 	0.10680 0.74660 0.60230 -0.13500
C 	C 	0.03970 0.70730 0.64630 0.01300
H 	H 	0.97470 0.73920 0.65350 0.04100
C 	C 	0.06730 0.62060 0.68030 -0.05500
C 	C 	0.16620 0.57690 0.66910 0.00100
H 	H 	0.18630 0.51880 0.69100 0.03900
C 	C 	0.98950 0.57230 0.72510 0.11000
C 	C 	0.98450 0.46990 0.74010 -0.18000
H 	H 	0.03350 0.43020 0.72410 0.09600
C 	C 	0.90680 0.42540 0.77900 0.09000
H 	H 	0.90470 0.35580 0.78890 0.00200
C 	C 	0.83240 0.48210 0.80330 -0.17200
C 	C 	0.83980 0.58520 0.78920 0.09100
H 	H 	0.79160 0.62450 0.80590 0.01200
C 	C 	0.91720 0.63080 0.75080 -0.17000
H 	H 	0.92130 0.70030 0.74210 0.09600
C 	C 	0.34230 0.56610 0.61450 0.31600
C 	C 	0.07050 0.83630 0.56480 0.43800
C 	C 	0.74190 0.43350 0.84120 0.38800
C 	C 	0.23610 0.89700 0.90040 -0.16400
C 	C 	0.28380 0.80130 0.91230 0.06600
H 	H 	0.26080 0.75770 0.94310 0.01100
C 	C 	0.36470 0.77100 0.87870 -0.11900
C 	C 	0.40070 0.83640 0.83320 0.01600
H 	H 	0.45570 0.81600 0.81080 0.03200
C 	C 	0.35550 0.93230 0.82050 -0.06600
C 	C 	0.27270 0.96050 0.85410 0.03200
H 	H 	0.24080 0.02370 0.84550 0.03500
C 	C 	0.39790 0.00360 0.77180 0.11400
C 	C 	0.40090 0.10540 0.77090 -0.16400
H 	H 	0.37620 0.12810 0.79980 0.08500
C 	C 	0.44160 0.17280 0.72610 0.08500
H 	H 	0.44360 0.24060 0.72510 0.00100
C 	C 	0.47930 0.13830 0.68270 -0.17200
C 	C 	0.47720 0.03850 0.68450 0.10000
H 	H 	0.50350 0.01510 0.65600 0.00600
C 	C 	0.43630 0.97250 0.72860 -0.17500
H 	H 	0.43460 0.90490 0.72910 0.09200
C 	C 	0.14930 0.93030 0.93700 0.47200
C 	C 	0.41930 0.67060 0.89170 0.32800
C 	C 	0.51860 0.21410 0.63540 0.40200
C 	C 	0.30040 0.29210 0.04890 -0.23000
C 	C 	0.24790 0.24600 0.02170 0.14500
H 	H 	0.25500 0.26970 0.98710 -0.01000
C 	C 	0.18550 0.16530 0.04560 -0.22100
C 	C 	0.17590 0.13140 0.09700 0.09300
H 	H 	0.13450 0.07650 0.11320 0.00600
C 	C 	0.22560 0.17620 0.12510 -0.12100
C 	C 	0.28770 0.25820 0.10080 0.09600
H 	H 	0.32080 0.29020 0.11920 0.00700
C 	C 	0.20970 0.14140 0.18080 0.14600
C 	C 	0.28800 0.14920 0.20730 -0.19200
H 	H 	0.35200 0.17620 0.19000 0.10400
C 	C 	0.27290 0.11750 0.25910 0.10000
H 	H 	0.32660 0.12330 0.27630 0.00700
C 	C 	0.17740 0.07700 0.28560 -0.16900
C 	C 	0.10190 0.06920 0.25910 0.11000
H 	H 	0.03810 0.04160 0.27640 0.00800
C 	C 	0.11590 0.10070 0.20780 -0.19600
H 	H 	0.06170 0.09450 0.19100 0.10700
C 	C 	0.36980 0.37600 0.02140 0.51900
C 	C 	0.12730 0.11880 0.01610 0.49200
C 	C 	0.16160 0.03840 0.34150 0.38600
