data_crystal

_cell_length_a 9.94980
_cell_length_b 9.94980
_cell_length_c 14.37600
_cell_angle_alpha 98.35150
_cell_angle_beta  98.35150
_cell_angle_gamma 107.67700

_symmetry_space_group_name_	'P 1'
_symmetry_space_group_name_H-M	'P 1'

loop_
_symmetry_equiv_pos_as_xyz
  x,y,z

loop_
_atom_site_label
_atom_site_type_symbol
_atom_site_fract_x
_atom_site_fract_y
_atom_site_fract_z
_atom_site_charge
Ni	Ni	0.00236 0.50008 0.25466 1.06200
Ni	Ni	0.49992 0.99764 0.24534 1.06200
Ni	Ni	0.99764 0.49992 0.74534 1.06200
Ni	Ni	0.50008 0.00236 0.75466 1.06200
H 	H 	0.27220 0.39960 0.26460 0.00900
H 	H 	0.73620 0.60500 0.25570 0.01500
H 	H 	0.84440 0.82740 0.37480 0.04700
H 	H 	0.60040 0.72780 0.23540 0.01100
H 	H 	0.39500 0.26380 0.24430 0.01600
H 	H 	0.17260 0.15560 0.12520 0.04800
H 	H 	0.72780 0.60040 0.73540 0.01000
H 	H 	0.26380 0.39500 0.74430 0.01600
H 	H 	0.15560 0.17260 0.62520 0.04700
H 	H 	0.39960 0.27220 0.76460 0.01100
H 	H 	0.60500 0.73620 0.75570 0.01600
H 	H 	0.82740 0.84440 0.87480 0.04800
H 	H 	0.23100 0.76900 0.25000 -0.02600
H 	H 	0.77220 0.22780 0.25000 -0.01300
H 	H 	0.76900 0.23100 0.75000 -0.02600
H 	H 	0.22780 0.77220 0.75000 -0.01300
C 	C 	0.31060 0.49440 0.25770 0.03800
C 	C 	0.69390 0.50710 0.25320 0.03300
C 	C 	0.03470 0.87670 0.46540 -0.05200
C 	C 	0.13050 0.98510 0.54160 -0.04400
C 	C 	0.90710 0.89710 0.42580 -0.00900
C 	C 	0.05900 0.74020 0.42780 0.33300
C 	C 	0.27740 0.98100 0.58230 0.33300
C 	C 	0.50560 0.68940 0.24230 0.03800
C 	C 	0.49290 0.30610 0.24680 0.03300
C 	C 	0.12330 0.96530 0.03460 -0.06300
C 	C 	0.01490 0.86950 0.95840 -0.03400
C 	C 	0.10290 0.09290 0.07420 -0.01000
C 	C 	0.25980 0.94100 0.07220 0.33500
C 	C 	0.01900 0.72260 0.91770 0.33100
C 	C 	0.68940 0.50560 0.74230 0.03800
C 	C 	0.30610 0.49290 0.74680 0.03300
C 	C 	0.96530 0.12330 0.53460 -0.05200
C 	C 	0.86950 0.01490 0.45840 -0.04400
C 	C 	0.09290 0.10290 0.57420 -0.00900
C 	C 	0.94100 0.25980 0.57220 0.33300
C 	C 	0.72260 0.01900 0.41770 0.33300
C 	C 	0.49440 0.31060 0.75770 0.03800
C 	C 	0.50710 0.69390 0.75320 0.03300
C 	C 	0.87670 0.03470 0.96540 -0.06300
C 	C 	0.98510 0.13050 0.04160 -0.03400
C 	C 	0.89710 0.90710 0.92580 -0.01000
C 	C 	0.74020 0.05900 0.92780 0.33500
C 	C 	0.98100 0.27740 0.08230 0.33100
C 	C 	0.45400 0.54600 0.25000 -0.02700
C 	C 	0.28890 0.71110 0.25000 0.11300
C 	C 	0.54580 0.45420 0.25000 -0.02200
C 	C 	0.71430 0.28570 0.25000 0.10400
C 	C 	0.54600 0.45400 0.75000 -0.02700
C 	C 	0.71110 0.28890 0.75000 0.11300
C 	C 	0.45420 0.54580 0.75000 -0.02200
C 	C 	0.28570 0.71430 0.75000 0.10400
N 	N 	0.22630 0.57530 0.25540 -0.23200
N 	N 	0.77800 0.42520 0.25280 -0.22600
N 	N 	0.42470 0.77370 0.24460 -0.23200
N 	N 	0.57480 0.22200 0.24720 -0.22600
N 	N 	0.77370 0.42470 0.74460 -0.23200
N 	N 	0.22200 0.57480 0.74720 -0.22600
N 	N 	0.57530 0.22630 0.75540 -0.23200
N 	N 	0.42520 0.77800 0.75280 -0.22600
O 	O 	0.01390 0.68850 0.33940 -0.41900
O 	O 	0.11860 0.68360 0.48640 -0.27500
O 	O 	0.30510 0.98430 0.67190 -0.40500
O 	O 	0.36340 0.98060 0.52960 -0.27400
O 	O 	0.31150 0.98610 0.16060 -0.42000
O 	O 	0.31640 0.88140 0.01360 -0.27800
O 	O 	0.01570 0.69490 0.82810 -0.40400
O 	O 	0.01940 0.63660 0.97040 -0.27100
O 	O 	0.98610 0.31150 0.66060 -0.41900
O 	O 	0.88140 0.31640 0.51360 -0.27500
O 	O 	0.69490 0.01570 0.32810 -0.40500
O 	O 	0.63660 0.01940 0.47040 -0.27400
O 	O 	0.68850 0.01390 0.83940 -0.42000
O 	O 	0.68360 0.11860 0.98640 -0.27800
O 	O 	0.98430 0.30510 0.17190 -0.40400
O 	O 	0.98060 0.36340 0.02960 -0.27100
