data_crystal

_cell_length_a 9.74700
_cell_length_b 9.74700
_cell_length_c 14.76950
_cell_angle_alpha 100.16000
_cell_angle_beta  100.16000
_cell_angle_gamma 107.05300

_symmetry_space_group_name_	'P 1'
_symmetry_space_group_name_H-M	'P 1'

loop_
_symmetry_equiv_pos_as_xyz
  x,y,z

loop_
_atom_site_label
_atom_site_type_symbol
_atom_site_fract_x
_atom_site_fract_y
_atom_site_fract_z
_atom_site_charge
Cu	Cu	0.49662 0.00644 0.75704 0.90500
Cu	Cu	0.99356 0.50338 0.74296 0.90400
Cu	Cu	0.50338 0.99356 0.24296 0.90500
Cu	Cu	0.00644 0.49662 0.25704 0.90400
H 	H 	0.83390 0.83090 0.86860 0.05200
H 	H 	0.39740 0.27320 0.76570 0.02100
H 	H 	0.25980 0.39900 0.75260 0.02100
H 	H 	0.16910 0.16610 0.63140 0.05100
H 	H 	0.72680 0.60260 0.73430 0.02000
H 	H 	0.60100 0.74020 0.74740 0.02100
H 	H 	0.16610 0.16910 0.13140 0.05100
H 	H 	0.60260 0.72680 0.23430 0.02000
H 	H 	0.74020 0.60100 0.24740 0.02100
H 	H 	0.83090 0.83390 0.36860 0.05100
H 	H 	0.27320 0.39740 0.26570 0.02000
H 	H 	0.39900 0.25980 0.25260 0.02100
H 	H 	0.21800 0.78200 0.75000 -0.00800
H 	H 	0.77600 0.22400 0.75000 0.00100
H 	H 	0.78200 0.21800 0.25000 -0.00800
H 	H 	0.22400 0.77600 0.25000 0.00100
C 	C 	0.72116 0.03484 0.91890 0.34800
C 	C 	0.86932 0.02328 0.96070 -0.05400
C 	C 	0.90073 0.89907 0.92180 -0.00800
C 	C 	0.97084 0.12656 0.03990 -0.03600
C 	C 	0.94960 0.26840 0.08330 0.33900
C 	C 	0.49310 0.31150 0.75860 0.03300
C 	C 	0.30077 0.49743 0.75120 0.03600
C 	C 	0.96516 0.27884 0.58110 0.34600
C 	C 	0.97672 0.13068 0.53930 -0.04500
C 	C 	0.10093 0.09927 0.57820 -0.00800
C 	C 	0.87344 0.02916 0.46010 -0.04500
C 	C 	0.73160 0.05040 0.41670 0.34100
C 	C 	0.68850 0.50690 0.74140 0.03300
C 	C 	0.50257 0.69923 0.74880 0.03600
C 	C 	0.27884 0.96516 0.08110 0.34800
C 	C 	0.13068 0.97672 0.03930 -0.05400
C 	C 	0.09927 0.10093 0.07820 -0.00800
C 	C 	0.02916 0.87344 0.96010 -0.03600
C 	C 	0.05040 0.73160 0.91670 0.33900
C 	C 	0.50690 0.68850 0.24140 0.03300
C 	C 	0.69923 0.50257 0.24880 0.03600
C 	C 	0.03484 0.72116 0.41890 0.34600
C 	C 	0.02328 0.86932 0.46070 -0.04500
C 	C 	0.89907 0.90073 0.42180 -0.00800
C 	C 	0.12656 0.97084 0.53990 -0.04500
C 	C 	0.26840 0.94960 0.58330 0.34100
C 	C 	0.31150 0.49310 0.25860 0.03300
C 	C 	0.49743 0.30077 0.25120 0.03600
C 	C 	0.71630 0.28370 0.75000 0.10600
C 	C 	0.54360 0.45640 0.75000 -0.01900
C 	C 	0.44890 0.55110 0.75000 -0.02100
C 	C 	0.27660 0.72340 0.75000 0.11300
C 	C 	0.28370 0.71630 0.25000 0.10600
C 	C 	0.45640 0.54360 0.25000 -0.01900
C 	C 	0.55110 0.44890 0.25000 -0.02100
C 	C 	0.72340 0.27660 0.25000 0.11300
N 	N 	0.57754 0.22526 0.75681 -0.20700
N 	N 	0.21488 0.58232 0.75051 -0.20900
N 	N 	0.77474 0.42246 0.74319 -0.20700
N 	N 	0.41768 0.78512 0.74949 -0.20900
N 	N 	0.42246 0.77474 0.24319 -0.20700
N 	N 	0.78512 0.41768 0.24949 -0.20900
N 	N 	0.22526 0.57754 0.25681 -0.20700
N 	N 	0.58232 0.21488 0.25051 -0.20900
O 	O 	0.68892 0.01968 0.83058 -0.39600
O 	O 	0.64020 0.05080 0.97000 -0.27300
O 	O 	0.99312 0.31196 0.17200 -0.39300
O 	O 	0.89130 0.33090 0.03120 -0.26300
O 	O 	0.98032 0.31108 0.66942 -0.39500
O 	O 	0.94920 0.35980 0.53000 -0.27100
O 	O 	0.68804 0.00688 0.32800 -0.39400
O 	O 	0.66910 0.10870 0.46880 -0.26500
O 	O 	0.31108 0.98032 0.16942 -0.39600
O 	O 	0.35980 0.94920 0.03000 -0.27300
O 	O 	0.00688 0.68804 0.82800 -0.39300
O 	O 	0.10870 0.66910 0.96880 -0.26300
O 	O 	0.01968 0.68892 0.33058 -0.39500
O 	O 	0.05080 0.64020 0.47000 -0.27100
O 	O 	0.31196 0.99312 0.67200 -0.39400
O 	O 	0.33090 0.89130 0.53120 -0.26500
