data_crystal

_cell_length_a 8.65910
_cell_length_b 32.50800
_cell_length_c 9.97900
_cell_angle_alpha 90.00000
_cell_angle_beta  97.77000
_cell_angle_gamma 90.00000

_symmetry_space_group_name_	'P 1'
_symmetry_space_group_name_H-M	'P 1'

loop_
_symmetry_equiv_pos_as_xyz
  x,y,z

loop_
_atom_site_label
_atom_site_type_symbol
_atom_site_fract_x
_atom_site_fract_y
_atom_site_fract_z
_atom_site_charge
U 	U 	0.30893 0.19125 0.27111 0.01600
U 	U 	0.16598 0.95945 0.76976 0.02100
O 	O 	0.36400 0.11330 0.29600 -0.04500
O 	O 	0.22830 0.15220 0.06690 -0.17400
O 	O 	0.47110 0.17975 0.49250 -0.19800
O 	O 	0.71000 0.20277 0.69240 -0.17100
O 	O 	0.64070 0.12920 0.46900 -0.49500
H 	H 	0.64490 0.14170 0.39820 0.32800
O 	O 	0.71280 0.20490 0.91640 -0.16400
O 	O 	0.99850 0.18215 0.04750 -0.14400
O 	O 	0.30120 0.01840 0.89170 -0.16100
O 	O 	0.28350 0.01940 0.67130 -0.15900
O 	O 	0.96500 0.09331 0.38550 -0.15300
O 	O 	0.84900 0.04344 0.48080 -0.15000
O 	O 	0.94280 0.09650 0.10470 -0.14800
O 	O 	0.83370 0.04560 0.98170 -0.15900
C 	C 	0.57850 0.15000 0.79670 0.00400
C 	C 	0.52820 0.13070 0.66930 -0.06400
C 	C 	0.44500 0.09380 0.67080 0.00600
H 	H 	0.41070 0.08070 0.58940 0.08100
C 	C 	0.41320 0.07680 0.78860 -0.03300
C 	C 	0.46050 0.09490 0.91380 -0.00600
H 	H 	0.43770 0.08280 0.99340 0.08600
C 	C 	0.54390 0.13190 0.91530 -0.03800
H 	H 	0.57680 0.14470 0.99760 0.09400
C 	C 	0.67440 0.18900 0.80200 0.26500
C 	C 	0.55580 0.14710 0.53500 0.40400
C 	C 	0.33000 0.03640 0.78560 0.26200
C 	C 	0.04680 0.13500 0.87740 -0.03200
C 	C 	0.95670 0.09830 0.86560 -0.00300
C 	C 	0.91990 0.08020 0.74120 -0.03400
H 	H 	0.86090 0.05620 0.73370 0.09600
C 	C 	0.96880 0.09690 0.62650 0.00600
C 	C 	0.05750 0.13240 0.63780 -0.04300
H 	H 	0.09120 0.14380 0.56120 0.09300
C 	C 	0.09610 0.15110 0.76150 -0.00500
H 	H 	0.15630 0.17490 0.76760 0.06900
C 	C 	0.09510 0.15730 0.00560 0.27700
C 	C 	0.90760 0.07970 0.99060 0.25000
C 	C 	0.92580 0.07690 0.49010 0.26800
O 	O 	0.72550 0.88400 0.66900 -0.03000
U 	U 	0.69107 0.69125 0.72889 0.01500
U 	U 	0.83402 0.45945 0.23024 0.02000
O 	O 	0.63600 0.61330 0.70400 -0.04500
O 	O 	0.77170 0.65220 0.93310 -0.17400
O 	O 	0.52890 0.67975 0.50750 -0.19800
O 	O 	0.29000 0.70277 0.30760 -0.17100
O 	O 	0.35930 0.62920 0.53100 -0.49500
H 	H 	0.35510 0.64170 0.60180 0.32800
O 	O 	0.28720 0.70490 0.08360 -0.16400
O 	O 	0.00150 0.68215 0.95250 -0.14400
O 	O 	0.69880 0.51840 0.10830 -0.16100
O 	O 	0.71650 0.51940 0.32870 -0.15900
O 	O 	0.03500 0.59331 0.61450 -0.15300
O 	O 	0.15100 0.54344 0.51920 -0.15000
O 	O 	0.05720 0.59650 0.89530 -0.14800
O 	O 	0.16630 0.54560 0.01830 -0.15900
C 	C 	0.42150 0.65000 0.20330 0.00400
C 	C 	0.47180 0.63070 0.33070 -0.06400
C 	C 	0.55500 0.59380 0.32920 0.00600
H 	H 	0.58930 0.58070 0.41060 0.08100
C 	C 	0.58680 0.57680 0.21140 -0.03300
C 	C 	0.53950 0.59490 0.08620 -0.00600
H 	H 	0.56230 0.58280 0.00660 0.08600
C 	C 	0.45610 0.63190 0.08470 -0.03800
H 	H 	0.42320 0.64470 0.00240 0.09400
C 	C 	0.32560 0.68900 0.19800 0.26500
C 	C 	0.44420 0.64710 0.46500 0.40400
C 	C 	0.67000 0.53640 0.21440 0.26200
C 	C 	0.95320 0.63500 0.12260 -0.03100
C 	C 	0.04330 0.59830 0.13440 -0.00300
C 	C 	0.08010 0.58020 0.25880 -0.03400
H 	H 	0.13910 0.55620 0.26630 0.09600
C 	C 	0.03120 0.59690 0.37350 0.00600
C 	C 	0.94250 0.63240 0.36220 -0.04200
H 	H 	0.90880 0.64380 0.43880 0.09300
C 	C 	0.90390 0.65110 0.23850 -0.00500
H 	H 	0.84370 0.67490 0.23240 0.06900
C 	C 	0.90490 0.65730 0.99440 0.27700
C 	C 	0.09240 0.57970 0.00940 0.25000
C 	C 	0.07420 0.57690 0.50990 0.26800
O 	O 	0.27450 0.38400 0.33100 -0.03000
U 	U 	0.69107 0.80875 0.72889 0.01500
U 	U 	0.83402 0.04055 0.23024 0.02000
O 	O 	0.63600 0.88670 0.70400 -0.04500
O 	O 	0.77170 0.84780 0.93310 -0.17400
O 	O 	0.52890 0.82025 0.50750 -0.19800
O 	O 	0.29000 0.79723 0.30760 -0.17100
O 	O 	0.35930 0.87080 0.53100 -0.49500
H 	H 	0.35510 0.85830 0.60180 0.32800
O 	O 	0.28720 0.79510 0.08360 -0.16400
O 	O 	0.00150 0.81785 0.95250 -0.14400
O 	O 	0.69880 0.98160 0.10830 -0.16100
O 	O 	0.71650 0.98060 0.32870 -0.15900
O 	O 	0.03500 0.90669 0.61450 -0.15300
O 	O 	0.15100 0.95656 0.51920 -0.15000
O 	O 	0.05720 0.90350 0.89530 -0.14800
O 	O 	0.16630 0.95440 0.01830 -0.15900
C 	C 	0.42150 0.85000 0.20330 0.00400
C 	C 	0.47180 0.86930 0.33070 -0.06400
C 	C 	0.55500 0.90620 0.32920 0.00600
H 	H 	0.58930 0.91930 0.41060 0.08100
C 	C 	0.58680 0.92320 0.21140 -0.03300
C 	C 	0.53950 0.90510 0.08620 -0.00600
H 	H 	0.56230 0.91720 0.00660 0.08600
C 	C 	0.45610 0.86810 0.08470 -0.03800
H 	H 	0.42320 0.85530 0.00240 0.09400
C 	C 	0.32560 0.81100 0.19800 0.26500
C 	C 	0.44420 0.85290 0.46500 0.40400
C 	C 	0.67000 0.96360 0.21440 0.26200
C 	C 	0.95320 0.86500 0.12260 -0.03200
C 	C 	0.04330 0.90170 0.13440 -0.00300
C 	C 	0.08010 0.91980 0.25880 -0.03400
H 	H 	0.13910 0.94380 0.26630 0.09600
C 	C 	0.03120 0.90310 0.37350 0.00600
C 	C 	0.94250 0.86760 0.36220 -0.04300
H 	H 	0.90880 0.85620 0.43880 0.09300
C 	C 	0.90390 0.84890 0.23850 -0.00500
H 	H 	0.84370 0.82510 0.23240 0.06900
C 	C 	0.90490 0.84270 0.99440 0.27700
C 	C 	0.09240 0.92030 0.00940 0.25000
C 	C 	0.07420 0.92310 0.50990 0.26800
O 	O 	0.27450 0.11600 0.33100 -0.03000
U 	U 	0.30893 0.30875 0.27111 0.01500
U 	U 	0.16598 0.54055 0.76976 0.02000
O 	O 	0.36400 0.38670 0.29600 -0.04500
O 	O 	0.22830 0.34780 0.06690 -0.17400
O 	O 	0.47110 0.32025 0.49250 -0.19800
O 	O 	0.71000 0.29723 0.69240 -0.17100
O 	O 	0.64070 0.37080 0.46900 -0.49500
H 	H 	0.64490 0.35830 0.39820 0.32800
O 	O 	0.71280 0.29510 0.91640 -0.16400
O 	O 	0.99850 0.31785 0.04750 -0.14400
O 	O 	0.30120 0.48160 0.89170 -0.16100
O 	O 	0.28350 0.48060 0.67130 -0.15900
O 	O 	0.96500 0.40669 0.38550 -0.15300
O 	O 	0.84900 0.45656 0.48080 -0.15000
O 	O 	0.94280 0.40350 0.10470 -0.14800
O 	O 	0.83370 0.45440 0.98170 -0.15900
C 	C 	0.57850 0.35000 0.79670 0.00400
C 	C 	0.52820 0.36930 0.66930 -0.06400
C 	C 	0.44500 0.40620 0.67080 0.00600
H 	H 	0.41070 0.41930 0.58940 0.08100
C 	C 	0.41320 0.42320 0.78860 -0.03300
C 	C 	0.46050 0.40510 0.91380 -0.00600
H 	H 	0.43770 0.41720 0.99340 0.08600
C 	C 	0.54390 0.36810 0.91530 -0.03800
H 	H 	0.57680 0.35530 0.99760 0.09400
C 	C 	0.67440 0.31100 0.80200 0.26500
C 	C 	0.55580 0.35290 0.53500 0.40400
C 	C 	0.33000 0.46360 0.78560 0.26200
C 	C 	0.04680 0.36500 0.87740 -0.03100
C 	C 	0.95670 0.40170 0.86560 -0.00300
C 	C 	0.91990 0.41980 0.74120 -0.03400
H 	H 	0.86090 0.44380 0.73370 0.09600
C 	C 	0.96880 0.40310 0.62650 0.00600
C 	C 	0.05750 0.36760 0.63780 -0.04200
H 	H 	0.09120 0.35620 0.56120 0.09300
C 	C 	0.09610 0.34890 0.76150 -0.00500
H 	H 	0.15630 0.32510 0.76760 0.06900
C 	C 	0.09510 0.34270 0.00560 0.27700
C 	C 	0.90760 0.42030 0.99060 0.25000
C 	C 	0.92580 0.42310 0.49010 0.26800
O 	O 	0.72550 0.61600 0.66900 -0.03000
U 	U 	0.55903 0.25000 0.55500 0.01500
U 	U 	0.92605 0.25000 0.00418 0.02800
O 	O 	0.37060 0.25000 0.37670 -0.03400
O 	O 	0.20200 0.25000 0.12930 -0.04200
U 	U 	0.44097 0.75000 0.44500 0.01500
U 	U 	0.07395 0.75000 0.99582 0.02800
O 	O 	0.62940 0.75000 0.62330 -0.03400
O 	O 	0.79800 0.75000 0.87070 -0.04200
