data_crystal

_cell_length_a 10.70680
_cell_length_b 17.72940
_cell_length_c 13.24350
_cell_angle_alpha 90.00000
_cell_angle_beta  104.44600
_cell_angle_gamma 90.00000

_symmetry_space_group_name_	'P 1'
_symmetry_space_group_name_H-M	'P 1'

loop_
_symmetry_equiv_pos_as_xyz
  x,y,z

loop_
_atom_site_label
_atom_site_type_symbol
_atom_site_fract_x
_atom_site_fract_y
_atom_site_fract_z
_atom_site_charge
C 	C 	0.74330 0.05130 0.39710 0.41200
C 	C 	0.87650 0.02610 0.45130 -0.33700
C 	C 	0.98020 0.04230 0.41010 0.44000
H 	H 	0.96760 0.07120 0.34990 -0.06600
C 	C 	0.89760 0.98410 0.54230 0.42400
H 	H 	0.82920 0.97360 0.57170 -0.07300
C 	C 	0.60290 0.15170 0.09970 0.30000
C 	C 	0.67540 0.20380 0.04620 -0.06700
C 	C 	0.70180 0.27690 0.08110 0.00700
H 	H 	0.66950 0.29480 0.13550 0.05600
C 	C 	0.72370 0.17630 0.96440 0.01400
H 	H 	0.70610 0.12710 0.94080 0.04600
O 	O 	0.72850 0.09410 0.32010 -0.43800
O 	O 	0.65040 0.02810 0.42890 -0.40100
O 	O 	0.54370 0.17990 0.16390 -0.42100
O 	O 	0.60190 0.08230 0.08220 -0.34400
C 	C 	0.24330 0.55130 0.39710 0.30300
C 	C 	0.37650 0.52610 0.45130 -0.06500
C 	C 	0.48020 0.54230 0.41010 -0.01300
H 	H 	0.46760 0.57120 0.34990 0.05300
C 	C 	0.39760 0.48410 0.54230 -0.02000
H 	H 	0.32920 0.47360 0.57170 0.06000
C 	C 	0.10290 0.65170 0.09970 0.30300
C 	C 	0.17540 0.70380 0.04620 -0.08600
C 	C 	0.20180 0.77690 0.08110 -0.00100
H 	H 	0.16950 0.79480 0.13550 0.03600
C 	C 	0.22370 0.67630 0.96440 -0.00100
H 	H 	0.20610 0.62710 0.94080 0.03500
O 	O 	0.22850 0.59410 0.32010 -0.44000
O 	O 	0.15040 0.52810 0.42890 -0.41300
O 	O 	0.04370 0.67990 0.16390 -0.47100
O 	O 	0.10190 0.58230 0.08220 -0.38500
C 	C 	0.25670 0.05130 0.10290 0.18500
C 	C 	0.12350 0.02610 0.04870 0.22400
C 	C 	0.01980 0.04230 0.08990 -0.47100
H 	H 	0.03240 0.07120 0.15010 0.17700
C 	C 	0.10240 0.98410 0.95770 -0.47300
H 	H 	0.17080 0.97360 0.92830 0.20100
C 	C 	0.39710 0.15170 0.40030 0.28400
C 	C 	0.32460 0.20380 0.45380 -0.03900
C 	C 	0.29820 0.27690 0.41890 -0.04100
H 	H 	0.33050 0.29480 0.36450 0.06100
C 	C 	0.27630 0.17630 0.53560 -0.04800
H 	H 	0.29390 0.12710 0.55920 0.05500
O 	O 	0.27150 0.09410 0.17990 -0.40900
O 	O 	0.34960 0.02810 0.07110 -0.35200
O 	O 	0.45630 0.17990 0.33610 -0.41800
O 	O 	0.39810 0.08230 0.41780 -0.35500
C 	C 	0.75670 0.55130 0.10290 0.29600
C 	C 	0.62350 0.52610 0.04870 -0.06000
C 	C 	0.51980 0.54230 0.08990 -0.01400
H 	H 	0.53240 0.57120 0.15010 0.05500
C 	C 	0.60240 0.48410 0.95770 -0.01600
H 	H 	0.67080 0.47360 0.92830 0.06600
C 	C 	0.89710 0.65170 0.40030 0.28000
C 	C 	0.82460 0.70380 0.45380 -0.01600
C 	C 	0.79820 0.77690 0.41890 -0.03700
H 	H 	0.83050 0.79480 0.36450 0.08100
C 	C 	0.77630 0.67630 0.53560 -0.03600
H 	H 	0.79390 0.62710 0.55920 0.06700
O 	O 	0.77150 0.59410 0.17990 -0.39900
O 	O 	0.84960 0.52810 0.07110 -0.33600
O 	O 	0.95630 0.67990 0.33610 -0.35700
O 	O 	0.89810 0.58230 0.41780 -0.30600
C 	C 	0.25670 0.94870 0.60290 0.18200
C 	C 	0.12350 0.97390 0.54870 0.23200
C 	C 	0.01980 0.95770 0.58990 -0.48300
H 	H 	0.03240 0.92880 0.65010 0.18100
C 	C 	0.10240 0.01590 0.45770 -0.48300
H 	H 	0.17080 0.02640 0.42830 0.20500
C 	C 	0.39710 0.84830 0.90030 0.27900
C 	C 	0.32460 0.79620 0.95380 -0.02300
C 	C 	0.29820 0.72310 0.91890 -0.05600
H 	H 	0.33050 0.70520 0.86450 0.06600
C 	C 	0.27630 0.82370 0.03560 -0.06800
H 	H 	0.29390 0.87290 0.05920 0.05900
O 	O 	0.27150 0.90590 0.67990 -0.40800
O 	O 	0.34960 0.97190 0.57110 -0.35100
O 	O 	0.45630 0.82010 0.83610 -0.41600
O 	O 	0.39810 0.91770 0.91780 -0.35300
C 	C 	0.75670 0.44870 0.60290 0.28900
C 	C 	0.62350 0.47390 0.54870 -0.03900
C 	C 	0.51980 0.45770 0.58990 -0.03200
H 	H 	0.53240 0.42880 0.65010 0.06200
C 	C 	0.60240 0.51590 0.45770 -0.03900
H 	H 	0.67080 0.52640 0.42830 0.07200
C 	C 	0.89710 0.34830 0.90030 0.27300
C 	C 	0.82460 0.29620 0.95380 0.00300
C 	C 	0.79820 0.22310 0.91890 -0.05400
H 	H 	0.83050 0.20520 0.86450 0.08800
C 	C 	0.77630 0.32370 0.03560 -0.06000
H 	H 	0.79390 0.37290 0.05920 0.07300
O 	O 	0.77150 0.40590 0.67990 -0.39600
O 	O 	0.84960 0.47190 0.57110 -0.33000
O 	O 	0.95630 0.32010 0.83610 -0.35500
O 	O 	0.89810 0.41770 0.91780 -0.30300
C 	C 	0.74330 0.94870 0.89710 0.40800
C 	C 	0.87650 0.97390 0.95130 -0.32900
C 	C 	0.98020 0.95770 0.91010 0.42900
H 	H 	0.96760 0.92880 0.84990 -0.06300
C 	C 	0.89760 0.01590 0.04230 0.40900
H 	H 	0.82920 0.02640 0.07170 -0.06900
C 	C 	0.60290 0.84830 0.59970 0.29400
C 	C 	0.67540 0.79620 0.54620 -0.04700
C 	C 	0.70180 0.72310 0.58110 -0.01000
H 	H 	0.66950 0.70520 0.63550 0.06200
C 	C 	0.72370 0.82370 0.46440 -0.00800
H 	H 	0.70610 0.87290 0.44080 0.05100
O 	O 	0.72850 0.90590 0.82010 -0.43600
O 	O 	0.65040 0.97190 0.92890 -0.40000
O 	O 	0.54370 0.82010 0.66390 -0.41900
O 	O 	0.60190 0.91770 0.58220 -0.34100
C 	C 	0.24330 0.44870 0.89710 0.29600
C 	C 	0.37650 0.47390 0.95130 -0.04600
C 	C 	0.48020 0.45770 0.91010 -0.03100
H 	H 	0.46760 0.42880 0.84990 0.06000
C 	C 	0.39760 0.51590 0.04230 -0.04400
H 	H 	0.32920 0.52640 0.07170 0.06700
C 	C 	0.10290 0.34830 0.59970 0.29800
C 	C 	0.17540 0.29620 0.54620 -0.06900
C 	C 	0.20180 0.22310 0.58110 -0.01600
H 	H 	0.16950 0.20520 0.63550 0.04200
C 	C 	0.22370 0.32370 0.46440 -0.02100
H 	H 	0.20610 0.37290 0.44080 0.04000
O 	O 	0.22850 0.40590 0.82010 -0.43800
O 	O 	0.15040 0.47190 0.92890 -0.40900
O 	O 	0.04370 0.32010 0.66390 -0.46900
O 	O 	0.10190 0.41770 0.58220 -0.38200
Bi	Bi	0.50000 0.07556 0.25000 1.88900
Bi	Bi	0.00000 0.57556 0.25000 1.85100
Bi	Bi	0.50000 0.92444 0.75000 1.88900
Bi	Bi	-0.00000 0.42444 0.75000 1.85100
