data_crystal

_cell_length_a 17.95300
_cell_length_b 19.81930
_cell_length_c 23.02300
_cell_angle_alpha 90.00000
_cell_angle_beta  90.00000
_cell_angle_gamma 116.93100

_symmetry_space_group_name_	'P 1'
_symmetry_space_group_name_H-M	'P 1'

loop_
_symmetry_equiv_pos_as_xyz
  x,y,z

loop_
_atom_site_label
_atom_site_type_symbol
_atom_site_fract_x
_atom_site_fract_y
_atom_site_fract_z
_atom_site_charge
Zn	Zn	0.08535 0.56344 -0.00000 1.18200
Zn	Zn	0.91465 0.43656 -0.00000 1.18200
Zn	Zn	0.47809 0.56344 0.50000 1.19900
Zn	Zn	0.52191 0.43656 0.50000 1.19900
H 	H 	0.19180 0.46920 0.87230 -0.00300
H 	H 	0.99720 0.24640 0.79450 0.11700
H 	H 	0.95780 0.30540 0.86600 -0.00300
H 	H 	0.23210 0.40820 0.80510 0.11900
H 	H 	0.11660 0.18620 0.83430 0.08900
H 	H 	0.05130 0.05720 0.83430 0.03400
H 	H 	0.80820 0.53080 0.87230 -0.00300
H 	H 	0.00280 0.75360 0.79450 0.11700
H 	H 	0.04220 0.69460 0.86600 -0.00300
H 	H 	0.76790 0.59180 0.80510 0.11900
H 	H 	0.88340 0.81380 0.83430 0.08900
H 	H 	0.94870 0.94280 0.83430 0.03400
H 	H 	0.27740 0.46920 0.62770 -0.01100
H 	H 	0.24920 0.24640 0.70550 0.11900
H 	H 	0.34760 0.30540 0.63400 -0.01000
H 	H 	0.17610 0.40820 0.69490 0.11800
H 	H 	0.06960 0.18620 0.66570 0.08300
H 	H 	0.00590 0.05720 0.66570 0.02800
H 	H 	0.72260 0.53080 0.62770 -0.01100
H 	H 	0.75080 0.75360 0.70550 0.11900
H 	H 	0.65240 0.69460 0.63400 -0.01000
H 	H 	0.82390 0.59180 0.69490 0.11800
H 	H 	0.93040 0.81380 0.66570 0.08300
H 	H 	0.99410 0.94280 0.66570 0.02800
H 	H 	0.80820 0.53080 0.12770 -0.02000
H 	H 	0.00280 0.75360 0.20550 0.11600
H 	H 	0.04220 0.69460 0.13400 -0.01800
H 	H 	0.76790 0.59180 0.19490 0.11500
H 	H 	0.88340 0.81380 0.16570 0.07700
H 	H 	0.94870 0.94280 0.16570 0.02200
H 	H 	0.19180 0.46920 0.12770 -0.02000
H 	H 	0.99720 0.24640 0.20550 0.11600
H 	H 	0.95780 0.30540 0.13400 -0.01800
H 	H 	0.23210 0.40820 0.19490 0.11500
H 	H 	0.11660 0.18620 0.16570 0.07700
H 	H 	0.05130 0.05720 0.16570 0.02200
H 	H 	0.72260 0.53080 0.37230 -0.01300
H 	H 	0.75080 0.75360 0.29450 0.11500
H 	H 	0.65240 0.69460 0.36600 -0.01200
H 	H 	0.82390 0.59180 0.30510 0.11700
H 	H 	0.93040 0.81380 0.33430 0.08300
H 	H 	0.99410 0.94280 0.33430 0.02700
H 	H 	0.27740 0.46920 0.37230 -0.01300
H 	H 	0.24920 0.24640 0.29450 0.11500
H 	H 	0.34760 0.30540 0.36600 -0.01200
H 	H 	0.17610 0.40820 0.30510 0.11700
H 	H 	0.06960 0.18620 0.33430 0.08300
H 	H 	0.00590 0.05720 0.33430 0.02700
C 	C 	0.04628 0.43466 0.92152 0.42800
C 	C 	0.07074 0.39522 0.87697 -0.19900
C 	C 	0.15204 0.42362 0.85721 0.14900
C 	C 	0.11731 0.31960 0.79193 0.20400
C 	C 	0.03725 0.29130 0.81066 -0.23600
C 	C 	0.01297 0.32716 0.85333 0.14100
C 	C 	0.17641 0.38762 0.81652 -0.23700
C 	C 	0.09396 0.16026 0.79995 -0.14400
C 	C 	0.05500 0.08296 0.79986 0.00200
C 	C 	0.95372 0.56534 0.92152 0.42800
C 	C 	0.92926 0.60478 0.87697 -0.19900
C 	C 	0.84796 0.57638 0.85721 0.14900
C 	C 	0.88269 0.68040 0.79193 0.20400
C 	C 	0.96275 0.70870 0.81066 -0.23600
C 	C 	0.98703 0.67284 0.85333 0.14100
C 	C 	0.82359 0.61238 0.81652 -0.23700
C 	C 	0.90604 0.83974 0.79995 -0.14400
C 	C 	0.94500 0.91704 0.79986 0.00200
C 	C 	0.38838 0.43466 0.57848 0.43400
C 	C 	0.32448 0.39522 0.62303 -0.21100
C 	C 	0.27158 0.42362 0.64279 0.15400
C 	C 	0.20229 0.31960 0.70807 0.20700
C 	C 	0.25405 0.29130 0.68934 -0.24300
C 	C 	0.31419 0.32716 0.64667 0.14700
C 	C 	0.21121 0.38762 0.68348 -0.24500
C 	C 	0.06630 0.16026 0.70005 -0.14500
C 	C 	0.02796 0.08296 0.70014 0.00200
C 	C 	0.61162 0.56534 0.57848 0.43400
C 	C 	0.67552 0.60478 0.62303 -0.21100
C 	C 	0.72842 0.57638 0.64279 0.15400
C 	C 	0.79771 0.68040 0.70807 0.20700
C 	C 	0.74595 0.70870 0.68934 -0.24300
C 	C 	0.68581 0.67284 0.64667 0.14700
C 	C 	0.78879 0.61238 0.68348 -0.24500
C 	C 	0.93370 0.83974 0.70005 -0.14500
C 	C 	0.97204 0.91704 0.70014 0.00200
C 	C 	0.95372 0.56534 0.07848 0.43500
C 	C 	0.92926 0.60478 0.12303 -0.22200
C 	C 	0.84796 0.57638 0.14279 0.15600
C 	C 	0.88269 0.68040 0.20807 0.20600
C 	C 	0.96275 0.70870 0.18934 -0.24900
C 	C 	0.98703 0.67284 0.14667 0.14800
C 	C 	0.82359 0.61238 0.18348 -0.25100
C 	C 	0.90604 0.83974 0.20005 -0.14600
C 	C 	0.94500 0.91704 0.20014 -0.00100
C 	C 	0.04628 0.43466 0.07848 0.43500
C 	C 	0.07074 0.39522 0.12303 -0.22200
C 	C 	0.15204 0.42362 0.14279 0.15600
C 	C 	0.11731 0.31960 0.20807 0.20600
C 	C 	0.03725 0.29130 0.18934 -0.24900
C 	C 	0.01297 0.32716 0.14667 0.14800
C 	C 	0.17641 0.38762 0.18348 -0.25100
C 	C 	0.09396 0.16026 0.20005 -0.14600
C 	C 	0.05500 0.08296 0.20014 -0.00100
C 	C 	0.61162 0.56534 0.42152 0.43300
C 	C 	0.67552 0.60478 0.37697 -0.21200
C 	C 	0.72842 0.57638 0.35721 0.15300
C 	C 	0.79771 0.68040 0.29193 0.20400
C 	C 	0.74595 0.70870 0.31066 -0.24400
C 	C 	0.68581 0.67284 0.35333 0.14500
C 	C 	0.78879 0.61238 0.31652 -0.24500
C 	C 	0.93370 0.83974 0.29995 -0.14500
C 	C 	0.97204 0.91704 0.29986 -0.00000
C 	C 	0.38838 0.43466 0.42152 0.43300
C 	C 	0.32448 0.39522 0.37697 -0.21200
C 	C 	0.27158 0.42362 0.35721 0.15300
C 	C 	0.20229 0.31960 0.29193 0.20400
C 	C 	0.25405 0.29130 0.31066 -0.24400
C 	C 	0.31419 0.32716 0.35333 0.14500
C 	C 	0.21121 0.38762 0.31652 -0.24500
C 	C 	0.06630 0.16026 0.29995 -0.14500
C 	C 	0.02796 0.08296 0.29986 -0.00000
C 	C 	0.09989 0.19978 0.75000 0.13500
C 	C 	0.02118 0.04236 0.75000 -0.01500
C 	C 	0.90011 0.80022 0.75000 0.13500
C 	C 	0.97882 0.95764 0.75000 -0.01500
C 	C 	0.90011 0.80022 0.25000 0.13200
C 	C 	0.97882 0.95764 0.25000 -0.01800
C 	C 	0.09989 0.19978 0.25000 0.13200
C 	C 	0.02118 0.04236 0.25000 -0.01800
N 	N 	0.14054 0.28108 0.75000 -0.19800
N 	N 	0.85946 0.71892 0.75000 -0.19800
N 	N 	0.85946 0.71892 0.25000 -0.20000
N 	N 	0.14054 0.28108 0.25000 -0.20000
O 	O 	0.10140 0.49794 0.93857 -0.46100
O 	O 	0.97131 0.40224 0.93885 -0.46400
O 	O 	0.89860 0.50206 0.93857 -0.46100
O 	O 	0.02869 0.59776 0.93885 -0.46400
O 	O 	0.39654 0.49794 0.56143 -0.48500
O 	O 	0.43093 0.40224 0.56115 -0.48800
O 	O 	0.60346 0.50206 0.56143 -0.48500
O 	O 	0.56907 0.59776 0.56115 -0.48800
O 	O 	0.89860 0.50206 0.06143 -0.50200
O 	O 	0.02869 0.59776 0.06115 -0.50400
O 	O 	0.10140 0.49794 0.06143 -0.50200
O 	O 	0.97131 0.40224 0.06115 -0.50400
O 	O 	0.60346 0.50206 0.43857 -0.48600
O 	O 	0.56907 0.59776 0.43885 -0.48900
O 	O 	0.39654 0.49794 0.43857 -0.48600
O 	O 	0.43093 0.40224 0.43885 -0.48900
