data_crystal

_cell_length_a 17.21700
_cell_length_b 22.93820
_cell_length_c 22.93820
_cell_angle_alpha 60.94200
_cell_angle_beta  67.95770
_cell_angle_gamma 67.95760

_symmetry_space_group_name_	'P 1'
_symmetry_space_group_name_H-M	'P 1'

loop_
_symmetry_equiv_pos_as_xyz
  x,y,z

loop_
_atom_site_label
_atom_site_type_symbol
_atom_site_fract_x
_atom_site_fract_y
_atom_site_fract_z
_atom_site_charge
Cu	Cu	0.47607 0.97264 0.97264 0.90000
Cu	Cu	0.92135 0.52736 0.52736 0.90300
Cu	Cu	0.07865 0.47264 0.47264 0.90300
Cu	Cu	0.52393 0.02736 0.02736 0.90000
H 	H 	0.72810 0.85590 0.11090 0.00400
H 	H 	0.82790 0.75600 0.14960 0.11300
H 	H 	0.74410 0.66860 0.07740 0.11200
H 	H 	0.64840 0.77090 0.03310 0.00600
H 	H 	0.93650 0.67450 0.01130 0.08600
H 	H 	0.99840 0.61130 0.94610 0.02900
H 	H 	0.19490 0.64410 0.38910 0.00300
H 	H 	0.23350 0.74400 0.35040 0.11200
H 	H 	0.99010 0.83140 0.42260 0.11100
H 	H 	0.95240 0.72910 0.46690 0.00400
H 	H 	0.12230 0.82550 0.48870 0.08600
H 	H 	0.05580 0.88870 0.55390 0.02900
H 	H 	0.80510 0.61090 0.35590 0.00300
H 	H 	0.76650 0.64960 0.25600 0.11200
H 	H 	0.00990 0.57740 0.16860 0.11100
H 	H 	0.04760 0.53310 0.27090 0.00400
H 	H 	0.87770 0.51130 0.17450 0.08600
H 	H 	0.94420 0.44610 0.11130 0.02900
H 	H 	0.27190 0.88910 0.14410 0.00300
H 	H 	0.17210 0.85040 0.24400 0.11200
H 	H 	0.25590 0.92260 0.33140 0.11100
H 	H 	0.35160 0.96690 0.22910 0.00500
H 	H 	0.06350 0.98870 0.32550 0.08600
H 	H 	0.00160 0.05390 0.38870 0.02900
H 	H 	0.27190 0.14410 0.88910 0.00300
H 	H 	0.17210 0.24400 0.85040 0.11200
H 	H 	0.25590 0.33140 0.92260 0.11100
H 	H 	0.35160 0.22910 0.96690 0.00500
H 	H 	0.06350 0.32550 0.98870 0.08600
H 	H 	0.00160 0.38870 0.05390 0.02900
H 	H 	0.80510 0.35590 0.61090 0.00300
H 	H 	0.76650 0.25600 0.64960 0.11200
H 	H 	0.00990 0.16860 0.57740 0.11100
H 	H 	0.04760 0.27090 0.53310 0.00400
H 	H 	0.87770 0.17450 0.51130 0.08600
H 	H 	0.94420 0.11130 0.44610 0.02900
H 	H 	0.19490 0.38910 0.64410 0.00300
H 	H 	0.23350 0.35040 0.74400 0.11200
H 	H 	0.99010 0.42260 0.83140 0.11100
H 	H 	0.95240 0.46690 0.72910 0.00400
H 	H 	0.12230 0.48870 0.82550 0.08600
H 	H 	0.05580 0.55390 0.88870 0.02900
H 	H 	0.72810 0.11090 0.85590 0.00300
H 	H 	0.82790 0.14960 0.75600 0.11200
H 	H 	0.74410 0.07740 0.66860 0.11100
H 	H 	0.64840 0.03310 0.77090 0.00500
H 	H 	0.93650 0.01130 0.67450 0.08600
H 	H 	0.99840 0.94610 0.61130 0.02900
C 	C 	0.73158 0.81843 0.10357 0.12300
C 	C 	0.79094 0.75875 0.12695 -0.22100
C 	C 	0.79683 0.70175 0.11719 0.18600
C 	C 	0.74169 0.70667 0.08315 -0.21700
C 	C 	0.68322 0.76764 0.05780 0.12000
C 	C 	0.67573 0.82415 0.06879 -0.17300
C 	C 	0.61117 0.88904 0.04274 0.39000
C 	C 	0.93694 0.62810 0.03202 -0.14500
C 	C 	0.97501 0.58976 0.99282 -0.00100
C 	C 	0.15358 0.68157 0.39643 0.12300
C 	C 	0.17664 0.74125 0.37305 -0.22100
C 	C 	0.11577 0.79825 0.38281 0.18600
C 	C 	0.03151 0.79333 0.41685 -0.21700
C 	C 	0.00866 0.73236 0.44220 0.12000
C 	C 	0.06867 0.67585 0.43121 -0.17400
C 	C 	0.04295 0.61096 0.45726 0.39100
C 	C 	0.09706 0.87190 0.46798 -0.14700
C 	C 	0.05759 0.91024 0.50718 0.00300
C 	C 	0.84642 0.60357 0.31843 0.12400
C 	C 	0.82336 0.62695 0.25875 -0.22100
C 	C 	0.88423 0.61719 0.20175 0.18600
C 	C 	0.96849 0.58315 0.20667 -0.21700
C 	C 	0.99134 0.55780 0.26764 0.12000
C 	C 	0.93133 0.56879 0.32415 -0.17400
C 	C 	0.95705 0.54274 0.38904 0.39100
C 	C 	0.90294 0.53202 0.12810 -0.14700
C 	C 	0.94241 0.49282 0.08976 0.00300
C 	C 	0.26842 0.89643 0.18157 0.12300
C 	C 	0.20906 0.87305 0.24125 -0.22100
C 	C 	0.20317 0.88281 0.29825 0.18600
C 	C 	0.25831 0.91685 0.29333 -0.21700
C 	C 	0.31678 0.94220 0.23236 0.12000
C 	C 	0.32427 0.93121 0.17585 -0.17300
C 	C 	0.38883 0.95726 0.11096 0.39000
C 	C 	0.06306 0.96798 0.37190 -0.14500
C 	C 	0.02499 0.00718 0.41024 -0.00100
C 	C 	0.26842 0.18157 0.89643 0.12300
C 	C 	0.20906 0.24125 0.87305 -0.22100
C 	C 	0.20317 0.29825 0.88281 0.18600
C 	C 	0.25831 0.29333 0.91685 -0.21700
C 	C 	0.31678 0.23236 0.94220 0.12000
C 	C 	0.32427 0.17585 0.93121 -0.17300
C 	C 	0.38883 0.11096 0.95726 0.39000
C 	C 	0.06306 0.37190 0.96798 -0.14500
C 	C 	0.02499 0.41024 0.00718 -0.00100
C 	C 	0.84642 0.31843 0.60357 0.12300
C 	C 	0.82336 0.25875 0.62695 -0.22100
C 	C 	0.88423 0.20175 0.61719 0.18600
C 	C 	0.96849 0.20667 0.58315 -0.21700
C 	C 	0.99134 0.26764 0.55780 0.12000
C 	C 	0.93133 0.32415 0.56879 -0.17400
C 	C 	0.95705 0.38904 0.54274 0.39100
C 	C 	0.90294 0.12810 0.53202 -0.14700
C 	C 	0.94241 0.08976 0.49282 0.00300
C 	C 	0.15358 0.39643 0.68157 0.12400
C 	C 	0.17664 0.37305 0.74125 -0.22100
C 	C 	0.11577 0.38281 0.79825 0.18600
C 	C 	0.03151 0.41685 0.79333 -0.21700
C 	C 	0.00866 0.44220 0.73236 0.12000
C 	C 	0.06867 0.43121 0.67585 -0.17400
C 	C 	0.04295 0.45726 0.61096 0.39100
C 	C 	0.09706 0.46798 0.87190 -0.14700
C 	C 	0.05759 0.50718 0.91024 0.00300
C 	C 	0.73158 0.10357 0.81843 0.12300
C 	C 	0.79094 0.12695 0.75875 -0.22100
C 	C 	0.79683 0.11719 0.70175 0.18600
C 	C 	0.74169 0.08315 0.70667 -0.21700
C 	C 	0.68322 0.05780 0.76764 0.12000
C 	C 	0.67573 0.06879 0.82415 -0.17300
C 	C 	0.61117 0.04274 0.88904 0.39000
C 	C 	0.93694 0.03202 0.62810 -0.14500
C 	C 	0.97501 0.99282 0.58976 -0.00100
C 	C 	0.90013 0.59987 0.09987 0.14000
C 	C 	0.97913 0.52087 0.02087 -0.01400
C 	C 	0.09987 0.90013 0.40013 0.14000
C 	C 	0.02087 0.97913 0.47913 -0.01400
C 	C 	0.09987 0.40013 0.90013 0.14000
C 	C 	0.02087 0.47913 0.97913 -0.01400
C 	C 	0.90013 0.09987 0.59987 0.14000
C 	C 	0.97913 0.02087 0.52087 -0.01400
N 	N 	0.85998 0.64002 0.14002 -0.19100
N 	N 	0.14002 0.85998 0.35998 -0.19100
N 	N 	0.14002 0.35998 0.85998 -0.19100
N 	N 	0.85998 0.14002 0.64002 -0.19100
O 	O 	0.56575 0.89120 0.01032 -0.41700
O 	O 	0.60645 0.93797 0.05653 -0.40900
O 	O 	0.96727 0.60880 0.48968 -0.41900
O 	O 	0.10095 0.56203 0.44347 -0.41000
O 	O 	0.03273 0.51032 0.39120 -0.41900
O 	O 	0.89905 0.55653 0.43797 -0.41000
O 	O 	0.43425 0.98968 0.10880 -0.41700
O 	O 	0.39355 0.94347 0.06203 -0.40900
O 	O 	0.43425 0.10880 0.98968 -0.41700
O 	O 	0.39355 0.06203 0.94347 -0.40900
O 	O 	0.03273 0.39120 0.51032 -0.41900
O 	O 	0.89905 0.43797 0.55653 -0.41000
O 	O 	0.96727 0.48968 0.60880 -0.41900
O 	O 	0.10095 0.44347 0.56203 -0.41000
O 	O 	0.56575 0.01032 0.89120 -0.41700
O 	O 	0.60645 0.05653 0.93797 -0.40900
