data_crystal

_cell_length_a 17.14100
_cell_length_b 23.09940
_cell_length_c 23.09940
_cell_angle_alpha 60.90590
_cell_angle_beta  68.22110
_cell_angle_gamma 68.22100

_symmetry_space_group_name_	'P 1'
_symmetry_space_group_name_H-M	'P 1'

loop_
_symmetry_equiv_pos_as_xyz
  x,y,z

loop_
_atom_site_label
_atom_site_type_symbol
_atom_site_fract_x
_atom_site_fract_y
_atom_site_fract_z
_atom_site_charge
Co	Co	0.97252 0.97142 0.97142 1.12600
Co	Co	0.41536 0.52858 0.52858 1.13200
Co	Co	0.58464 0.47142 0.47142 1.13200
Co	Co	0.02748 0.02858 0.02858 1.12600
H 	H 	0.76890 0.89110 0.14670 0.00800
H 	H 	0.75760 0.92330 0.33170 0.10500
H 	H 	0.66580 0.85370 0.24650 0.10700
H 	H 	0.85450 0.96520 0.23000 0.00500
H 	H 	0.56660 0.98960 0.32540 0.08600
H 	H 	0.50770 0.05450 0.38950 0.03100
H 	H 	0.30670 0.60890 0.35330 0.00700
H 	H 	0.51260 0.57670 0.16830 0.10500
H 	H 	0.26600 0.64630 0.25350 0.10500
H 	H 	0.54970 0.53480 0.27000 0.00400
H 	H 	0.38160 0.51040 0.17460 0.08400
H 	H 	0.45170 0.44550 0.11050 0.02900
H 	H 	0.69330 0.64670 0.39110 0.00600
H 	H 	0.48740 0.83170 0.42330 0.10400
H 	H 	0.73400 0.74650 0.35370 0.10500
H 	H 	0.45030 0.73000 0.46520 0.00400
H 	H 	0.61840 0.82540 0.48960 0.08400
H 	H 	0.54830 0.88950 0.55450 0.02900
H 	H 	0.23110 0.85330 0.10890 0.00700
H 	H 	0.24240 0.66830 0.07670 0.10400
H 	H 	0.33420 0.75350 0.14630 0.10600
H 	H 	0.14550 0.77000 0.03480 0.00400
H 	H 	0.43340 0.67460 0.01040 0.08500
H 	H 	0.49230 0.61050 0.94550 0.03000
H 	H 	0.23110 0.10890 0.85330 0.00700
H 	H 	0.24240 0.07670 0.66830 0.10400
H 	H 	0.33420 0.14630 0.75350 0.10600
H 	H 	0.14550 0.03480 0.77000 0.00400
H 	H 	0.43340 0.01040 0.67460 0.08500
H 	H 	0.49230 0.94550 0.61050 0.03000
H 	H 	0.69330 0.39110 0.64670 0.00600
H 	H 	0.48740 0.42330 0.83170 0.10400
H 	H 	0.73400 0.35370 0.74650 0.10500
H 	H 	0.45030 0.46520 0.73000 0.00400
H 	H 	0.61840 0.48960 0.82540 0.08400
H 	H 	0.54830 0.55450 0.88950 0.02900
H 	H 	0.30670 0.35330 0.60890 0.00600
H 	H 	0.51260 0.16830 0.57670 0.10400
H 	H 	0.26600 0.25350 0.64630 0.10500
H 	H 	0.54970 0.27000 0.53480 0.00400
H 	H 	0.38160 0.17460 0.51040 0.08400
H 	H 	0.45170 0.11050 0.44550 0.02900
H 	H 	0.76890 0.14670 0.89110 0.00700
H 	H 	0.75760 0.33170 0.92330 0.10400
H 	H 	0.66580 0.24650 0.85370 0.10600
H 	H 	0.85450 0.23000 0.96520 0.00400
H 	H 	0.56660 0.32540 0.98960 0.08500
H 	H 	0.50770 0.38950 0.05450 0.03000
C 	C 	0.88809 0.95603 0.11079 0.38700
C 	C 	0.76540 0.89837 0.18383 0.10200
C 	C 	0.75874 0.91793 0.29399 -0.20200
C 	C 	0.82172 0.93199 0.17857 -0.15800
C 	C 	0.70399 0.87541 0.24377 -0.20600
C 	C 	0.81750 0.94202 0.23356 0.10700
C 	C 	0.70011 0.88507 0.29911 0.17200
C 	C 	0.56523 0.96870 0.37164 -0.14500
C 	C 	0.52799 0.00775 0.41107 -0.00500
C 	C 	0.45491 0.54397 0.38921 0.38700
C 	C 	0.34760 0.60163 0.31617 0.10200
C 	C 	0.47066 0.58207 0.20601 -0.20300
C 	C 	0.43228 0.56801 0.32143 -0.15900
C 	C 	0.32317 0.62459 0.25623 -0.20600
C 	C 	0.49308 0.55798 0.26644 0.10800
C 	C 	0.38429 0.61493 0.20089 0.17200
C 	C 	0.40557 0.53130 0.12836 -0.14600
C 	C 	0.44681 0.49225 0.08893 -0.00300
C 	C 	0.54509 0.61079 0.45603 0.38700
C 	C 	0.65240 0.68383 0.39837 0.10200
C 	C 	0.52934 0.79399 0.41793 -0.20300
C 	C 	0.56772 0.67857 0.43199 -0.15900
C 	C 	0.67683 0.74377 0.37541 -0.20600
C 	C 	0.50692 0.73356 0.44202 0.10800
C 	C 	0.61571 0.79911 0.38507 0.17200
C 	C 	0.59443 0.87164 0.46870 -0.14600
C 	C 	0.55319 0.91107 0.50775 -0.00300
C 	C 	0.11191 0.88921 0.04397 0.38700
C 	C 	0.23460 0.81617 0.10163 0.10200
C 	C 	0.24126 0.70601 0.08207 -0.20200
C 	C 	0.17828 0.82143 0.06801 -0.15800
C 	C 	0.29601 0.75623 0.12459 -0.20600
C 	C 	0.18250 0.76644 0.05798 0.10700
C 	C 	0.29989 0.70089 0.11493 0.17200
C 	C 	0.43477 0.62836 0.03130 -0.14500
C 	C 	0.47201 0.58893 0.99225 -0.00500
C 	C 	0.11191 0.04397 0.88921 0.38700
C 	C 	0.23460 0.10163 0.81617 0.10200
C 	C 	0.24126 0.08207 0.70601 -0.20200
C 	C 	0.17828 0.06801 0.82143 -0.15800
C 	C 	0.29601 0.12459 0.75623 -0.20600
C 	C 	0.18250 0.05798 0.76644 0.10700
C 	C 	0.29989 0.11493 0.70089 0.17200
C 	C 	0.43477 0.03130 0.62836 -0.14500
C 	C 	0.47201 0.99225 0.58893 -0.00500
C 	C 	0.54509 0.45603 0.61079 0.38700
C 	C 	0.65240 0.39837 0.68383 0.10200
C 	C 	0.52934 0.41793 0.79399 -0.20300
C 	C 	0.56772 0.43199 0.67857 -0.15900
C 	C 	0.67683 0.37541 0.74377 -0.20600
C 	C 	0.50692 0.44202 0.73356 0.10800
C 	C 	0.61571 0.38507 0.79911 0.17200
C 	C 	0.59443 0.46870 0.87164 -0.14600
C 	C 	0.55319 0.50775 0.91107 -0.00300
C 	C 	0.45491 0.38921 0.54397 0.38700
C 	C 	0.34760 0.31617 0.60163 0.10200
C 	C 	0.47066 0.20601 0.58207 -0.20300
C 	C 	0.43228 0.32143 0.56801 -0.15900
C 	C 	0.32317 0.25623 0.62459 -0.20600
C 	C 	0.49308 0.26644 0.55798 0.10800
C 	C 	0.38429 0.20089 0.61493 0.17200
C 	C 	0.40557 0.12836 0.53130 -0.14600
C 	C 	0.44681 0.08893 0.49225 -0.00300
C 	C 	0.88809 0.11079 0.95603 0.38700
C 	C 	0.76540 0.18383 0.89837 0.10200
C 	C 	0.75874 0.29399 0.91793 -0.20200
C 	C 	0.82172 0.17857 0.93199 -0.15800
C 	C 	0.70399 0.24377 0.87541 -0.20600
C 	C 	0.81750 0.23356 0.94202 0.10700
C 	C 	0.70011 0.29911 0.88507 0.17200
C 	C 	0.56523 0.37164 0.96870 -0.14500
C 	C 	0.52799 0.41107 0.00775 -0.00500
C 	C 	0.59907 0.90093 0.40093 0.14000
C 	C 	0.52063 0.97937 0.47937 -0.01300
C 	C 	0.40093 0.59907 0.09907 0.14000
C 	C 	0.47937 0.52063 0.02063 -0.01300
C 	C 	0.40093 0.09907 0.59907 0.14000
C 	C 	0.47937 0.02063 0.52063 -0.01300
C 	C 	0.59907 0.40093 0.90093 0.14000
C 	C 	0.52063 0.47937 0.97937 -0.01300
N 	N 	0.63840 0.86160 0.36160 -0.18700
N 	N 	0.36160 0.63840 0.13840 -0.18700
N 	N 	0.36160 0.13840 0.63840 -0.18700
N 	N 	0.63840 0.36160 0.86160 -0.18700
O 	O 	0.89016 0.94292 0.06398 -0.46300
O 	O 	0.93483 0.98862 0.10998 -0.45600
O 	O 	0.39706 0.55708 0.43602 -0.46600
O 	O 	0.53343 0.51138 0.39002 -0.45800
O 	O 	0.60294 0.56398 0.44292 -0.46600
O 	O 	0.46657 0.60998 0.48862 -0.45800
O 	O 	0.10984 0.93602 0.05708 -0.46300
O 	O 	0.06517 0.89002 0.01138 -0.45600
O 	O 	0.10984 0.05708 0.93602 -0.46300
O 	O 	0.06517 0.01138 0.89002 -0.45600
O 	O 	0.60294 0.44292 0.56398 -0.46600
O 	O 	0.46657 0.48862 0.60998 -0.45800
O 	O 	0.39706 0.43602 0.55708 -0.46600
O 	O 	0.53343 0.39002 0.51138 -0.45800
O 	O 	0.89016 0.06398 0.94292 -0.46300
O 	O 	0.93483 0.10998 0.98862 -0.45600
