data_crystal

_cell_length_a 7.78150
_cell_length_b 9.26000
_cell_length_c 25.54300
_cell_angle_alpha 90.00000
_cell_angle_beta  90.00000
_cell_angle_gamma 97.36000

_symmetry_space_group_name_	'P 1'
_symmetry_space_group_name_H-M	'P 1'

loop_
_symmetry_equiv_pos_as_xyz
  x,y,z

loop_
_atom_site_label
_atom_site_type_symbol
_atom_site_fract_x
_atom_site_fract_y
_atom_site_fract_z
_atom_site_charge
Gd	Gd	0.41277 0.48775 0.34940 1.40100
Gd	Gd	0.08723 0.51225 0.84940 1.36900
Gd	Gd	0.58723 0.51225 0.65060 1.41100
Gd	Gd	0.91277 0.48775 0.15060 1.42000
Cu	Cu	0.50000 0.00000 0.50000 0.89800
Cu	Cu	-0.00000 0.00000 -0.00000 0.87800
C 	C 	0.72040 0.40350 0.27200 0.39000
C 	C 	0.66280 0.25410 0.29510 -0.02800
C 	C 	0.72910 0.13020 0.27720 -0.04100
C 	C 	0.67310 0.99760 0.30090 0.10000
C 	C 	0.55260 0.99320 0.34100 -0.09700
C 	C 	0.49310 0.12210 0.35630 0.05500
C 	C 	0.48390 0.85220 0.36800 0.37000
C 	C 	0.69760 0.77730 0.49270 0.29000
C 	C 	0.80020 0.90440 0.46330 -0.00800
C 	C 	0.94830 0.89350 0.43500 0.06100
C 	C 	0.03090 0.01900 0.41140 -0.03400
C 	C 	0.96010 0.14970 0.41520 -0.08500
C 	C 	0.80810 0.15020 0.44300 0.08600
C 	C 	0.04250 0.28810 0.38940 0.33800
C 	C 	0.77960 0.59650 0.77200 0.39900
C 	C 	0.83720 0.74590 0.79510 -0.04700
C 	C 	0.77090 0.86980 0.77720 0.05800
C 	C 	0.82690 0.00240 0.80090 -0.00000
C 	C 	0.94740 0.00680 0.84100 -0.11700
C 	C 	0.00690 0.87790 0.85630 0.10100
C 	C 	0.01610 0.14780 0.86800 0.31600
C 	C 	0.80240 0.22270 0.99270 0.32800
C 	C 	0.69980 0.09560 0.96330 -0.04600
C 	C 	0.55170 0.10650 0.93500 -0.03500
C 	C 	0.46910 0.98100 0.91140 0.11400
C 	C 	0.53990 0.85030 0.91520 -0.14100
C 	C 	0.69190 0.84980 0.94300 0.12500
C 	C 	0.45750 0.71190 0.88940 0.38000
C 	C 	0.27960 0.59650 0.72800 0.39600
C 	C 	0.33720 0.74590 0.70490 -0.04600
C 	C 	0.27090 0.86980 0.72280 0.04900
C 	C 	0.32690 0.00240 0.69910 0.00900
C 	C 	0.44740 0.00680 0.65900 -0.18200
C 	C 	0.50690 0.87790 0.64370 0.14700
C 	C 	0.51610 0.14780 0.63200 0.38300
C 	C 	0.30240 0.22270 0.50730 0.29300
C 	C 	0.19980 0.09560 0.53670 -0.04400
C 	C 	0.05170 0.10650 0.56500 -0.06600
C 	C 	0.96910 0.98100 0.58860 0.14200
C 	C 	0.03990 0.85030 0.58480 -0.17800
C 	C 	0.19190 0.84980 0.55700 0.12300
C 	C 	0.95750 0.71190 0.61060 0.41400
C 	C 	0.22040 0.40350 0.22800 0.38800
C 	C 	0.16280 0.25410 0.20490 -0.02600
C 	C 	0.22910 0.13020 0.22280 -0.05400
C 	C 	0.17310 0.99760 0.19910 0.11300
C 	C 	0.05260 0.99320 0.15900 -0.12500
C 	C 	0.99310 0.12210 0.14370 0.08200
C 	C 	0.98390 0.85220 0.13200 0.39300
C 	C 	0.19760 0.77730 0.00730 0.25500
C 	C 	0.30020 0.90440 0.03670 0.00200
C 	C 	0.44830 0.89350 0.06500 0.03800
C 	C 	0.53090 0.01900 0.08860 -0.00800
C 	C 	0.46010 0.14970 0.08480 -0.11800
C 	C 	0.30810 0.15020 0.05700 0.08200
C 	C 	0.54250 0.28810 0.11060 0.36300
N 	N 	0.54520 0.25060 0.33350 -0.17400
N 	N 	0.73010 0.03020 0.46660 -0.22400
N 	N 	0.95480 0.74940 0.83350 -0.15900
N 	N 	0.76990 0.96980 0.96660 -0.16900
N 	N 	0.45480 0.74940 0.66650 -0.18100
N 	N 	0.26990 0.96980 0.53340 -0.18000
N 	N 	0.04520 0.25060 0.16650 -0.18800
N 	N 	0.23010 0.03020 0.03340 -0.23500
O 	O 	0.66520 0.50980 0.29354 -0.38500
O 	O 	0.82210 0.40970 0.23434 -0.41300
O 	O 	0.50760 0.73680 0.34340 -0.41300
O 	O 	0.41120 0.85840 0.41117 -0.32500
O 	O 	0.56330 0.80860 0.51660 -0.36700
O 	O 	0.75220 0.65770 0.49162 -0.25500
O 	O 	0.20060 0.29560 0.37670 -0.40200
O 	O 	0.94820 0.38580 0.38290 -0.27600
O 	O 	0.83480 0.49020 0.79354 -0.38100
O 	O 	0.67790 0.59030 0.73434 -0.41700
O 	O 	0.99240 0.26320 0.84340 -0.37800
O 	O 	0.08880 0.14160 0.91117 -0.34000
O 	O 	0.93670 0.19140 0.01660 -0.40000
O 	O 	0.74780 0.34230 0.99162 -0.24900
O 	O 	0.29940 0.70440 0.87670 -0.40500
O 	O 	0.55180 0.61420 0.88290 -0.28800
O 	O 	0.33480 0.49020 0.70646 -0.39200
O 	O 	0.17790 0.59030 0.76566 -0.42100
O 	O 	0.49240 0.26320 0.65660 -0.42100
O 	O 	0.58880 0.14160 0.58883 -0.35600
O 	O 	0.43670 0.19140 0.48340 -0.38300
O 	O 	0.24780 0.34230 0.50838 -0.25800
O 	O 	0.79940 0.70440 0.62330 -0.41800
O 	O 	0.05180 0.61420 0.61710 -0.31200
O 	O 	0.16520 0.50980 0.20646 -0.38900
O 	O 	0.32210 0.40970 0.26566 -0.41400
O 	O 	0.00760 0.73680 0.15660 -0.42900
O 	O 	0.91120 0.85840 0.08883 -0.33100
O 	O 	0.06330 0.80860 0.98340 -0.34000
O 	O 	0.25220 0.65770 0.00838 -0.26200
O 	O 	0.70060 0.29560 0.12330 -0.41100
O 	O 	0.44820 0.38580 0.11710 -0.29300
