data_crystal

_cell_length_a 10.47720
_cell_length_b 15.67530
_cell_length_c 12.77080
_cell_angle_alpha 90.00000
_cell_angle_beta  102.04700
_cell_angle_gamma 90.00000

_symmetry_space_group_name_	'P 1'
_symmetry_space_group_name_H-M	'P 1'

loop_
_symmetry_equiv_pos_as_xyz
  x,y,z

loop_
_atom_site_label
_atom_site_type_symbol
_atom_site_fract_x
_atom_site_fract_y
_atom_site_fract_z
_atom_site_charge
O 	O 	0.85590 0.59646 0.21667 -0.15400
O 	O 	0.53380 0.84912 0.14790 -0.15800
O 	O 	0.95520 0.56145 0.08725 -0.14100
O 	O 	0.67590 0.94826 0.14020 -0.15300
C 	C 	0.87750 0.60882 0.12340 0.26700
C 	C 	0.69400 0.81369 0.05260 -0.01400
C 	C 	0.81020 0.68004 0.05720 -0.01300
C 	C 	0.75280 0.74326 0.10760 -0.01200
C 	C 	0.63170 0.87610 0.11560 0.28600
H 	H 	0.75394 0.73803 0.18272 0.08400
O 	O 	0.35590 0.09646 0.21667 -0.15600
O 	O 	0.03380 0.34912 0.14790 -0.16100
O 	O 	0.45520 0.06145 0.08725 -0.14500
O 	O 	0.17590 0.44826 0.14020 -0.15500
C 	C 	0.37750 0.10882 0.12340 0.26700
C 	C 	0.19400 0.31369 0.05260 -0.01500
C 	C 	0.31020 0.18004 0.05720 -0.01300
C 	C 	0.25280 0.24326 0.10760 -0.01200
C 	C 	0.13170 0.37610 0.11560 0.28600
H 	H 	0.25394 0.23803 0.18272 0.08400
O 	O 	0.14410 0.59646 0.28333 -0.15700
O 	O 	0.46620 0.84912 0.35210 -0.15900
O 	O 	0.04480 0.56145 0.41275 -0.14700
O 	O 	0.32410 0.94826 0.35980 -0.15500
C 	C 	0.12250 0.60882 0.37660 0.26700
C 	C 	0.30600 0.81369 0.44740 -0.01500
C 	C 	0.18980 0.68004 0.44280 -0.01400
C 	C 	0.24720 0.74326 0.39240 -0.01200
C 	C 	0.36830 0.87610 0.38440 0.28600
H 	H 	0.24606 0.73803 0.31728 0.08300
O 	O 	0.64410 0.09646 0.28333 -0.15600
O 	O 	0.96620 0.34912 0.35210 -0.15700
O 	O 	0.54480 0.06145 0.41275 -0.14500
O 	O 	0.82410 0.44826 0.35980 -0.15300
C 	C 	0.62250 0.10882 0.37660 0.26700
C 	C 	0.80600 0.31369 0.44740 -0.01400
C 	C 	0.68980 0.18004 0.44280 -0.01300
C 	C 	0.74720 0.24326 0.39240 -0.01200
C 	C 	0.86830 0.37610 0.38440 0.28500
H 	H 	0.74606 0.23803 0.31728 0.08400
O 	O 	0.14410 0.40354 0.78333 -0.15700
O 	O 	0.46620 0.15088 0.85210 -0.15900
O 	O 	0.04480 0.43855 0.91275 -0.14600
O 	O 	0.32410 0.05174 0.85980 -0.15500
C 	C 	0.12250 0.39118 0.87660 0.26700
C 	C 	0.30600 0.18631 0.94740 -0.01500
C 	C 	0.18980 0.31996 0.94280 -0.01400
C 	C 	0.24720 0.25674 0.89240 -0.01200
C 	C 	0.36830 0.12390 0.88440 0.28600
H 	H 	0.24606 0.26197 0.81728 0.08300
O 	O 	0.64410 0.90354 0.78333 -0.15600
O 	O 	0.96620 0.65088 0.85210 -0.15700
O 	O 	0.54480 0.93855 0.91275 -0.14500
O 	O 	0.82410 0.55174 0.85980 -0.15300
C 	C 	0.62250 0.89118 0.87660 0.26700
C 	C 	0.80600 0.68631 0.94740 -0.01500
C 	C 	0.68980 0.81996 0.94280 -0.01400
C 	C 	0.74720 0.75674 0.89240 -0.01200
C 	C 	0.86830 0.62390 0.88440 0.28600
H 	H 	0.74606 0.76197 0.81728 0.08400
O 	O 	0.85590 0.40354 0.71667 -0.15500
O 	O 	0.53380 0.15088 0.64790 -0.15900
O 	O 	0.95520 0.43855 0.58725 -0.14300
O 	O 	0.67590 0.05174 0.64020 -0.15400
C 	C 	0.87750 0.39118 0.62340 0.26700
C 	C 	0.69400 0.18631 0.55260 -0.01400
C 	C 	0.81020 0.31996 0.55720 -0.01300
C 	C 	0.75280 0.25674 0.60760 -0.01200
C 	C 	0.63170 0.12390 0.61560 0.28600
H 	H 	0.75394 0.26197 0.68272 0.08400
O 	O 	0.35590 0.90354 0.71667 -0.15600
O 	O 	0.03380 0.65088 0.64790 -0.16100
O 	O 	0.45520 0.93855 0.58725 -0.14500
O 	O 	0.17590 0.55174 0.64020 -0.15500
C 	C 	0.37750 0.89118 0.62340 0.26700
C 	C 	0.19400 0.68631 0.55260 -0.01500
C 	C 	0.31020 0.81996 0.55720 -0.01400
C 	C 	0.25280 0.75674 0.60760 -0.01200
C 	C 	0.13170 0.62390 0.61560 0.28600
H 	H 	0.25394 0.76197 0.68272 0.08400
U 	U 	0.00000 0.47175 0.25000 0.03300
U 	U 	0.50000 0.97175 0.25000 0.03500
U 	U 	-0.00000 0.52825 0.75000 0.03300
U 	U 	0.50000 0.02825 0.75000 0.03500
