data_crystal

_cell_length_a 21.04900
_cell_length_b 21.04900
_cell_length_c 32.54220
_cell_angle_alpha 108.86900
_cell_angle_beta  108.86900
_cell_angle_gamma 90.00010

_symmetry_space_group_name_	'P 1'
_symmetry_space_group_name_H-M	'P 1'

loop_
_symmetry_equiv_pos_as_xyz
  x,y,z

loop_
_atom_site_label
_atom_site_type_symbol
_atom_site_fract_x
_atom_site_fract_y
_atom_site_fract_z
_atom_site_charge
Cu	Cu	0.90965 0.89535 0.71932 0.91300
Cu	Cu	0.80967 0.82397 0.71932 0.91300
Cu	Cu	0.14535 0.55967 0.21932 0.91200
Cu	Cu	0.07397 0.65965 0.21932 0.90900
Cu	Cu	0.44033 0.85465 0.78068 0.91200
Cu	Cu	0.34035 0.92603 0.78068 0.90900
Cu	Cu	0.17603 0.19033 0.28068 0.91400
Cu	Cu	0.10465 0.09035 0.28068 0.91400
H 	H 	0.67220 0.94390 0.54080 0.10200
H 	H 	0.74340 0.95300 0.61100 0.12100
H 	H 	0.49500 0.90940 0.68120 -0.00800
H 	H 	0.56920 0.92270 0.64240 0.04700
H 	H 	0.40650 0.98900 0.53640 0.06600
H 	H 	0.38470 0.97740 0.59920 0.03200
H 	H 	0.38270 0.97050 0.66660 0.17900
H 	H 	0.64630 0.88330 0.62200 0.03500
H 	H 	0.86860 0.59690 0.54080 0.12000
H 	H 	0.86760 0.65800 0.61100 0.11200
H 	H 	0.18620 0.77180 0.68120 -0.01700
H 	H 	0.07320 0.71970 0.64240 0.02700
H 	H 	0.12990 0.54740 0.53640 0.08300
H 	H 	0.21450 0.62180 0.59920 0.02300
H 	H 	0.28390 0.69610 0.66660 0.18800
H 	H 	0.97570 0.73870 0.62200 0.05600
H 	H 	0.19390 0.61860 0.04080 0.10100
H 	H 	0.20300 0.61760 0.11100 0.12200
H 	H 	0.15940 0.93620 0.18120 0.00900
H 	H 	0.17270 0.82320 0.14240 0.05200
H 	H 	0.23900 0.87990 0.03640 0.06500
H 	H 	0.22740 0.96450 0.09920 0.03600
H 	H 	0.22050 0.03390 0.16660 0.16300
H 	H 	0.13330 0.72570 0.12200 0.03100
H 	H 	0.84690 0.42220 0.04080 0.11100
H 	H 	0.90800 0.49340 0.11100 0.10600
H 	H 	0.02180 0.24500 0.18120 -0.03100
H 	H 	0.96970 0.31920 0.14240 0.04500
H 	H 	0.79740 0.15650 0.03640 0.07700
H 	H 	0.87180 0.13470 0.09920 0.03300
H 	H 	0.94610 0.13270 0.16660 0.18700
H 	H 	0.98870 0.39630 0.12200 0.05500
H 	H 	0.38140 0.80610 0.95920 0.10100
H 	H 	0.38240 0.79700 0.88900 0.12200
H 	H 	0.06380 0.84060 0.81880 0.00900
H 	H 	0.17680 0.82730 0.85760 0.05200
H 	H 	0.12010 0.76100 0.96360 0.06500
H 	H 	0.03550 0.77260 0.90080 0.03600
H 	H 	0.96610 0.77950 0.83340 0.16300
H 	H 	0.27430 0.86670 0.87800 0.03100
H 	H 	0.57780 0.15310 0.95920 0.11100
H 	H 	0.50660 0.09200 0.88900 0.10600
H 	H 	0.75500 0.97820 0.81880 -0.03100
H 	H 	0.68080 0.03030 0.85760 0.04500
H 	H 	0.84350 0.20260 0.96360 0.07700
H 	H 	0.86530 0.12820 0.90080 0.03300
H 	H 	0.86730 0.05390 0.83340 0.18700
H 	H 	0.60370 0.01130 0.87800 0.05500
H 	H 	0.40310 0.13140 0.45920 0.12000
H 	H 	0.34200 0.13240 0.38900 0.11200
H 	H 	0.22820 0.81380 0.31880 -0.01700
H 	H 	0.28030 0.92680 0.35760 0.02700
H 	H 	0.45260 0.87010 0.46360 0.08300
H 	H 	0.37820 0.78550 0.40080 0.02300
H 	H 	0.30390 0.71610 0.33340 0.18800
H 	H 	0.26130 0.02430 0.37800 0.05600
H 	H 	0.05610 0.32780 0.45920 0.10200
H 	H 	0.04700 0.25660 0.38900 0.12100
H 	H 	0.09060 0.50500 0.31880 -0.00800
H 	H 	0.07730 0.43080 0.35760 0.04700
H 	H 	0.01100 0.59350 0.46360 0.06600
H 	H 	0.02260 0.61530 0.40080 0.03200
H 	H 	0.02950 0.61730 0.33340 0.17900
H 	H 	0.11670 0.35370 0.37800 0.03500
C 	C 	0.40850 0.92660 0.71560 0.48600
C 	C 	0.61643 0.93853 0.58046 0.03200
C 	C 	0.62965 0.95005 0.54410 -0.15100
C 	C 	0.57979 0.97069 0.51258 0.17000
C 	C 	0.51691 0.97981 0.51742 -0.03500
C 	C 	0.50378 0.96828 0.55376 0.04400
C 	C 	0.55354 0.94764 0.58528 -0.02000
C 	C 	0.77510 0.89720 0.65860 0.39000
C 	C 	0.72552 0.92542 0.62324 -0.21100
C 	C 	0.46280 0.93280 0.66600 0.17600
C 	C 	0.53674 0.93794 0.62128 -0.03400
C 	C 	0.47640 0.94910 0.62740 -0.04800
C 	C 	0.44056 0.97726 0.55872 -0.08100
C 	C 	0.42681 0.96931 0.59562 -0.00600
C 	C 	0.41548 0.94608 0.68016 -0.39800
C 	C 	0.66327 0.91267 0.61054 0.03900
C 	C 	0.30710 0.78900 0.71560 0.49400
C 	C 	0.96403 0.64193 0.58046 0.10000
C 	C 	0.91445 0.59405 0.54410 -0.19700
C 	C 	0.93279 0.54189 0.51258 0.22400
C 	C 	0.00051 0.53761 0.51742 -0.09200
C 	C 	0.04998 0.58548 0.55376 0.09500
C 	C 	0.03174 0.63764 0.58528 -0.08600
C 	C 	0.88350 0.76140 0.65860 0.38100
C 	C 	0.89772 0.69782 0.62324 -0.17700
C 	C 	0.20320 0.73320 0.66600 0.20100
C 	C 	0.08454 0.68334 0.62128 0.01000
C 	C 	0.15100 0.67830 0.62740 -0.08100
C 	C 	0.11816 0.58146 0.55872 -0.11900
C 	C 	0.16881 0.62631 0.59562 0.02800
C 	C 	0.26468 0.73408 0.68016 -0.41700
C 	C 	0.94727 0.69787 0.61054 -0.00700
C 	C 	0.17660 0.05710 0.21560 0.46000
C 	C 	0.18853 0.71403 0.08046 0.02800
C 	C 	0.20005 0.66445 0.04410 -0.15100
C 	C 	0.22069 0.68279 0.01258 0.17500
C 	C 	0.22981 0.75051 0.01742 -0.04500
C 	C 	0.21828 0.79998 0.05376 0.04400
C 	C 	0.19764 0.78174 0.08528 -0.01300
C 	C 	0.14720 0.63350 0.15860 0.39200
C 	C 	0.17542 0.64772 0.12324 -0.21500
C 	C 	0.18280 0.95320 0.16600 0.10800
C 	C 	0.18794 0.83454 0.12128 -0.05100
C 	C 	0.19910 0.90100 0.12740 -0.02200
C 	C 	0.22726 0.86816 0.05872 -0.07300
C 	C 	0.21931 0.91881 0.09562 -0.02300
C 	C 	0.19608 0.01468 0.18016 -0.32600
C 	C 	0.16267 0.69727 0.11054 0.04300
C 	C 	0.03900 0.15850 0.21560 0.47500
C 	C 	0.89193 0.36643 0.08046 0.06200
C 	C 	0.84405 0.37965 0.04410 -0.16900
C 	C 	0.79189 0.32979 0.01258 0.18500
C 	C 	0.78761 0.26691 0.01742 -0.05200
C 	C 	0.83548 0.25378 0.05376 0.06500
C 	C 	0.88764 0.30354 0.08528 -0.03900
C 	C 	0.01140 0.52510 0.15860 0.34500
C 	C 	0.94782 0.47552 0.12324 -0.15700
C 	C 	0.98320 0.21280 0.16600 0.21600
C 	C 	0.93334 0.28674 0.12128 -0.01200
C 	C 	0.92830 0.22640 0.12740 -0.06400
C 	C 	0.83146 0.19056 0.05872 -0.09400
C 	C 	0.87631 0.17681 0.09562 0.01300
C 	C 	0.98408 0.16548 0.18016 -0.39400
C 	C 	0.94787 0.41327 0.11054 -0.00200
C 	C 	0.94290 0.82340 0.78440 0.46000
C 	C 	0.28597 0.81147 0.91954 0.02800
C 	C 	0.33555 0.79995 0.95590 -0.15100
C 	C 	0.31721 0.77931 0.98742 0.17500
C 	C 	0.24949 0.77019 0.98258 -0.04500
C 	C 	0.20002 0.78172 0.94624 0.04400
C 	C 	0.21826 0.80236 0.91472 -0.01300
C 	C 	0.36650 0.85280 0.84140 0.39200
C 	C 	0.35228 0.82458 0.87676 -0.21500
C 	C 	0.04680 0.81720 0.83400 0.10800
C 	C 	0.16546 0.81206 0.87872 -0.05100
C 	C 	0.09900 0.80090 0.87260 -0.02200
C 	C 	0.13184 0.77274 0.94128 -0.07300
C 	C 	0.08119 0.78069 0.90438 -0.02300
C 	C 	0.98532 0.80392 0.81984 -0.32600
C 	C 	0.30273 0.83733 0.88946 0.04300
C 	C 	0.84150 0.96100 0.78440 0.47500
C 	C 	0.63357 0.10807 0.91954 0.06200
C 	C 	0.62035 0.15595 0.95590 -0.16900
C 	C 	0.67021 0.20811 0.98742 0.18500
C 	C 	0.73309 0.21239 0.98258 -0.05200
C 	C 	0.74622 0.16452 0.94624 0.06500
C 	C 	0.69646 0.11236 0.91472 -0.03900
C 	C 	0.47490 0.98860 0.84140 0.34500
C 	C 	0.52448 0.05218 0.87676 -0.15700
C 	C 	0.78720 0.01680 0.83400 0.21600
C 	C 	0.71326 0.06666 0.87872 -0.01200
C 	C 	0.77360 0.07170 0.87260 -0.06400
C 	C 	0.80944 0.16854 0.94128 -0.09400
C 	C 	0.82319 0.12369 0.90438 0.01300
C 	C 	0.83452 0.01592 0.81984 -0.39400
C 	C 	0.58673 0.05213 0.88946 -0.00200
C 	C 	0.21100 0.69290 0.28440 0.49400
C 	C 	0.35807 0.03597 0.41954 0.10000
C 	C 	0.40595 0.08555 0.45590 -0.19700
C 	C 	0.45811 0.06721 0.48742 0.22400
C 	C 	0.46239 0.99949 0.48258 -0.09200
C 	C 	0.41452 0.95002 0.44624 0.09500
C 	C 	0.36236 0.96826 0.41472 -0.08600
C 	C 	0.23860 0.11650 0.34140 0.38100
C 	C 	0.30218 0.10228 0.37676 -0.17700
C 	C 	0.26680 0.79680 0.33400 0.20100
C 	C 	0.31666 0.91546 0.37872 0.01000
C 	C 	0.32170 0.84900 0.37260 -0.08100
C 	C 	0.41854 0.88184 0.44128 -0.11900
C 	C 	0.37369 0.83119 0.40438 0.02800
C 	C 	0.26592 0.73532 0.31984 -0.41700
C 	C 	0.30213 0.05273 0.38946 -0.00700
C 	C 	0.07340 0.59150 0.28440 0.48600
C 	C 	0.06147 0.38357 0.41954 0.03200
C 	C 	0.04995 0.37035 0.45590 -0.15100
C 	C 	0.02931 0.42021 0.48742 0.17000
C 	C 	0.02019 0.48309 0.48258 -0.03500
C 	C 	0.03172 0.49622 0.44624 0.04400
C 	C 	0.05236 0.44646 0.41472 -0.02000
C 	C 	0.10280 0.22490 0.34140 0.39000
C 	C 	0.07458 0.27448 0.37676 -0.21100
C 	C 	0.06720 0.53720 0.33400 0.17600
C 	C 	0.06206 0.46326 0.37872 -0.03400
C 	C 	0.05090 0.52360 0.37260 -0.04800
C 	C 	0.02274 0.55944 0.44128 -0.08100
C 	C 	0.03069 0.57319 0.40438 -0.00600
C 	C 	0.05392 0.58452 0.31984 -0.39800
C 	C 	0.08733 0.33673 0.38946 0.03900
O 	O 	0.84014 0.92514 0.67408 -0.38200
O 	O 	0.44973 0.89113 0.73586 -0.42700
O 	O 	0.36064 0.94304 0.73068 -0.44100
O 	O 	0.75724 0.85464 0.67028 -0.43600
O 	O 	0.59602 0.98342 0.47924 -0.18100
O 	O 	0.83394 0.74894 0.67408 -0.37800
O 	O 	0.28613 0.84473 0.73586 -0.43000
O 	O 	0.37004 0.78764 0.73068 -0.43900
O 	O 	0.91304 0.81564 0.67028 -0.43100
O 	O 	0.88322 0.49582 0.47924 -0.18100
O 	O 	0.17514 0.58394 0.17408 -0.38300
O 	O 	0.14113 0.03613 0.23586 -0.41600
O 	O 	0.19304 0.12004 0.23068 -0.42800
O 	O 	0.10464 0.66304 0.17028 -0.44100
O 	O 	0.23342 0.63322 0.97924 -0.18000
O 	O 	0.99894 0.59014 0.17408 -0.35400
O 	O 	0.09473 0.19973 0.23586 -0.42500
O 	O 	0.03764 0.11064 0.23068 -0.43600
O 	O 	0.06564 0.50724 0.17028 -0.42700
O 	O 	0.74582 0.34602 0.97924 -0.17900
O 	O 	0.41606 0.82486 0.82592 -0.38300
O 	O 	0.96387 0.85887 0.76414 -0.41600
O 	O 	0.87996 0.80696 0.76932 -0.42800
O 	O 	0.33696 0.89536 0.82972 -0.44100
O 	O 	0.36678 0.76658 0.02076 -0.18000
O 	O 	0.40986 0.00106 0.82592 -0.35400
O 	O 	0.80027 0.90527 0.76414 -0.42500
O 	O 	0.88936 0.96236 0.76932 -0.43600
O 	O 	0.49276 0.93436 0.82972 -0.42700
O 	O 	0.65398 0.25418 0.02076 -0.17900
O 	O 	0.25106 0.16606 0.32592 -0.37800
O 	O 	0.15527 0.71387 0.26414 -0.43000
O 	O 	0.21236 0.62996 0.26932 -0.43900
O 	O 	0.18436 0.08696 0.32972 -0.43100
O 	O 	0.50418 0.11678 0.52076 -0.18100
O 	O 	0.07486 0.15986 0.32592 -0.38200
O 	O 	0.10887 0.55027 0.26414 -0.42700
O 	O 	0.05696 0.63936 0.26932 -0.44100
O 	O 	0.14536 0.24276 0.32972 -0.43600
O 	O 	0.01658 0.40398 0.52076 -0.18100
