data_crystal

_cell_length_a 9.88790
_cell_length_b 15.98260
_cell_length_c 11.28870
_cell_angle_alpha 90.00000
_cell_angle_beta  111.17800
_cell_angle_gamma 90.00000

_symmetry_space_group_name_	'P 1'
_symmetry_space_group_name_H-M	'P 1'

loop_
_symmetry_equiv_pos_as_xyz
  x,y,z

loop_
_atom_site_label
_atom_site_type_symbol
_atom_site_fract_x
_atom_site_fract_y
_atom_site_fract_z
_atom_site_charge
C 	C 	0.30230 0.44990 0.43620 -0.12100
N 	N 	0.18800 0.42200 0.40010 -0.20800
K 	K 	0.97086 0.45298 0.15784 0.61700
Au	Au	0.14908 0.77734 0.36136 0.24300
C 	C 	0.24300 0.88910 0.41100 -0.10800
N 	N 	0.29900 0.95230 0.44380 -0.18300
C 	C 	0.05120 0.66600 0.31920 -0.15800
N 	N 	0.99270 0.60340 0.29590 -0.17200
Au	Au	0.91427 0.81727 0.08847 0.26200
C 	C 	0.02860 0.74970 0.00730 -0.16600
N 	N 	0.08750 0.70900 0.95880 -0.13200
C 	C 	0.79400 0.87980 0.16650 -0.10800
N 	N 	0.72170 0.91520 0.21110 -0.18200
C 	C 	0.19770 0.94990 0.06380 -0.08700
N 	N 	0.31200 0.92200 0.09990 -0.20000
K 	K 	0.52914 0.95298 0.34216 0.62600
Au	Au	0.35092 0.27734 0.13864 0.22700
C 	C 	0.25700 0.38910 0.08900 -0.13300
N 	N 	0.20100 0.45230 0.05620 -0.21300
C 	C 	0.44880 0.16600 0.18080 -0.13500
N 	N 	0.50730 0.10340 0.20410 -0.21600
Au	Au	0.58573 0.31727 0.41153 0.23700
C 	C 	0.47140 0.24970 0.49270 -0.10700
N 	N 	0.41250 0.20900 0.54120 -0.17300
C 	C 	0.70600 0.37980 0.33350 -0.12200
N 	N 	0.77830 0.41520 0.28890 -0.19300
C 	C 	0.69770 0.55010 0.56380 -0.11400
N 	N 	0.81200 0.57800 0.59990 -0.18600
K 	K 	0.02914 0.54702 0.84216 0.61400
Au	Au	0.85092 0.22266 0.63864 0.24800
C 	C 	0.75700 0.11090 0.58900 -0.11000
N 	N 	0.70100 0.04770 0.55620 -0.21100
C 	C 	0.94880 0.33400 0.68080 -0.06800
N 	N 	0.00730 0.39660 0.70410 -0.23400
Au	Au	0.08573 0.18273 0.91153 0.21900
C 	C 	0.97140 0.25030 0.99270 -0.02000
N 	N 	0.91250 0.29100 0.04120 -0.20900
C 	C 	0.20600 0.12020 0.83350 -0.12600
N 	N 	0.27830 0.08480 0.78890 -0.20300
C 	C 	0.80230 0.05010 0.93620 -0.08300
N 	N 	0.68800 0.07800 0.90010 -0.20400
K 	K 	0.47086 0.04702 0.65784 0.60800
Au	Au	0.64908 0.72266 0.86136 0.26400
C 	C 	0.74300 0.61090 0.91100 -0.08900
N 	N 	0.79900 0.54770 0.94380 -0.18300
C 	C 	0.55120 0.83400 0.81920 -0.09300
N 	N 	0.49270 0.89660 0.79590 -0.18300
Au	Au	0.41427 0.68273 0.58847 0.24000
C 	C 	0.52860 0.75030 0.50730 -0.09800
N 	N 	0.58750 0.79100 0.45880 -0.15900
C 	C 	0.29400 0.62020 0.66650 -0.12000
N 	N 	0.22170 0.58480 0.71110 -0.19400
Au	Au	0.50000 0.50000 0.50000 0.24300
Au	Au	-0.00000 0.00000 -0.00000 0.15300
K 	K 	0.00000 0.50000 0.50000 0.60800
K 	K 	0.50000 0.00000 -0.00000 0.59500
