data_crystal

_cell_length_a 12.75800
_cell_length_b 17.52030
_cell_length_c 21.81290
_cell_angle_alpha 90.00000
_cell_angle_beta  90.00000
_cell_angle_gamma 90.00000

_symmetry_space_group_name_	'P 1'
_symmetry_space_group_name_H-M	'P 1'

loop_
_symmetry_equiv_pos_as_xyz
  x,y,z

loop_
_atom_site_label
_atom_site_type_symbol
_atom_site_fract_x
_atom_site_fract_y
_atom_site_fract_z
_atom_site_charge
In	In	0.91913 0.98958 0.82681 2.00100
C 	C 	0.84000 0.76480 0.79370 0.00900
C 	C 	0.90620 0.71920 0.75920 -0.05800
H 	H 	0.96700 0.73900 0.74190 0.09300
C 	C 	0.87950 0.64320 0.75130 0.00700
C 	C 	0.78580 0.61420 0.77740 -0.12500
H 	H 	0.76870 0.56290 0.77340 0.10600
C 	C 	0.72070 0.66320 0.80870 0.14300
C 	C 	0.74880 0.73630 0.82010 -0.13200
H 	H 	0.70780 0.76710 0.84520 0.10600
C 	C 	0.53940 0.61320 0.79950 0.10600
C 	C 	0.52730 0.62600 0.73640 -0.12300
H 	H 	0.57870 0.64870 0.71230 0.09000
C 	C 	0.42890 0.60090 0.71250 0.03100
H 	H 	0.41580 0.60700 0.67080 0.05100
C 	C 	0.35260 0.56820 0.74870 -0.07300
C 	C 	0.36800 0.55830 0.81160 -0.01400
H 	H 	0.31540 0.53770 0.83610 0.06600
C 	C 	0.46570 0.58050 0.83740 -0.02000
C 	C 	0.50850 0.57830 0.89730 -0.01700
C 	C 	0.47410 0.55180 0.95360 -0.01600
H 	H 	0.40860 0.52890 0.95730 0.06600
C 	C 	0.53830 0.55960 0.00450 -0.07200
C 	C 	0.63740 0.59070 0.99970 0.04000
H 	H 	0.67980 0.59450 0.03430 0.04500
C 	C 	0.67340 0.61590 0.94430 -0.13400
H 	H 	0.73990 0.63720 0.94060 0.09300
C 	C 	0.60940 0.60910 0.89450 0.10700
C 	C 	0.87100 0.84630 0.80480 0.28600
C 	C 	0.95170 0.59040 0.71980 0.27300
C 	C 	0.25100 0.54450 0.72240 0.32200
C 	C 	0.49710 0.53570 0.06500 0.30600
N 	N 	0.62710 0.63180 0.83310 -0.16100
O 	O 	0.94810 0.87390 0.77650 -0.39500
O 	O 	0.82250 0.88540 0.84320 -0.44200
O 	O 	0.01760 0.61240 0.68230 -0.41400
O 	O 	0.94720 0.51880 0.73460 -0.41700
O 	O 	0.23790 0.55030 0.66550 -0.42500
O 	O 	0.18090 0.51520 0.75460 -0.44500
O 	O 	0.41500 0.49730 0.07040 -0.43200
O 	O 	0.54650 0.55530 0.11330 -0.43800
In	In	0.58087 0.01042 0.32681 2.00100
C 	C 	0.66000 0.23520 0.29370 0.00900
C 	C 	0.59380 0.28080 0.25920 -0.05800
H 	H 	0.53300 0.26100 0.24190 0.09200
C 	C 	0.62050 0.35680 0.25130 0.00700
C 	C 	0.71420 0.38580 0.27740 -0.12500
H 	H 	0.73130 0.43710 0.27340 0.10600
C 	C 	0.77930 0.33680 0.30870 0.14300
C 	C 	0.75120 0.26370 0.32010 -0.13200
H 	H 	0.79220 0.23290 0.34520 0.10600
C 	C 	0.96060 0.38680 0.29950 0.10900
C 	C 	0.97270 0.37400 0.23640 -0.12200
H 	H 	0.92130 0.35130 0.21230 0.08900
C 	C 	0.07110 0.39910 0.21250 0.02900
H 	H 	0.08420 0.39300 0.17080 0.05100
C 	C 	0.14740 0.43180 0.24870 -0.07400
C 	C 	0.13200 0.44170 0.31160 -0.01200
H 	H 	0.18460 0.46230 0.33610 0.06500
C 	C 	0.03430 0.41950 0.33740 -0.02600
C 	C 	0.99150 0.42170 0.39730 -0.00900
C 	C 	0.02590 0.44820 0.45360 -0.02500
H 	H 	0.09140 0.47110 0.45730 0.06900
C 	C 	0.96170 0.44040 0.50450 -0.06500
C 	C 	0.86260 0.40930 0.49970 0.03700
H 	H 	0.82020 0.40550 0.53430 0.04600
C 	C 	0.82660 0.38410 0.44430 -0.13000
H 	H 	0.76010 0.36280 0.44060 0.09200
C 	C 	0.89060 0.39090 0.39450 0.10400
C 	C 	0.62900 0.15370 0.30480 0.28600
C 	C 	0.54830 0.40960 0.21980 0.27300
C 	C 	0.24900 0.45550 0.22240 0.32200
C 	C 	0.00290 0.46430 0.56500 0.30100
N 	N 	0.87290 0.36820 0.33310 -0.16000
O 	O 	0.55190 0.12610 0.27650 -0.39500
O 	O 	0.67750 0.11460 0.34320 -0.44100
O 	O 	0.48240 0.38760 0.18230 -0.41500
O 	O 	0.55280 0.48120 0.23460 -0.41700
O 	O 	0.26210 0.44970 0.16550 -0.42600
O 	O 	0.31910 0.48480 0.25460 -0.44600
O 	O 	0.08500 0.50270 0.57040 -0.43100
O 	O 	0.95350 0.44470 0.61330 -0.43600
In	In	0.08087 0.48958 0.67319 2.00200
C 	C 	0.16000 0.26480 0.70630 0.01000
C 	C 	0.09380 0.21920 0.74080 -0.05900
H 	H 	0.03300 0.23900 0.75810 0.09300
C 	C 	0.12050 0.14320 0.74870 0.00800
C 	C 	0.21420 0.11420 0.72260 -0.12600
H 	H 	0.23130 0.06290 0.72660 0.10600
C 	C 	0.27930 0.16320 0.69130 0.14300
C 	C 	0.25120 0.23630 0.67990 -0.13300
H 	H 	0.29220 0.26710 0.65480 0.10600
C 	C 	0.46060 0.11320 0.70050 0.10600
C 	C 	0.47270 0.12600 0.76360 -0.12300
H 	H 	0.42130 0.14870 0.78770 0.09000
C 	C 	0.57110 0.10090 0.78750 0.03100
H 	H 	0.58420 0.10700 0.82920 0.05200
C 	C 	0.64740 0.06820 0.75130 -0.07200
C 	C 	0.63200 0.05830 0.68840 -0.01500
H 	H 	0.68460 0.03770 0.66390 0.06700
C 	C 	0.53430 0.08050 0.66260 -0.01900
C 	C 	0.49150 0.07830 0.60270 -0.01700
C 	C 	0.52590 0.05180 0.54640 -0.01500
H 	H 	0.59140 0.02890 0.54270 0.06600
C 	C 	0.46170 0.05960 0.49550 -0.07300
C 	C 	0.36260 0.09070 0.50030 0.04200
H 	H 	0.32020 0.09450 0.46570 0.04300
C 	C 	0.32660 0.11590 0.55570 -0.13600
H 	H 	0.26010 0.13720 0.55940 0.09300
C 	C 	0.39060 0.10910 0.60550 0.10800
C 	C 	0.12900 0.34630 0.69520 0.28600
C 	C 	0.04830 0.09040 0.78020 0.26800
C 	C 	0.74900 0.04450 0.77760 0.32200
C 	C 	0.50290 0.03570 0.43500 0.30400
N 	N 	0.37290 0.13180 0.66690 -0.16100
O 	O 	0.05190 0.37390 0.72350 -0.39400
O 	O 	0.17750 0.38540 0.65680 -0.44100
O 	O 	0.98240 0.11240 0.81770 -0.41000
O 	O 	0.05280 0.01880 0.76540 -0.41800
O 	O 	0.76210 0.05030 0.83450 -0.42400
O 	O 	0.81910 0.01520 0.74540 -0.44300
O 	O 	0.58500 0.99730 0.42960 -0.42900
O 	O 	0.45350 0.05530 0.38670 -0.43900
In	In	0.41913 0.51042 0.17319 2.00200
C 	C 	0.34000 0.73520 0.20630 0.01000
C 	C 	0.40620 0.78080 0.24080 -0.05800
H 	H 	0.46700 0.76100 0.25810 0.09300
C 	C 	0.37950 0.85680 0.24870 0.00800
C 	C 	0.28580 0.88580 0.22260 -0.12600
H 	H 	0.26870 0.93710 0.22660 0.10700
C 	C 	0.22070 0.83680 0.19130 0.14300
C 	C 	0.24880 0.76370 0.17990 -0.13300
H 	H 	0.20780 0.73290 0.15480 0.10600
C 	C 	0.03940 0.88680 0.20050 0.11000
C 	C 	0.02730 0.87400 0.26360 -0.12200
H 	H 	0.07870 0.85130 0.28770 0.09000
C 	C 	0.92890 0.89910 0.28750 0.02900
H 	H 	0.91580 0.89300 0.32920 0.05200
C 	C 	0.85260 0.93180 0.25130 -0.07300
C 	C 	0.86800 0.94170 0.18840 -0.01200
H 	H 	0.81540 0.96230 0.16390 0.06600
C 	C 	0.96570 0.91950 0.16260 -0.02600
C 	C 	0.00850 0.92170 0.10270 -0.01000
C 	C 	0.97410 0.94820 0.04640 -0.02100
H 	H 	0.90860 0.97110 0.04270 0.06900
C 	C 	0.03830 0.94040 0.99550 -0.06900
C 	C 	0.13740 0.90930 0.00030 0.04700
H 	H 	0.17980 0.90550 0.96570 0.04200
C 	C 	0.17340 0.88410 0.05570 -0.13600
H 	H 	0.23990 0.86280 0.05940 0.09500
C 	C 	0.10940 0.89090 0.10550 0.10700
C 	C 	0.37100 0.65370 0.19520 0.28600
C 	C 	0.45170 0.90960 0.28020 0.27300
C 	C 	0.75100 0.95550 0.27760 0.32200
C 	C 	0.99710 0.96430 0.93500 0.29300
N 	N 	0.12710 0.86820 0.16690 -0.16100
O 	O 	0.44810 0.62610 0.22350 -0.39400
O 	O 	0.32250 0.61460 0.15680 -0.44000
O 	O 	0.51760 0.88760 0.31770 -0.41400
O 	O 	0.44720 0.98120 0.26540 -0.41500
O 	O 	0.73790 0.94970 0.33450 -0.42400
O 	O 	0.68090 0.98480 0.24540 -0.44400
O 	O 	0.91500 0.00270 0.92960 -0.42400
O 	O 	0.04650 0.94470 0.88670 -0.43300
