data_crystal

_cell_length_a 13.16300
_cell_length_b 14.79300
_cell_length_c 13.21500
_cell_angle_alpha 90.00000
_cell_angle_beta  119.74000
_cell_angle_gamma 90.00000

_symmetry_space_group_name_	'P 1'
_symmetry_space_group_name_H-M	'P 1'

loop_
_symmetry_equiv_pos_as_xyz
  x,y,z

loop_
_atom_site_label
_atom_site_type_symbol
_atom_site_fract_x
_atom_site_fract_y
_atom_site_fract_z
_atom_site_charge
P 	P 	0.40670 0.17060 0.84080 0.86400
P 	P 	0.92880 0.16890 0.59290 0.85800
P 	P 	0.15360 0.17110 0.06460 0.82800
P 	P 	0.73390 0.33080 0.73870 0.88900
P 	P 	0.50480 0.32730 0.26660 0.85500
P 	P 	0.26220 0.32080 0.50240 0.84800
P 	P 	0.73870 0.00900 0.73910 0.69400
P 	P 	0.26280 0.01320 0.50210 0.73500
P 	P 	0.50390 0.01570 0.26200 0.69300
Al	Al	0.17610 0.16540 0.60100 2.39900
Al	Al	0.91350 0.16980 0.82070 2.40000
Al	Al	0.39720 0.17280 0.07810 2.40000
Al	Al	0.49360 0.30940 0.73190 2.40200
Al	Al	0.72790 0.30600 0.50240 2.40200
Al	Al	0.27430 0.29280 0.27460 2.39500
Al	Al	0.49740 0.03670 0.72790 2.39600
Al	Al	0.27380 0.04460 0.27170 2.39500
Al	Al	0.72830 0.03410 0.49850 2.39400
O 	O 	0.32790 0.16680 0.30750 -1.02600
H 	H 	0.40810 0.16640 0.35870 0.26100
O 	O 	0.46070 0.08540 0.82660 -0.80900
O 	O 	0.49900 0.16600 0.68200 -0.78700
H 	H 	0.50300 0.16560 0.61370 0.22800
O 	O 	0.27820 0.17900 0.75140 -0.78200
O 	O 	0.46330 0.25580 0.82840 -0.77300
O 	O 	0.67600 0.17300 0.51900 -0.75200
H 	H 	0.61830 0.17260 0.54040 0.23100
O 	O 	0.41330 0.17490 0.95920 -0.76800
O 	O 	0.03910 0.17100 0.58600 -0.76000
O 	O 	0.85850 0.08480 0.53050 -0.83100
O 	O 	0.86240 0.25470 0.53520 -0.73300
O 	O 	0.96050 0.17000 0.71930 -0.82400
O 	O 	0.16470 0.08220 0.13180 -0.78100
O 	O 	0.25090 0.17720 0.03120 -0.82900
O 	O 	0.16100 0.24930 0.13200 -0.72500
O 	O 	0.03630 0.17230 0.95510 -0.74200
O 	O 	0.68640 0.31470 0.60950 -0.80300
O 	O 	0.84020 0.26540 0.80800 -0.80900
O 	O 	0.77590 0.42380 0.77340 -0.66700
O 	O 	0.63830 0.30900 0.75730 -0.77900
O 	O 	0.61820 0.29270 0.36110 -0.78400
O 	O 	0.46220 0.27100 0.15120 -0.76000
O 	O 	0.42130 0.32760 0.31220 -0.80000
O 	O 	0.51400 0.41390 0.22700 -0.64900
O 	O 	0.18850 0.26460 0.53310 -0.75500
O 	O 	0.22620 0.29530 0.38130 -0.73200
O 	O 	0.22950 0.41800 0.50450 -0.70100
O 	O 	0.39430 0.31060 0.58290 -0.81600
O 	O 	0.83710 0.06880 0.80670 -0.79300
O 	O 	0.69460 0.01990 0.60910 -0.87000
O 	O 	0.64070 0.03450 0.76910 -0.82400
O 	O 	0.77740 0.91030 0.77470 -0.50700
O 	O 	0.38300 0.03310 0.58600 -0.89100
O 	O 	0.23910 0.04400 0.38100 -0.82100
O 	O 	0.19020 0.06890 0.54410 -0.83400
O 	O 	0.23200 0.91430 0.51000 -0.61100
O 	O 	0.62120 0.05360 0.35850 -0.80900
O 	O 	0.46290 0.07550 0.15650 -0.79900
O 	O 	0.41750 0.01970 0.30210 -0.87000
O 	O 	0.52250 0.91770 0.22920 -0.59000
P 	P 	0.59330 0.67060 0.15920 0.86300
P 	P 	0.07120 0.66890 0.40710 0.86200
P 	P 	0.84640 0.67110 0.93540 0.83300
P 	P 	0.26610 0.83080 0.26130 0.88600
P 	P 	0.49520 0.82730 0.73340 0.84800
P 	P 	0.73780 0.82080 0.49760 0.84300
P 	P 	0.26130 0.50900 0.26090 0.83200
P 	P 	0.73720 0.51320 0.49790 0.87600
P 	P 	0.49610 0.51570 0.73800 0.83100
Al	Al	0.82390 0.66540 0.39900 2.39900
Al	Al	0.08650 0.66980 0.17930 2.40100
Al	Al	0.60280 0.67280 0.92190 2.40100
Al	Al	0.50640 0.80940 0.26810 2.40200
Al	Al	0.27210 0.80600 0.49760 2.40200
Al	Al	0.72570 0.79280 0.72540 2.39500
Al	Al	0.50260 0.53670 0.27210 2.40100
Al	Al	0.72620 0.54460 0.72830 2.40100
Al	Al	0.27170 0.53410 0.50150 2.40100
O 	O 	0.67210 0.66680 0.69250 -1.02100
H 	H 	0.59190 0.66640 0.64130 0.26000
O 	O 	0.53930 0.58540 0.17340 -0.75600
O 	O 	0.50100 0.66600 0.31800 -0.78300
H 	H 	0.49700 0.66560 0.38630 0.22900
O 	O 	0.72180 0.67900 0.24860 -0.76300
O 	O 	0.53670 0.75580 0.17160 -0.75500
O 	O 	0.32400 0.67300 0.48100 -0.74900
H 	H 	0.38170 0.67260 0.45960 0.23200
O 	O 	0.58670 0.67490 0.04080 -0.74400
O 	O 	0.96090 0.67100 0.41400 -0.73800
O 	O 	0.14150 0.58480 0.46950 -0.77300
O 	O 	0.13760 0.75470 0.46480 -0.71300
O 	O 	0.03950 0.67000 0.28070 -0.80000
O 	O 	0.83530 0.58220 0.86820 -0.72200
O 	O 	0.74910 0.67720 0.96880 -0.80600
O 	O 	0.83900 0.74930 0.86800 -0.70700
O 	O 	0.96370 0.67230 0.04490 -0.72600
O 	O 	0.31360 0.81470 0.39050 -0.77400
O 	O 	0.15980 0.76540 0.19200 -0.78900
O 	O 	0.22410 0.92380 0.22660 -0.55500
O 	O 	0.36170 0.80900 0.24270 -0.74900
O 	O 	0.38180 0.79270 0.63890 -0.76200
O 	O 	0.53780 0.77100 0.84880 -0.73700
O 	O 	0.57870 0.82760 0.68780 -0.76200
O 	O 	0.48600 0.91390 0.77300 -0.54500
O 	O 	0.81150 0.76460 0.46690 -0.73600
O 	O 	0.77380 0.79530 0.61870 -0.70800
O 	O 	0.77050 0.91800 0.49550 -0.59400
O 	O 	0.60570 0.81060 0.41710 -0.79000
O 	O 	0.16290 0.56880 0.19330 -0.77200
O 	O 	0.30540 0.51990 0.39090 -0.82000
O 	O 	0.35930 0.53450 0.23090 -0.77700
O 	O 	0.22260 0.41030 0.22530 -0.64800
O 	O 	0.61700 0.53310 0.41400 -0.85800
O 	O 	0.76090 0.54400 0.61900 -0.78000
O 	O 	0.80980 0.56890 0.45590 -0.80900
O 	O 	0.76800 0.41430 0.49000 -0.75300
O 	O 	0.37880 0.55360 0.64150 -0.77100
O 	O 	0.53710 0.57550 0.84350 -0.77400
O 	O 	0.58250 0.51970 0.69790 -0.82000
O 	O 	0.47750 0.41770 0.77080 -0.73000
