data_crystal

_cell_length_a 9.45330
_cell_length_b 18.61400
_cell_length_c 19.97600
_cell_angle_alpha 68.27000
_cell_angle_beta  82.61000
_cell_angle_gamma 82.18000

_symmetry_space_group_name_	'P 1'
_symmetry_space_group_name_H-M	'P 1'

loop_
_symmetry_equiv_pos_as_xyz
  x,y,z

loop_
_atom_site_label
_atom_site_type_symbol
_atom_site_fract_x
_atom_site_fract_y
_atom_site_fract_z
_atom_site_charge
C 	C 	0.02650 0.31970 0.34880 0.41500
C 	C 	0.05660 0.26370 0.42370 -0.15500
C 	C 	0.03090 0.28600 0.48250 0.20100
H 	H 	0.99460 0.33810 0.47600 -0.01500
C 	C 	0.05660 0.23410 0.55150 -0.37200
C 	C 	0.04100 0.24700 0.61900 0.90500
O 	O 	0.04900 0.18500 0.68520 0.01600
O 	O 	0.01000 0.31880 0.61400 -0.57500
C 	C 	0.11060 0.18820 0.43210 -0.00300
H 	H 	0.13420 0.17310 0.39120 0.05500
C 	C 	0.10930 0.15890 0.56000 0.07000
H 	H 	0.13180 0.12320 0.60640 0.00900
C 	C 	0.12980 0.13480 0.50130 0.04100
C 	C 	0.22900 0.03400 0.45490 -0.25100
H 	H 	0.29920 0.06780 0.42070 0.10700
H 	H 	0.14470 0.03710 0.42900 0.11100
C 	C 	0.29500 0.95210 0.48390 0.40400
C 	C 	0.45900 0.93800 0.49300 -0.07200
H 	H 	0.52140 0.97770 0.48240 0.04700
C 	C 	0.23400 0.89300 0.49300 -0.82400
H 	H 	0.15200 0.89760 0.46830 0.30600
C 	C 	0.49800 0.86000 0.51800 -0.02100
H 	H 	0.59870 0.84540 0.51640 0.04100
C 	C 	0.41650 0.80220 0.54300 -0.24100
C 	C 	0.28400 0.81980 0.54000 0.78300
H 	H 	0.21860 0.78370 0.56880 -0.10400
C 	C 	0.25860 0.42080 0.17790 0.20100
C 	C 	0.37000 0.47300 0.16800 0.30400
C 	C 	0.50910 0.44350 0.18480 -0.42000
H 	H 	0.53270 0.38890 0.20080 0.20200
C 	C 	0.61600 0.49130 0.17900 0.61200
C 	C 	0.33900 0.55490 0.14260 -0.59800
H 	H 	0.24520 0.57710 0.12980 0.25600
C 	C 	0.76000 0.46110 0.19790 0.08600
O 	O 	0.03910 0.29260 0.29960 -0.46000
O 	O 	0.99350 0.38940 0.34210 -0.43200
O 	O 	0.18700 0.05870 0.51490 -0.15900
C 	C 	0.49250 0.71920 0.57680 0.10800
H 	H 	0.57830 0.71110 0.54530 0.03600
H 	H 	0.52260 0.71090 0.62500 0.07300
O 	O 	0.12290 0.44740 0.18630 -0.50300
O 	O 	0.28830 0.35490 0.17950 -0.27100
O 	O 	0.80650 0.39190 0.19840 -0.37000
O 	O 	0.83030 0.50300 0.21540 -0.38400
C 	C 	0.58070 0.57150 0.15280 -1.51000
C 	C 	0.44220 0.60230 0.13620 0.94800
O 	O 	0.65300 0.64000 0.13800 -1.91500
Zn	Zn	0.01452 0.35778 0.19738 1.23600
Zn	Zn	0.00925 0.50161 0.25834 1.23700
C 	C 	0.41270 0.80810 0.10910 -0.02900
C 	C 	0.21200 0.90700 0.08400 0.10600
H 	H 	0.13390 0.92380 0.11130 0.03200
C 	C 	0.46700 0.86900 0.01600 -0.15500
H 	H 	0.54620 0.85320 0.98880 0.09700
C 	C 	0.39800 0.93100 0.99200 0.09200
H 	H 	0.43930 0.96700 0.94850 -0.01100
C 	C 	0.26500 0.95620 0.01880 -0.10300
C 	C 	0.18300 0.03180 0.98780 0.07500
H 	H 	0.23270 0.06230 0.94130 0.01500
H 	H 	0.08750 0.02350 0.97780 0.01600
C 	C 	0.27000 0.83600 0.10800 0.02200
H 	H 	0.20460 0.79710 0.12760 0.01800
C 	C 	0.11420 0.15270 0.01090 0.17300
C 	C 	0.09680 0.18950 0.06310 -0.11400
H 	H 	0.11410 0.16030 0.11210 0.09200
C 	C 	0.09410 0.19280 0.94190 -0.11000
H 	H 	0.11290 0.16780 0.90750 0.09400
C 	C 	0.05450 0.26830 0.04130 -0.00100
C 	C 	0.04540 0.27150 0.91980 -0.01100
C 	C 	0.03370 0.31100 0.96940 -0.00500
H 	H 	0.01190 0.36570 0.95350 0.07800
C 	C 	0.01690 0.31390 0.84340 0.38300
C 	C 	0.03790 0.30790 0.09470 0.26400
C 	C 	0.49460 0.73290 0.11850 0.07200
H 	H 	0.57770 0.73940 0.08190 0.16300
H 	H 	0.53070 0.71030 0.16710 0.15600
O 	O 	0.16430 0.07400 0.03400 -0.24100
O 	O 	0.02650 0.27780 0.80100 -0.43200
O 	O 	0.98010 0.38660 0.82420 -0.43900
O 	O 	0.02690 0.38140 0.07380 -0.31100
O 	O 	0.03600 0.26650 0.16240 -0.37500
C 	C 	0.32410 0.53900 0.62530 -0.14700
H 	H 	0.22980 0.55970 0.61230 0.10700
C 	C 	0.59780 0.47750 0.66490 0.01800
C 	C 	0.35640 0.46080 0.65540 0.00300
C 	C 	0.49330 0.42880 0.67450 -0.04200
H 	H 	0.51480 0.37400 0.69390 0.08900
C 	C 	0.24280 0.40630 0.67100 0.31100
C 	C 	0.74730 0.44930 0.68640 0.33500
C 	C 	0.43300 0.58980 0.61330 0.23300
C 	C 	0.56680 0.55810 0.63640 -0.19600
O 	O 	0.82100 0.49790 0.69160 -0.44000
O 	O 	0.78810 0.37730 0.69970 -0.41600
O 	O 	0.11060 0.43560 0.67120 -0.50500
O 	O 	0.27330 0.33630 0.68440 -0.29100
Zn	Zn	0.99978 0.33967 0.70035 1.25600
H 	H 	0.63780 0.59110 0.63280 0.19000
C 	C 	0.20800 0.88330 0.13830 -0.26400
H 	H 	0.11250 0.88390 0.16000 0.11500
C 	C 	0.47300 0.87570 0.08500 0.07200
H 	H 	0.57090 0.87440 0.06650 0.02600
C 	C 	0.40900 0.94490 0.08480 -0.15200
H 	H 	0.46050 0.98960 0.06660 0.08700
C 	C 	0.27000 0.95040 0.11060 0.11100
C 	C 	0.18600 0.02770 0.10670 -0.04400
H 	H 	0.09220 0.01800 0.13530 0.04700
H 	H 	0.23930 0.05530 0.12770 0.05000
C 	C 	0.27570 0.81530 0.13660 0.02600
H 	H 	0.22460 0.77050 0.15560 0.03400
O 	O 	0.40040 0.68230 0.11010 -0.34100
C 	C 	0.02000 0.28500 0.60640 -0.09200
O 	O 	0.03000 0.23650 0.66980 -0.64100
O 	O 	0.01200 0.35520 0.58470 0.18000
C 	C 	0.40900 0.92600 0.45670 -0.21600
H 	H 	0.44890 0.96210 0.41340 0.09800
C 	C 	0.48000 0.85700 0.47900 0.15500
H 	H 	0.56700 0.84450 0.45390 -0.01800
O 	O 	0.38870 0.66690 0.58280 -0.24500
O 	O 	0.64100 0.65900 0.63000 -0.22700
C 	C 	0.21900 0.89570 0.55380 0.32600
H 	H 	0.12810 0.91370 0.57140 -0.06300
C 	C 	0.28000 0.81600 0.59400 -0.65800
H 	H 	0.24590 0.78090 0.64030 0.28200
H 	H 	0.65220 0.60530 0.14640 2.07800
C 	C 	0.97350 0.68030 0.65120 0.41600
C 	C 	0.94340 0.73630 0.57630 -0.15400
C 	C 	0.96910 0.71400 0.51750 0.20200
H 	H 	0.00540 0.66190 0.52400 -0.01400
C 	C 	0.94340 0.76590 0.44850 -0.37100
C 	C 	0.95900 0.75300 0.38100 0.90600
O 	O 	0.95100 0.81500 0.31480 0.01600
O 	O 	0.99000 0.68120 0.38600 -0.57500
C 	C 	0.88940 0.81180 0.56790 -0.00300
H 	H 	0.86580 0.82690 0.60880 0.05500
C 	C 	0.89070 0.84110 0.44000 0.07000
H 	H 	0.86820 0.87680 0.39360 0.00900
C 	C 	0.87020 0.86520 0.49870 0.04100
C 	C 	0.77100 0.96600 0.54510 -0.25100
H 	H 	0.70080 0.93220 0.57930 0.10700
H 	H 	0.85530 0.96290 0.57100 0.11100
C 	C 	0.70500 0.04790 0.51610 0.40400
C 	C 	0.54100 0.06200 0.50700 -0.07200
H 	H 	0.47860 0.02230 0.51760 0.04700
C 	C 	0.76600 0.10700 0.50700 -0.82400
H 	H 	0.84800 0.10240 0.53170 0.30600
C 	C 	0.50200 0.14000 0.48200 -0.02100
H 	H 	0.40130 0.15460 0.48360 0.04100
C 	C 	0.58350 0.19780 0.45700 -0.24100
C 	C 	0.71600 0.18020 0.46000 0.78300
H 	H 	0.78140 0.21630 0.43120 -0.10400
C 	C 	0.74140 0.57920 0.82210 0.20100
C 	C 	0.63000 0.52700 0.83200 0.30400
C 	C 	0.49090 0.55650 0.81520 -0.42000
H 	H 	0.46730 0.61110 0.79920 0.20200
C 	C 	0.38400 0.50870 0.82100 0.61200
C 	C 	0.66100 0.44510 0.85740 -0.59800
H 	H 	0.75480 0.42290 0.87020 0.25600
C 	C 	0.24000 0.53890 0.80210 0.08600
O 	O 	0.96090 0.70740 0.70040 -0.46000
O 	O 	0.00650 0.61060 0.65790 -0.43200
O 	O 	0.81300 0.94130 0.48510 -0.15900
C 	C 	0.50750 0.28080 0.42320 0.10800
H 	H 	0.42170 0.28890 0.45470 0.03600
H 	H 	0.47740 0.28910 0.37500 0.07300
O 	O 	0.87710 0.55260 0.81370 -0.50300
O 	O 	0.71170 0.64510 0.82050 -0.27100
O 	O 	0.19350 0.60810 0.80160 -0.37000
O 	O 	0.16970 0.49700 0.78460 -0.38400
C 	C 	0.41930 0.42850 0.84720 -1.51000
C 	C 	0.55780 0.39770 0.86380 0.94800
O 	O 	0.34700 0.36000 0.86200 -1.91500
Zn	Zn	0.98548 0.64222 0.80262 1.23600
Zn	Zn	0.99075 0.49839 0.74166 1.23700
C 	C 	0.58730 0.19190 0.89090 -0.02900
C 	C 	0.78800 0.09300 0.91600 0.10600
H 	H 	0.86610 0.07620 0.88870 0.03200
C 	C 	0.53300 0.13100 0.98400 -0.15500
H 	H 	0.45380 0.14680 0.01120 0.09700
C 	C 	0.60200 0.06900 0.00800 0.09200
H 	H 	0.56070 0.03300 0.05150 -0.01100
C 	C 	0.73500 0.04380 0.98120 -0.10300
C 	C 	0.81700 0.96820 0.01220 0.07500
H 	H 	0.76730 0.93770 0.05870 0.01500
H 	H 	0.91250 0.97650 0.02220 0.01600
C 	C 	0.73000 0.16400 0.89200 0.02200
H 	H 	0.79540 0.20290 0.87240 0.01800
C 	C 	0.88580 0.84730 0.98910 0.17300
C 	C 	0.90320 0.81050 0.93690 -0.11400
H 	H 	0.88590 0.83970 0.88790 0.09200
C 	C 	0.90590 0.80720 0.05810 -0.11000
H 	H 	0.88710 0.83220 0.09250 0.09400
C 	C 	0.94550 0.73170 0.95870 -0.00100
C 	C 	0.95460 0.72850 0.08020 -0.01100
C 	C 	0.96630 0.68900 0.03060 -0.00500
H 	H 	0.98810 0.63430 0.04650 0.07800
C 	C 	0.98310 0.68610 0.15660 0.38300
C 	C 	0.96210 0.69210 0.90530 0.26400
C 	C 	0.50540 0.26710 0.88150 0.07200
H 	H 	0.42230 0.26060 0.91810 0.16300
H 	H 	0.46930 0.28970 0.83290 0.15600
O 	O 	0.83570 0.92600 0.96600 -0.24100
O 	O 	0.97350 0.72220 0.19900 -0.43200
O 	O 	0.01990 0.61340 0.17580 -0.43900
O 	O 	0.97310 0.61860 0.92620 -0.31100
O 	O 	0.96400 0.73350 0.83760 -0.37500
C 	C 	0.67590 0.46100 0.37470 -0.14700
H 	H 	0.77020 0.44030 0.38770 0.10700
C 	C 	0.40220 0.52250 0.33510 0.01800
C 	C 	0.64360 0.53920 0.34460 0.00300
C 	C 	0.50670 0.57120 0.32550 -0.04200
H 	H 	0.48520 0.62600 0.30610 0.08900
C 	C 	0.75720 0.59370 0.32900 0.31100
C 	C 	0.25270 0.55070 0.31360 0.33500
C 	C 	0.56700 0.41020 0.38670 0.23300
C 	C 	0.43320 0.44190 0.36360 -0.19600
O 	O 	0.17900 0.50210 0.30840 -0.44000
O 	O 	0.21190 0.62270 0.30030 -0.41600
O 	O 	0.88940 0.56440 0.32880 -0.50500
O 	O 	0.72670 0.66370 0.31560 -0.29100
Zn	Zn	0.00022 0.66033 0.29965 1.25600
H 	H 	0.36220 0.40890 0.36720 0.19000
C 	C 	0.79200 0.11670 0.86170 -0.26400
H 	H 	0.88750 0.11610 0.84000 0.11500
C 	C 	0.52700 0.12430 0.91500 0.07200
H 	H 	0.42910 0.12560 0.93350 0.02600
C 	C 	0.59100 0.05510 0.91520 -0.15200
H 	H 	0.53950 0.01040 0.93340 0.08700
C 	C 	0.73000 0.04960 0.88940 0.11100
C 	C 	0.81400 0.97230 0.89330 -0.04400
H 	H 	0.90780 0.98200 0.86470 0.04700
H 	H 	0.76070 0.94470 0.87230 0.05000
C 	C 	0.72430 0.18470 0.86340 0.02600
H 	H 	0.77540 0.22950 0.84440 0.03400
O 	O 	0.59960 0.31770 0.88990 -0.34100
C 	C 	0.98000 0.71500 0.39360 -0.09200
O 	O 	0.97000 0.76350 0.33020 -0.64100
O 	O 	0.98800 0.64480 0.41530 0.18000
C 	C 	0.59100 0.07400 0.54330 -0.21600
H 	H 	0.55110 0.03790 0.58660 0.09800
C 	C 	0.52000 0.14300 0.52100 0.15500
H 	H 	0.43300 0.15550 0.54610 -0.01800
O 	O 	0.61130 0.33310 0.41720 -0.24500
O 	O 	0.35900 0.34100 0.37000 -0.22700
C 	C 	0.78100 0.10430 0.44620 0.32600
H 	H 	0.87190 0.08630 0.42860 -0.06300
C 	C 	0.72000 0.18400 0.40600 -0.65800
H 	H 	0.75410 0.21910 0.35970 0.28200
H 	H 	0.34780 0.39470 0.85360 2.07800
