data_crystal

_cell_length_a 10.38700
_cell_length_b 13.00900
_cell_length_c 22.10200
_cell_angle_alpha 90.00000
_cell_angle_beta  90.00000
_cell_angle_gamma 90.00000

_symmetry_space_group_name_	'P 1'
_symmetry_space_group_name_H-M	'P 1'

loop_
_symmetry_equiv_pos_as_xyz
  x,y,z

loop_
_atom_site_label
_atom_site_type_symbol
_atom_site_fract_x
_atom_site_fract_y
_atom_site_fract_z
_atom_site_charge
Ce	Ce	0.69691 0.45159 0.52079 2.14000
Ce	Ce	0.28583 0.53889 0.74509 2.11200
Ce	Ce	0.30309 0.04841 0.02079 2.13800
Ce	Ce	0.71417 0.96111 0.24509 2.11200
Ce	Ce	0.19691 0.54841 0.97921 2.13900
Ce	Ce	0.78583 0.46111 0.75491 2.11200
Ce	Ce	0.80309 0.95159 0.47921 2.13700
Ce	Ce	0.21417 0.03889 0.25491 2.11000
Ce	Ce	0.30309 0.54841 0.47921 2.14100
Ce	Ce	0.71417 0.46111 0.25491 2.11300
Ce	Ce	0.69691 0.95159 0.97921 2.13900
Ce	Ce	0.28583 0.03889 0.75491 2.11300
Ce	Ce	0.80309 0.45159 0.02079 2.14000
Ce	Ce	0.21417 0.53889 0.24509 2.11300
Ce	Ce	0.19691 0.04841 0.52079 2.13800
Ce	Ce	0.78583 0.96111 0.74509 2.11100
H 	H 	0.47390 0.32650 0.46700 0.17400
H 	H 	0.57500 0.17510 0.46250 0.13300
H 	H 	0.59880 0.22090 0.40380 0.17300
H 	H 	0.52610 0.17350 0.96700 0.17500
H 	H 	0.42500 0.32490 0.96250 0.13400
H 	H 	0.40120 0.27910 0.90380 0.17400
H 	H 	0.97390 0.67350 0.03300 0.16900
H 	H 	0.07500 0.82490 0.03750 0.13900
H 	H 	0.09880 0.77910 0.09620 0.17700
H 	H 	0.02610 0.82650 0.53300 0.17900
H 	H 	0.92500 0.67510 0.53750 0.13000
H 	H 	0.90120 0.72090 0.59620 0.17000
H 	H 	0.52610 0.67350 0.53300 0.17400
H 	H 	0.42500 0.82490 0.53750 0.13300
H 	H 	0.40120 0.77910 0.59620 0.17300
H 	H 	0.47390 0.82650 0.03300 0.17500
H 	H 	0.57500 0.67510 0.03750 0.13400
H 	H 	0.59880 0.72090 0.09620 0.17400
H 	H 	0.02610 0.32650 0.96700 0.16900
H 	H 	0.92500 0.17510 0.96250 0.13900
H 	H 	0.90120 0.22090 0.90380 0.17700
H 	H 	0.97390 0.17350 0.46700 0.17900
H 	H 	0.07500 0.32490 0.46250 0.13000
H 	H 	0.09880 0.27910 0.40380 0.17000
C 	C 	0.01480 0.47820 0.53181 0.23700
C 	C 	0.44640 0.48890 0.61366 0.27000
C 	C 	0.56120 0.48820 0.65763 0.22000
C 	C 	0.33540 0.28810 0.77826 0.23400
C 	C 	0.22750 0.28600 0.72970 0.22100
C 	C 	0.61830 0.22830 0.44320 -0.31400
C 	C 	0.76000 0.22610 0.45722 0.43300
C 	C 	0.98520 0.02180 0.03181 0.24500
C 	C 	0.55360 0.01110 0.11366 0.26800
C 	C 	0.43880 0.01180 0.15763 0.22100
C 	C 	0.66460 0.21190 0.27826 0.23500
C 	C 	0.77250 0.21400 0.22970 0.22100
C 	C 	0.38170 0.27170 0.94320 -0.31600
C 	C 	0.24000 0.27390 0.95722 0.43400
C 	C 	0.51480 0.52180 0.96819 0.23900
C 	C 	0.94640 0.51110 0.88634 0.27000
C 	C 	0.06120 0.51180 0.84237 0.21900
C 	C 	0.83540 0.71190 0.72174 0.23500
C 	C 	0.72750 0.71400 0.77030 0.22100
C 	C 	0.11830 0.77170 0.05680 -0.32200
C 	C 	0.26000 0.77390 0.04278 0.43600
C 	C 	0.48520 0.97820 0.46819 0.23900
C 	C 	0.05360 0.98890 0.38634 0.29100
C 	C 	0.93880 0.98820 0.34237 0.20800
C 	C 	0.16460 0.78810 0.22174 0.23500
C 	C 	0.27250 0.78600 0.27030 0.22200
C 	C 	0.88170 0.72830 0.55680 -0.30800
C 	C 	0.74000 0.72610 0.54278 0.43100
C 	C 	0.98520 0.52180 0.46819 0.23700
C 	C 	0.55360 0.51110 0.38634 0.27000
C 	C 	0.43880 0.51180 0.34237 0.22000
C 	C 	0.66460 0.71190 0.22174 0.23400
C 	C 	0.77250 0.71400 0.27030 0.22100
C 	C 	0.38170 0.77170 0.55680 -0.31400
C 	C 	0.24000 0.77390 0.54278 0.43300
C 	C 	0.01480 0.97820 0.96819 0.24500
C 	C 	0.44640 0.98890 0.88634 0.26800
C 	C 	0.56120 0.98820 0.84237 0.22100
C 	C 	0.33540 0.78810 0.72174 0.23500
C 	C 	0.22750 0.78600 0.77030 0.22100
C 	C 	0.61830 0.72830 0.05680 -0.31600
C 	C 	0.76000 0.72610 0.04278 0.43400
C 	C 	0.48520 0.47820 0.03181 0.23900
C 	C 	0.05360 0.48890 0.11366 0.27000
C 	C 	0.93880 0.48820 0.15763 0.21900
C 	C 	0.16460 0.28810 0.27826 0.23500
C 	C 	0.27250 0.28600 0.22970 0.22100
C 	C 	0.88170 0.22830 0.94320 -0.32200
C 	C 	0.74000 0.22610 0.95722 0.43600
C 	C 	0.51480 0.02180 0.53181 0.23900
C 	C 	0.94640 0.01110 0.61366 0.29100
C 	C 	0.06120 0.01180 0.65763 0.20800
C 	C 	0.83540 0.21190 0.77826 0.23500
C 	C 	0.72750 0.21400 0.72970 0.22200
C 	C 	0.11830 0.27170 0.44320 -0.30800
C 	C 	0.26000 0.27390 0.45722 0.43100
O 	O 	0.91790 0.45670 0.56338 -0.45300
O 	O 	0.87080 0.53260 0.45387 -0.41000
O 	O 	0.46960 0.47090 0.55786 -0.57100
O 	O 	0.33950 0.50880 0.63422 -0.45900
O 	O 	0.67270 0.47720 0.63619 -0.51700
O 	O 	0.53580 0.49790 0.71293 -0.50100
O 	O 	0.36940 0.37600 0.79544 -0.43700
O 	O 	0.37830 0.70420 0.70397 -0.43600
O 	O 	0.19170 0.37150 0.70905 -0.42900
O 	O 	0.18600 0.70020 0.78731 -0.44300
O 	O 	0.56900 0.32330 0.46279 -0.40000
O 	O 	0.81570 0.30960 0.46830 -0.48200
O 	O 	0.68270 0.64020 0.54400 -0.49800
O 	O 	0.08210 0.04330 0.06338 -0.46300
O 	O 	0.12920 0.96740 0.95387 -0.41000
O 	O 	0.53040 0.02910 0.05786 -0.57200
O 	O 	0.66050 0.99120 0.13422 -0.45700
O 	O 	0.32730 0.02280 0.13619 -0.52000
O 	O 	0.46420 0.00210 0.21293 -0.50200
O 	O 	0.63060 0.12400 0.29544 -0.43700
O 	O 	0.62170 0.79580 0.20397 -0.43500
O 	O 	0.80830 0.12850 0.20905 -0.42600
O 	O 	0.81400 0.79980 0.28731 -0.44400
O 	O 	0.43100 0.17670 0.96279 -0.39800
O 	O 	0.18430 0.19040 0.96830 -0.48400
O 	O 	0.31730 0.85980 0.04400 -0.49500
O 	O 	0.41790 0.54330 0.93662 -0.45400
O 	O 	0.37080 0.46740 0.04613 -0.40900
O 	O 	0.96960 0.52910 0.94214 -0.57100
O 	O 	0.83950 0.49120 0.86578 -0.45900
O 	O 	0.17270 0.52280 0.86381 -0.51700
O 	O 	0.03580 0.50210 0.78707 -0.50200
O 	O 	0.86940 0.62400 0.70456 -0.43800
O 	O 	0.87830 0.29580 0.79603 -0.43500
O 	O 	0.69170 0.62850 0.79095 -0.42800
O 	O 	0.68600 0.29980 0.71269 -0.44300
O 	O 	0.06900 0.67670 0.03721 -0.39300
O 	O 	0.31570 0.69040 0.03170 -0.48300
O 	O 	0.18270 0.35980 0.95600 -0.49900
O 	O 	0.58210 0.95670 0.43662 -0.45400
O 	O 	0.62920 0.03260 0.54613 -0.40700
O 	O 	0.03040 0.97090 0.44214 -0.57100
O 	O 	0.16050 0.00880 0.36578 -0.47100
O 	O 	0.82730 0.97720 0.36381 -0.51600
O 	O 	0.96420 0.99790 0.28707 -0.50100
O 	O 	0.13060 0.87600 0.20456 -0.43200
O 	O 	0.12170 0.20420 0.29603 -0.43700
O 	O 	0.30830 0.87150 0.29095 -0.42500
O 	O 	0.31400 0.20020 0.21269 -0.44300
O 	O 	0.93100 0.82330 0.53721 -0.40900
O 	O 	0.68430 0.80960 0.53170 -0.48300
O 	O 	0.81730 0.14020 0.45600 -0.49700
O 	O 	0.08210 0.54330 0.43662 -0.45300
O 	O 	0.12920 0.46740 0.54613 -0.41000
O 	O 	0.53040 0.52910 0.44214 -0.57100
O 	O 	0.66050 0.49120 0.36578 -0.45900
O 	O 	0.32730 0.52280 0.36381 -0.51700
O 	O 	0.46420 0.50210 0.28707 -0.50100
O 	O 	0.63060 0.62400 0.20456 -0.43700
O 	O 	0.62170 0.29580 0.29603 -0.43600
O 	O 	0.80830 0.62850 0.29095 -0.42900
O 	O 	0.81400 0.29980 0.21269 -0.44300
O 	O 	0.43100 0.67670 0.53721 -0.40000
O 	O 	0.18430 0.69040 0.53170 -0.48200
O 	O 	0.31730 0.35980 0.45600 -0.49800
O 	O 	0.91790 0.95670 0.93662 -0.46300
O 	O 	0.87080 0.03260 0.04613 -0.41000
O 	O 	0.46960 0.97090 0.94214 -0.57200
O 	O 	0.33950 0.00880 0.86578 -0.45700
O 	O 	0.67270 0.97720 0.86381 -0.52000
O 	O 	0.53580 0.99790 0.78707 -0.50200
O 	O 	0.36940 0.87600 0.70456 -0.43700
O 	O 	0.37830 0.20420 0.79603 -0.43500
O 	O 	0.19170 0.87150 0.79095 -0.42600
O 	O 	0.18600 0.20020 0.71269 -0.44400
O 	O 	0.56900 0.82330 0.03721 -0.39800
O 	O 	0.81570 0.80960 0.03170 -0.48400
O 	O 	0.68270 0.14020 0.95600 -0.49500
O 	O 	0.58210 0.45670 0.06338 -0.45400
O 	O 	0.62920 0.53260 0.95387 -0.40900
O 	O 	0.03040 0.47090 0.05786 -0.57100
O 	O 	0.16050 0.50880 0.13422 -0.45900
O 	O 	0.82730 0.47720 0.13619 -0.51700
O 	O 	0.96420 0.49790 0.21293 -0.50200
O 	O 	0.13060 0.37600 0.29544 -0.43800
O 	O 	0.12170 0.70420 0.20397 -0.43500
O 	O 	0.30830 0.37150 0.20905 -0.42800
O 	O 	0.31400 0.70020 0.28731 -0.44300
O 	O 	0.93100 0.32330 0.96279 -0.39300
O 	O 	0.68430 0.30960 0.96830 -0.48300
O 	O 	0.81730 0.64020 0.04400 -0.49900
O 	O 	0.41790 0.04330 0.56338 -0.45400
O 	O 	0.37080 0.96740 0.45387 -0.40700
O 	O 	0.96960 0.02910 0.55786 -0.57100
O 	O 	0.83950 0.99120 0.63422 -0.47100
O 	O 	0.17270 0.02280 0.63619 -0.51600
O 	O 	0.03580 0.00210 0.71293 -0.50100
O 	O 	0.86940 0.12400 0.79544 -0.43200
O 	O 	0.87830 0.79580 0.70397 -0.43700
O 	O 	0.69170 0.12850 0.70905 -0.42500
O 	O 	0.68600 0.79980 0.78731 -0.44300
O 	O 	0.06900 0.17670 0.46279 -0.40900
O 	O 	0.31570 0.19040 0.46830 -0.48300
O 	O 	0.18270 0.85980 0.54400 -0.49700
