data_crystal

_cell_length_a 10.16040
_cell_length_b 12.00850
_cell_length_c 7.18920
_cell_angle_alpha 90.00000
_cell_angle_beta  90.79700
_cell_angle_gamma 90.00000

_symmetry_space_group_name_	'P 1'
_symmetry_space_group_name_H-M	'P 1'

loop_
_symmetry_equiv_pos_as_xyz
  x,y,z

loop_
_atom_site_label
_atom_site_type_symbol
_atom_site_fract_x
_atom_site_fract_y
_atom_site_fract_z
_atom_site_charge
Ga	Ga	0.83394 0.13153 0.32426 2.06300
P 	P 	0.11782 0.19412 0.25133 0.55400
O 	O 	0.97480 0.23073 0.29010 -0.57300
O 	O 	0.19390 0.30170 0.20900 -0.73800
O 	O 	0.18290 0.13690 0.42180 -0.73600
O 	O 	0.87690 0.88440 0.91320 -0.46000
Ga	Ga	0.33394 0.63153 0.32426 2.05700
P 	P 	0.61782 0.69412 0.25133 0.65200
O 	O 	0.47480 0.73073 0.29010 -0.68800
O 	O 	0.69390 0.80170 0.20900 -0.72800
O 	O 	0.68290 0.63690 0.42180 -0.72700
O 	O 	0.37690 0.38440 0.91320 -0.46500
Ga	Ga	0.16606 0.13153 0.67574 2.06900
P 	P 	0.88218 0.19412 0.74867 0.74200
O 	O 	0.02520 0.23073 0.70990 -0.69700
O 	O 	0.80610 0.30170 0.79100 -0.54300
O 	O 	0.81710 0.13690 0.57820 -0.70900
O 	O 	0.12310 0.88440 0.08680 -0.77800
Ga	Ga	0.66606 0.63153 0.67574 2.07200
P 	P 	0.38218 0.69412 0.74867 0.64900
O 	O 	0.52520 0.73073 0.70990 -0.59700
O 	O 	0.30610 0.80170 0.79100 -0.56600
O 	O 	0.31710 0.63690 0.57820 -0.73500
O 	O 	0.62310 0.38440 0.08680 -0.73900
Ga	Ga	0.16606 0.86847 0.67574 2.06400
P 	P 	0.88218 0.80588 0.74867 0.73500
O 	O 	0.02520 0.76927 0.70990 -0.69500
O 	O 	0.80610 0.69830 0.79100 -0.54500
O 	O 	0.81710 0.86310 0.57820 -0.73400
O 	O 	0.12310 0.11560 0.08680 -0.76300
Ga	Ga	0.66606 0.36847 0.67574 2.07200
P 	P 	0.38218 0.30588 0.74867 0.64900
O 	O 	0.52520 0.26927 0.70990 -0.58800
O 	O 	0.30610 0.19830 0.79100 -0.55100
O 	O 	0.31710 0.36310 0.57820 -0.73500
O 	O 	0.62310 0.61560 0.08680 -0.73800
Ga	Ga	0.83394 0.86847 0.32426 2.05700
P 	P 	0.11782 0.80588 0.25133 0.56000
O 	O 	0.97480 0.76927 0.29010 -0.58300
O 	O 	0.19390 0.69830 0.20900 -0.73700
O 	O 	0.18290 0.86310 0.42180 -0.75400
O 	O 	0.87690 0.11560 0.91320 -0.42400
Ga	Ga	0.33394 0.36847 0.32426 2.05700
P 	P 	0.61782 0.30588 0.25133 0.65200
O 	O 	0.47480 0.26927 0.29010 -0.68100
O 	O 	0.69390 0.19830 0.20900 -0.71600
O 	O 	0.68290 0.36310 0.42180 -0.72600
O 	O 	0.37690 0.61560 0.91320 -0.46800
Ga	Ga	-0.00000 0.00000 -0.00000 1.99700
Ga	Ga	0.50000 0.50000 -0.00000 2.02000
O 	O 	0.89940 0.00000 0.23720 -1.21400
O 	O 	0.39940 0.50000 0.23720 -1.30200
O 	O 	0.10060 0.00000 0.76280 -1.15600
O 	O 	0.60060 0.50000 0.76280 -1.13200
