data_crystal

_cell_length_a 24.64930
_cell_length_b 24.00290
_cell_length_c 17.22670
_cell_angle_alpha 90.00000
_cell_angle_beta  91.31100
_cell_angle_gamma 90.00000

_symmetry_space_group_name_	'P 1'
_symmetry_space_group_name_H-M	'P 1'

loop_
_symmetry_equiv_pos_as_xyz
  x,y,z

loop_
_atom_site_label
_atom_site_type_symbol
_atom_site_fract_x
_atom_site_fract_y
_atom_site_fract_z
_atom_site_charge
Zn	Zn	0.35300 0.43412 0.18990 1.21700
O 	O 	0.35370 0.45410 0.08120 -0.50800
O 	O 	0.29370 0.38130 0.19970 -0.50200
O 	O 	0.25620 0.43210 0.29600 -0.57000
O 	O 	0.91840 0.10840 0.20710 -0.53800
O 	O 	0.96680 0.06380 0.29740 -0.51500
C 	C 	0.35390 0.45110 0.84300 -0.23900
H 	H 	0.36010 0.41740 0.81780 0.11800
C 	C 	0.34970 0.45340 0.92200 0.21600
H 	H 	0.34500 0.42070 0.95000 -0.02900
C 	C 	0.26200 0.39200 0.25200 0.40000
C 	C 	0.12680 0.31500 0.29400 -0.09900
H 	H 	0.09700 0.31940 0.32600 0.06400
C 	C 	0.17000 0.35220 0.29900 0.02100
H 	H 	0.16870 0.38190 0.33350 0.02900
C 	C 	0.21420 0.34530 0.25200 -0.09100
C 	C 	0.21570 0.30100 0.20000 0.02200
H 	H 	0.24550 0.29630 0.16840 0.03900
C 	C 	0.17300 0.26350 0.19550 -0.10000
H 	H 	0.17380 0.23380 0.16080 0.06600
C 	C 	0.12830 0.27040 0.24300 0.03400
C 	C 	0.00520 0.18760 0.19120 0.03400
H 	H 	0.97700 0.18990 0.15450 0.03100
C 	C 	0.00680 0.14390 0.24400 -0.10600
C 	C 	0.04890 0.14040 0.29890 0.02900
H 	H 	0.05000 0.11120 0.33430 0.03600
C 	C 	0.08950 0.18060 0.30070 -0.10900
H 	H 	0.11770 0.17830 0.33740 0.06900
C 	C 	0.08800 0.22430 0.24800 0.04300
C 	C 	0.04580 0.22780 0.19300 -0.11100
H 	H 	0.04480 0.25700 0.15760 0.07000
C 	C 	0.95600 0.10200 0.25200 0.43000
Zn	Zn	0.85300 0.93412 0.18990 1.22100
O 	O 	0.85370 0.95410 0.08120 -0.48200
O 	O 	0.79370 0.88130 0.19970 -0.49700
O 	O 	0.75620 0.93210 0.29600 -0.55300
O 	O 	0.41840 0.60840 0.20710 -0.53700
O 	O 	0.46680 0.56380 0.29740 -0.51100
C 	C 	0.85390 0.95110 0.84300 -0.22400
H 	H 	0.86010 0.91740 0.81780 0.11900
C 	C 	0.84970 0.95340 0.92200 0.27700
H 	H 	0.84500 0.92070 0.95000 -0.04500
C 	C 	0.76200 0.89200 0.25200 0.39800
C 	C 	0.62680 0.81500 0.29400 -0.09600
H 	H 	0.59700 0.81940 0.32600 0.06700
C 	C 	0.67000 0.85220 0.29900 0.01900
H 	H 	0.66870 0.88190 0.33350 0.03500
C 	C 	0.71420 0.84530 0.25200 -0.08600
C 	C 	0.71570 0.80100 0.20000 0.02000
H 	H 	0.74550 0.79630 0.16840 0.04100
C 	C 	0.67300 0.76350 0.19550 -0.09700
H 	H 	0.67380 0.73380 0.16080 0.06600
C 	C 	0.62830 0.77040 0.24300 0.03400
C 	C 	0.50520 0.68760 0.19120 0.03400
H 	H 	0.47700 0.68990 0.15450 0.03200
C 	C 	0.50680 0.64390 0.24400 -0.10500
C 	C 	0.54890 0.64040 0.29890 0.03000
H 	H 	0.55000 0.61120 0.33430 0.03600
C 	C 	0.58950 0.68060 0.30070 -0.11000
H 	H 	0.61770 0.67830 0.33740 0.07000
C 	C 	0.58800 0.72430 0.24800 0.04500
C 	C 	0.54580 0.72780 0.19300 -0.11100
H 	H 	0.54480 0.75700 0.15760 0.07300
C 	C 	0.45600 0.60200 0.25200 0.43000
Zn	Zn	0.35300 0.56588 0.18990 1.21600
O 	O 	0.35370 0.54590 0.08120 -0.50900
O 	O 	0.29370 0.61870 0.19970 -0.50200
O 	O 	0.25620 0.56790 0.29600 -0.57100
O 	O 	0.91840 0.89160 0.20710 -0.53000
O 	O 	0.96680 0.93620 0.29740 -0.49200
C 	C 	0.35390 0.54890 0.84300 -0.23900
H 	H 	0.36010 0.58260 0.81780 0.11700
C 	C 	0.34970 0.54660 0.92200 0.21400
H 	H 	0.34500 0.57930 0.95000 -0.02900
C 	C 	0.26200 0.60800 0.25200 0.40000
C 	C 	0.12680 0.68500 0.29400 -0.10100
H 	H 	0.09700 0.68060 0.32600 0.06500
C 	C 	0.17000 0.64780 0.29900 0.02200
H 	H 	0.16870 0.61810 0.33350 0.02900
C 	C 	0.21420 0.65470 0.25200 -0.09100
C 	C 	0.21570 0.69900 0.20000 0.02300
H 	H 	0.24550 0.70370 0.16840 0.04000
C 	C 	0.17300 0.73650 0.19550 -0.10000
H 	H 	0.17380 0.76620 0.16080 0.06800
C 	C 	0.12830 0.72960 0.24300 0.03600
C 	C 	0.00520 0.81240 0.19120 0.03000
H 	H 	0.97700 0.81010 0.15450 0.03400
C 	C 	0.00680 0.85610 0.24400 -0.09800
C 	C 	0.04890 0.85960 0.29890 0.02600
H 	H 	0.05000 0.88880 0.33430 0.04600
C 	C 	0.08950 0.81940 0.30070 -0.10400
H 	H 	0.11770 0.82170 0.33740 0.07200
C 	C 	0.08800 0.77570 0.24800 0.04100
C 	C 	0.04580 0.77220 0.19300 -0.10700
H 	H 	0.04480 0.74300 0.15760 0.06900
C 	C 	0.95600 0.89800 0.25200 0.42700
Zn	Zn	0.85300 0.06588 0.18990 1.21400
O 	O 	0.85370 0.04590 0.08120 -0.51000
O 	O 	0.79370 0.11870 0.19970 -0.50500
O 	O 	0.75620 0.06790 0.29600 -0.57600
O 	O 	0.41840 0.39160 0.20710 -0.53800
O 	O 	0.46680 0.43620 0.29740 -0.51200
C 	C 	0.85390 0.04890 0.84300 -0.25300
H 	H 	0.86010 0.08260 0.81780 0.12100
C 	C 	0.84970 0.04660 0.92200 0.24500
H 	H 	0.84500 0.07930 0.95000 -0.04100
C 	C 	0.76200 0.10800 0.25200 0.39900
C 	C 	0.62680 0.18500 0.29400 -0.10200
H 	H 	0.59700 0.18060 0.32600 0.06300
C 	C 	0.67000 0.14780 0.29900 0.02100
H 	H 	0.66870 0.11810 0.33350 0.02500
C 	C 	0.71420 0.15470 0.25200 -0.09400
C 	C 	0.71570 0.19900 0.20000 0.02200
H 	H 	0.74550 0.20370 0.16840 0.03900
C 	C 	0.67300 0.23650 0.19550 -0.10200
H 	H 	0.67380 0.26620 0.16080 0.06600
C 	C 	0.62830 0.22960 0.24300 0.03400
C 	C 	0.50520 0.31240 0.19120 0.03200
H 	H 	0.47700 0.31010 0.15450 0.03100
C 	C 	0.50680 0.35610 0.24400 -0.10400
C 	C 	0.54890 0.35960 0.29890 0.02800
H 	H 	0.55000 0.38880 0.33430 0.03600
C 	C 	0.58950 0.31940 0.30070 -0.10900
H 	H 	0.61770 0.32170 0.33740 0.06900
C 	C 	0.58800 0.27570 0.24800 0.04100
C 	C 	0.54580 0.27220 0.19300 -0.11000
H 	H 	0.54480 0.24300 0.15760 0.06800
C 	C 	0.45600 0.39800 0.25200 0.42900
Zn	Zn	0.41770 0.50000 0.31980 1.20700
Zn	Zn	0.28690 0.50000 0.31960 1.22400
O 	O 	0.35350 0.50000 0.25430 -0.95000
O 	O 	0.41020 0.50000 0.43270 -0.49700
O 	O 	0.31900 0.50000 0.42300 -0.53600
C 	C 	0.36360 0.50000 0.45800 0.39200
C 	C 	0.31400 0.50000 0.58300 0.00800
H 	H 	0.28250 0.50000 0.55130 0.03500
C 	C 	0.31000 0.50000 0.66400 -0.08300
H 	H 	0.27660 0.50000 0.68700 0.05800
C 	C 	0.35800 0.50000 0.70900 0.00300
C 	C 	0.40800 0.50000 0.67400 -0.07800
H 	H 	0.43950 0.50000 0.70580 0.07000
C 	C 	0.41300 0.50000 0.59400 0.01400
H 	H 	0.44680 0.50000 0.57080 0.04300
C 	C 	0.36500 0.50000 0.55100 -0.08800
C 	C 	0.34900 0.50000 0.80100 0.13600
C 	C 	0.35200 0.50000 0.95700 -0.29000
C 	C 	0.35000 0.50000 0.04400 0.43900
Zn	Zn	0.91770 0.00000 0.31980 1.20200
Zn	Zn	0.78690 0.00000 0.31960 1.21800
O 	O 	0.85350 0.00000 0.25430 -0.96500
O 	O 	0.91020 0.00000 0.43270 -0.50400
O 	O 	0.81900 0.00000 0.42300 -0.54400
C 	C 	0.86360 0.00000 0.45800 0.39200
C 	C 	0.81400 0.00000 0.58300 0.00800
H 	H 	0.78250 0.00000 0.55130 0.03000
C 	C 	0.81000 0.00000 0.66400 -0.08800
H 	H 	0.77660 -0.00000 0.68700 0.05400
C 	C 	0.85800 0.00000 0.70900 0.00300
C 	C 	0.90800 0.00000 0.67400 -0.08500
H 	H 	0.93950 0.00000 0.70580 0.06400
C 	C 	0.91300 0.00000 0.59400 0.01300
H 	H 	0.94680 -0.00000 0.57080 0.03900
C 	C 	0.86500 0.00000 0.55100 -0.09400
C 	C 	0.84900 0.00000 0.80100 0.11300
C 	C 	0.85200 0.00000 0.95700 -0.34900
C 	C 	0.85000 0.00000 0.04400 0.41900
Zn	Zn	0.64700 0.43412 0.81010 1.21600
O 	O 	0.64630 0.45410 0.91880 -0.50900
O 	O 	0.70630 0.38130 0.80030 -0.50300
O 	O 	0.74380 0.43210 0.70400 -0.57100
O 	O 	0.08160 0.10840 0.79290 -0.53900
O 	O 	0.03320 0.06380 0.70260 -0.51600
C 	C 	0.64610 0.45110 0.15700 -0.24000
H 	H 	0.63990 0.41740 0.18220 0.11700
C 	C 	0.65030 0.45340 0.07800 0.21500
H 	H 	0.65500 0.42070 0.05000 -0.03000
C 	C 	0.73800 0.39200 0.74800 0.39900
C 	C 	0.87320 0.31500 0.70600 -0.10000
H 	H 	0.90300 0.31940 0.67400 0.06400
C 	C 	0.83000 0.35220 0.70100 0.02100
H 	H 	0.83130 0.38190 0.66650 0.02900
C 	C 	0.78580 0.34530 0.74800 -0.09100
C 	C 	0.78430 0.30100 0.80000 0.02200
H 	H 	0.75450 0.29630 0.83160 0.03900
C 	C 	0.82700 0.26350 0.80450 -0.10000
H 	H 	0.82620 0.23380 0.83920 0.06600
C 	C 	0.87170 0.27040 0.75700 0.03400
C 	C 	0.99480 0.18760 0.80880 0.03400
H 	H 	0.02300 0.18990 0.84550 0.03100
C 	C 	0.99320 0.14390 0.75600 -0.10600
C 	C 	0.95110 0.14040 0.70110 0.02900
H 	H 	0.95000 0.11120 0.66570 0.03600
C 	C 	0.91050 0.18060 0.69930 -0.10900
H 	H 	0.88230 0.17830 0.66260 0.06900
C 	C 	0.91200 0.22430 0.75200 0.04300
C 	C 	0.95420 0.22780 0.80700 -0.11100
H 	H 	0.95520 0.25700 0.84240 0.07000
C 	C 	0.04400 0.10200 0.74800 0.43000
Zn	Zn	0.14700 0.93412 0.81010 1.22100
O 	O 	0.14630 0.95410 0.91880 -0.48200
O 	O 	0.20630 0.88130 0.80030 -0.49700
O 	O 	0.24380 0.93210 0.70400 -0.55300
O 	O 	0.58160 0.60840 0.79290 -0.53700
O 	O 	0.53320 0.56380 0.70260 -0.51100
C 	C 	0.14610 0.95110 0.15700 -0.22400
H 	H 	0.13990 0.91740 0.18220 0.11900
C 	C 	0.15030 0.95340 0.07800 0.27700
H 	H 	0.15500 0.92070 0.05000 -0.04500
C 	C 	0.23800 0.89200 0.74800 0.39800
C 	C 	0.37320 0.81500 0.70600 -0.09600
H 	H 	0.40300 0.81940 0.67400 0.06700
C 	C 	0.33000 0.85220 0.70100 0.01900
H 	H 	0.33130 0.88190 0.66650 0.03500
C 	C 	0.28580 0.84530 0.74800 -0.08600
C 	C 	0.28430 0.80100 0.80000 0.02000
H 	H 	0.25450 0.79630 0.83160 0.04100
C 	C 	0.32700 0.76350 0.80450 -0.09700
H 	H 	0.32620 0.73380 0.83920 0.06600
C 	C 	0.37170 0.77040 0.75700 0.03400
C 	C 	0.49480 0.68760 0.80880 0.03400
H 	H 	0.52300 0.68990 0.84550 0.03200
C 	C 	0.49320 0.64390 0.75600 -0.10500
C 	C 	0.45110 0.64040 0.70110 0.03000
H 	H 	0.45000 0.61120 0.66570 0.03600
C 	C 	0.41050 0.68060 0.69930 -0.11000
H 	H 	0.38230 0.67830 0.66260 0.07000
C 	C 	0.41200 0.72430 0.75200 0.04500
C 	C 	0.45420 0.72780 0.80700 -0.11100
H 	H 	0.45520 0.75700 0.84240 0.07300
C 	C 	0.54400 0.60200 0.74800 0.43000
Zn	Zn	0.64700 0.56588 0.81010 1.21600
O 	O 	0.64630 0.54590 0.91880 -0.50900
O 	O 	0.70630 0.61870 0.80030 -0.50200
O 	O 	0.74380 0.56790 0.70400 -0.57100
O 	O 	0.08160 0.89160 0.79290 -0.53000
O 	O 	0.03320 0.93620 0.70260 -0.49200
C 	C 	0.64610 0.54890 0.15700 -0.23900
H 	H 	0.63990 0.58260 0.18220 0.11700
C 	C 	0.65030 0.54660 0.07800 0.21400
H 	H 	0.65500 0.57930 0.05000 -0.02900
C 	C 	0.73800 0.60800 0.74800 0.40000
C 	C 	0.87320 0.68500 0.70600 -0.10100
H 	H 	0.90300 0.68060 0.67400 0.06500
C 	C 	0.83000 0.64780 0.70100 0.02200
H 	H 	0.83130 0.61810 0.66650 0.02900
C 	C 	0.78580 0.65470 0.74800 -0.09100
C 	C 	0.78430 0.69900 0.80000 0.02300
H 	H 	0.75450 0.70370 0.83160 0.04000
C 	C 	0.82700 0.73650 0.80450 -0.10000
H 	H 	0.82620 0.76620 0.83920 0.06800
C 	C 	0.87170 0.72960 0.75700 0.03600
C 	C 	0.99480 0.81240 0.80880 0.03000
H 	H 	0.02300 0.81010 0.84550 0.03400
C 	C 	0.99320 0.85610 0.75600 -0.09800
C 	C 	0.95110 0.85960 0.70110 0.02600
H 	H 	0.95000 0.88880 0.66570 0.04600
C 	C 	0.91050 0.81940 0.69930 -0.10400
H 	H 	0.88230 0.82170 0.66260 0.07200
C 	C 	0.91200 0.77570 0.75200 0.04100
C 	C 	0.95420 0.77220 0.80700 -0.10700
H 	H 	0.95520 0.74300 0.84240 0.06900
C 	C 	0.04400 0.89800 0.74800 0.42700
Zn	Zn	0.14700 0.06588 0.81010 1.21400
O 	O 	0.14630 0.04590 0.91880 -0.51000
O 	O 	0.20630 0.11870 0.80030 -0.50500
O 	O 	0.24380 0.06790 0.70400 -0.57600
O 	O 	0.58160 0.39160 0.79290 -0.53800
O 	O 	0.53320 0.43620 0.70260 -0.51200
C 	C 	0.14610 0.04890 0.15700 -0.25300
H 	H 	0.13990 0.08260 0.18220 0.12100
C 	C 	0.15030 0.04660 0.07800 0.24500
H 	H 	0.15500 0.07930 0.05000 -0.04100
C 	C 	0.23800 0.10800 0.74800 0.39900
C 	C 	0.37320 0.18500 0.70600 -0.10200
H 	H 	0.40300 0.18060 0.67400 0.06300
C 	C 	0.33000 0.14780 0.70100 0.02100
H 	H 	0.33130 0.11810 0.66650 0.02500
C 	C 	0.28580 0.15470 0.74800 -0.09400
C 	C 	0.28430 0.19900 0.80000 0.02200
H 	H 	0.25450 0.20370 0.83160 0.03900
C 	C 	0.32700 0.23650 0.80450 -0.10200
H 	H 	0.32620 0.26620 0.83920 0.06600
C 	C 	0.37170 0.22960 0.75700 0.03400
C 	C 	0.49480 0.31240 0.80880 0.03200
H 	H 	0.52300 0.31010 0.84550 0.03100
C 	C 	0.49320 0.35610 0.75600 -0.10400
C 	C 	0.45110 0.35960 0.70110 0.02800
H 	H 	0.45000 0.38880 0.66570 0.03600
C 	C 	0.41050 0.31940 0.69930 -0.10900
H 	H 	0.38230 0.32170 0.66260 0.06900
C 	C 	0.41200 0.27570 0.75200 0.04100
C 	C 	0.45420 0.27220 0.80700 -0.11000
H 	H 	0.45520 0.24300 0.84240 0.06800
C 	C 	0.54400 0.39800 0.74800 0.42900
Zn	Zn	0.58230 0.50000 0.68020 1.20700
Zn	Zn	0.71310 0.50000 0.68040 1.22400
O 	O 	0.64650 0.50000 0.74570 -0.95000
O 	O 	0.58980 0.50000 0.56730 -0.49700
O 	O 	0.68100 0.50000 0.57700 -0.53600
C 	C 	0.63640 0.50000 0.54200 0.39200
C 	C 	0.68600 0.50000 0.41700 0.00800
H 	H 	0.71750 0.50000 0.44870 0.03500
C 	C 	0.69000 0.50000 0.33600 -0.08300
H 	H 	0.72340 0.50000 0.31300 0.05800
C 	C 	0.64200 0.50000 0.29100 0.00300
C 	C 	0.59200 0.50000 0.32600 -0.07800
H 	H 	0.56050 0.50000 0.29420 0.07000
C 	C 	0.58700 0.50000 0.40600 0.01400
H 	H 	0.55320 0.50000 0.42920 0.04300
C 	C 	0.63500 0.50000 0.44900 -0.08800
C 	C 	0.65100 0.50000 0.19900 0.13600
C 	C 	0.64800 0.50000 0.04300 -0.29000
C 	C 	0.65000 0.50000 0.95600 0.43900
Zn	Zn	0.08230 0.00000 0.68020 1.20200
Zn	Zn	0.21310 0.00000 0.68040 1.21800
O 	O 	0.14650 0.00000 0.74570 -0.96500
O 	O 	0.08980 0.00000 0.56730 -0.50400
O 	O 	0.18100 -0.00000 0.57700 -0.54400
C 	C 	0.13640 0.00000 0.54200 0.39200
C 	C 	0.18600 0.00000 0.41700 0.00800
H 	H 	0.21750 0.00000 0.44870 0.03000
C 	C 	0.19000 0.00000 0.33600 -0.08800
H 	H 	0.22340 0.00000 0.31300 0.05400
C 	C 	0.14200 0.00000 0.29100 0.00300
C 	C 	0.09200 0.00000 0.32600 -0.08500
H 	H 	0.06050 0.00000 0.29420 0.06400
C 	C 	0.08700 0.00000 0.40600 0.01300
H 	H 	0.05320 0.00000 0.42920 0.03900
C 	C 	0.13500 0.00000 0.44900 -0.09400
C 	C 	0.15100 -0.00000 0.19900 0.11300
C 	C 	0.14800 0.00000 0.04300 -0.34900
C 	C 	0.15000 0.00000 0.95600 0.41900
