data_crystal

_cell_length_a 13.63190
_cell_length_b 16.22110
_cell_length_c 15.72010
_cell_angle_alpha 90.00000
_cell_angle_beta  96.60700
_cell_angle_gamma 90.00000

_symmetry_space_group_name_	'P 1'
_symmetry_space_group_name_H-M	'P 1'

loop_
_symmetry_equiv_pos_as_xyz
  x,y,z

loop_
_atom_site_label
_atom_site_type_symbol
_atom_site_fract_x
_atom_site_fract_y
_atom_site_fract_z
_atom_site_charge
Ag	Ag	0.01942 0.37808 0.91976 0.49200
S 	S 	0.09150 0.43818 0.08153 -0.19900
S 	S 	0.37324 0.12904 0.20654 -0.17800
N 	N 	0.18900 0.31443 0.97200 -0.15700
N 	N 	0.14180 0.59202 0.07290 -0.21300
N 	N 	0.34660 0.97220 0.18750 -0.21100
C 	C 	0.20930 0.29840 0.05530 0.04000
C 	C 	0.27150 0.23410 0.08330 0.03800
C 	C 	0.16310 0.34970 0.12040 -0.13300
H 	H 	0.21610 0.36890 0.16320 0.06100
H 	H 	0.12040 0.31360 0.14990 0.03900
C 	C 	0.18160 0.51650 0.07930 0.11200
C 	C 	0.28210 0.50340 0.08440 -0.16300
H 	H 	0.30820 0.44970 0.08670 0.08600
C 	C 	0.34330 0.57140 0.08610 0.07400
H 	H 	0.41220 0.56450 0.09120 -0.00400
C 	C 	0.30330 0.64880 0.08030 -0.15400
H 	H 	0.34420 0.69560 0.08140 0.06900
C 	C 	0.20390 0.65690 0.07310 0.07800
H 	H 	0.17680 0.71020 0.06790 -0.02600
C 	C 	0.29620 0.21710 0.17860 -0.13300
H 	H 	0.23410 0.20990 0.20360 0.06000
H 	H 	0.32900 0.26600 0.20530 0.05400
C 	C 	0.29680 0.90180 0.16790 0.07600
H 	H 	0.33170 0.85170 0.17220 -0.02200
C 	C 	0.19820 0.90020 0.14210 -0.15000
H 	H 	0.16530 0.84990 0.12960 0.06400
C 	C 	0.14760 0.97370 0.13470 0.06800
H 	H 	0.07920 0.97400 0.11740 -0.01100
C 	C 	0.19660 0.04680 0.15240 -0.15900
H 	H 	0.16310 0.09760 0.14660 0.07700
C 	C 	0.29590 0.04330 0.17890 0.10400
Ag	Ag	0.51942 0.87808 0.91976 0.50800
S 	S 	0.59150 0.93818 0.08153 -0.18100
S 	S 	0.87324 0.62904 0.20654 -0.15700
N 	N 	0.68900 0.81443 0.97200 -0.15600
N 	N 	0.64180 0.09202 0.07290 -0.20500
N 	N 	0.84660 0.47220 0.18750 -0.20300
C 	C 	0.70930 0.79840 0.05530 0.04200
C 	C 	0.77150 0.73410 0.08330 0.04300
C 	C 	0.66310 0.84970 0.12040 -0.14000
H 	H 	0.71610 0.86890 0.16320 0.06400
H 	H 	0.62040 0.81360 0.14990 0.04600
C 	C 	0.68160 0.01650 0.07930 0.10900
C 	C 	0.78210 0.00340 0.08440 -0.15800
H 	H 	0.80820 0.94970 0.08670 0.08800
C 	C 	0.84330 0.07140 0.08610 0.07200
H 	H 	0.91220 0.06450 0.09120 0.00700
C 	C 	0.80330 0.14880 0.08030 -0.15000
H 	H 	0.84420 0.19560 0.08140 0.07300
C 	C 	0.70390 0.15690 0.07310 0.07800
H 	H 	0.67680 0.21020 0.06790 -0.02100
C 	C 	0.79620 0.71710 0.17860 -0.14100
H 	H 	0.73410 0.70990 0.20360 0.06400
H 	H 	0.82900 0.76600 0.20530 0.06100
C 	C 	0.79680 0.40180 0.16790 0.07400
H 	H 	0.83170 0.35170 0.17220 -0.01600
C 	C 	0.69820 0.40020 0.14210 -0.14600
H 	H 	0.66530 0.34990 0.12960 0.06700
C 	C 	0.64760 0.47370 0.13470 0.06500
H 	H 	0.57920 0.47400 0.11740 -0.00100
C 	C 	0.69660 0.54680 0.15240 -0.15300
H 	H 	0.66310 0.59760 0.14660 0.07900
C 	C 	0.79590 0.54330 0.17890 0.10100
Ag	Ag	0.98058 0.37808 0.58024 0.52500
S 	S 	0.90850 0.43818 0.41847 -0.15400
S 	S 	0.62676 0.12904 0.29346 -0.17700
N 	N 	0.81100 0.31443 0.52800 -0.15600
N 	N 	0.85820 0.59202 0.42710 -0.19600
N 	N 	0.65340 0.97220 0.31250 -0.21100
C 	C 	0.79070 0.29840 0.44470 0.04700
C 	C 	0.72850 0.23410 0.41670 0.03800
C 	C 	0.83690 0.34970 0.37960 -0.15000
H 	H 	0.78390 0.36890 0.33680 0.06700
H 	H 	0.87960 0.31360 0.35010 0.05600
C 	C 	0.81840 0.51650 0.42070 0.10600
C 	C 	0.71790 0.50340 0.41560 -0.15700
H 	H 	0.69180 0.44970 0.41330 0.08300
C 	C 	0.65670 0.57140 0.41390 0.06900
H 	H 	0.58780 0.56450 0.40880 -0.00300
C 	C 	0.69670 0.64880 0.41970 -0.15000
H 	H 	0.65580 0.69560 0.41860 0.06700
C 	C 	0.79610 0.65690 0.42690 0.07700
H 	H 	0.82320 0.71020 0.43210 -0.01600
C 	C 	0.70380 0.21710 0.32140 -0.13500
H 	H 	0.76590 0.20990 0.29640 0.06400
H 	H 	0.67100 0.26600 0.29470 0.05500
C 	C 	0.70320 0.90180 0.33210 0.07500
H 	H 	0.66830 0.85170 0.32780 -0.02200
C 	C 	0.80180 0.90020 0.35790 -0.14600
H 	H 	0.83470 0.84990 0.37040 0.07100
C 	C 	0.85240 0.97370 0.36530 0.06700
H 	H 	0.92080 0.97400 0.38260 0.00900
C 	C 	0.80340 0.04680 0.34760 -0.15400
H 	H 	0.83690 0.09760 0.35340 0.08500
C 	C 	0.70410 0.04330 0.32110 0.10400
Ag	Ag	0.48058 0.87808 0.58024 0.50800
S 	S 	0.40850 0.93818 0.41847 -0.18200
S 	S 	0.12676 0.62904 0.29346 -0.19300
N 	N 	0.31100 0.81443 0.52800 -0.15600
N 	N 	0.35820 0.09202 0.42710 -0.20500
N 	N 	0.15340 0.47220 0.31250 -0.21500
C 	C 	0.29070 0.79840 0.44470 0.04200
C 	C 	0.22850 0.73410 0.41670 0.03400
C 	C 	0.33690 0.84970 0.37960 -0.14000
H 	H 	0.28390 0.86890 0.33680 0.06200
H 	H 	0.37960 0.81360 0.35010 0.04600
C 	C 	0.31840 0.01650 0.42070 0.10900
C 	C 	0.21790 0.00340 0.41560 -0.16300
H 	H 	0.19180 0.94970 0.41330 0.08200
C 	C 	0.15670 0.07140 0.41390 0.07200
H 	H 	0.08780 0.06450 0.40880 -0.01300
C 	C 	0.19670 0.14880 0.41970 -0.15400
H 	H 	0.15580 0.19560 0.41860 0.06300
C 	C 	0.29610 0.15690 0.42690 0.07800
H 	H 	0.32320 0.21020 0.43210 -0.02200
C 	C 	0.20380 0.71710 0.32140 -0.12800
H 	H 	0.26590 0.70990 0.29640 0.06000
H 	H 	0.17100 0.76600 0.29470 0.04900
C 	C 	0.20320 0.40180 0.33210 0.07600
H 	H 	0.16830 0.35170 0.32780 -0.02700
C 	C 	0.30180 0.40020 0.35790 -0.15000
H 	H 	0.33470 0.34990 0.37040 0.06800
C 	C 	0.35240 0.47370 0.36530 0.07000
H 	H 	0.42080 0.47400 0.38260 -0.00200
C 	C 	0.30340 0.54680 0.34760 -0.15900
H 	H 	0.33690 0.59760 0.35340 0.08200
C 	C 	0.20410 0.54330 0.32110 0.10700
Ag	Ag	0.98058 0.62192 0.08024 0.52400
S 	S 	0.90850 0.56182 0.91847 -0.15400
S 	S 	0.62676 0.87096 0.79346 -0.17700
N 	N 	0.81100 0.68557 0.02800 -0.15600
N 	N 	0.85820 0.40798 0.92710 -0.19600
N 	N 	0.65340 0.02780 0.81250 -0.21100
C 	C 	0.79070 0.70160 0.94470 0.04700
C 	C 	0.72850 0.76590 0.91670 0.03800
C 	C 	0.83690 0.65030 0.87960 -0.15000
H 	H 	0.78390 0.63110 0.83680 0.06700
H 	H 	0.87960 0.68640 0.85010 0.05600
C 	C 	0.81840 0.48350 0.92070 0.10600
C 	C 	0.71790 0.49660 0.91560 -0.15700
H 	H 	0.69180 0.55030 0.91330 0.08300
C 	C 	0.65670 0.42860 0.91390 0.06900
H 	H 	0.58780 0.43550 0.90880 -0.00300
C 	C 	0.69670 0.35120 0.91970 -0.15000
H 	H 	0.65580 0.30440 0.91860 0.06700
C 	C 	0.79610 0.34310 0.92690 0.07700
H 	H 	0.82320 0.28980 0.93210 -0.01600
C 	C 	0.70380 0.78290 0.82140 -0.13500
H 	H 	0.76590 0.79010 0.79640 0.06400
H 	H 	0.67100 0.73400 0.79470 0.05500
C 	C 	0.70320 0.09820 0.83210 0.07500
H 	H 	0.66830 0.14830 0.82780 -0.02200
C 	C 	0.80180 0.09980 0.85790 -0.14500
H 	H 	0.83470 0.15010 0.87040 0.07100
C 	C 	0.85240 0.02630 0.86530 0.06700
H 	H 	0.92080 0.02600 0.88260 0.00900
C 	C 	0.80340 0.95320 0.84760 -0.15400
H 	H 	0.83690 0.90240 0.85340 0.08500
C 	C 	0.70410 0.95670 0.82110 0.10400
Ag	Ag	0.48058 0.12192 0.08024 0.50800
S 	S 	0.40850 0.06182 0.91847 -0.18300
S 	S 	0.12676 0.37096 0.79346 -0.19400
N 	N 	0.31100 0.18557 0.02800 -0.15500
N 	N 	0.35820 0.90798 0.92710 -0.20600
N 	N 	0.15340 0.52780 0.81250 -0.21500
C 	C 	0.29070 0.20160 0.94470 0.03900
C 	C 	0.22850 0.26590 0.91670 0.03500
C 	C 	0.33690 0.15030 0.87960 -0.13900
H 	H 	0.28390 0.13110 0.83680 0.06200
H 	H 	0.37960 0.18640 0.85010 0.04600
C 	C 	0.31840 0.98350 0.92070 0.10900
C 	C 	0.21790 0.99660 0.91560 -0.16300
H 	H 	0.19180 0.05030 0.91330 0.08100
C 	C 	0.15670 0.92860 0.91390 0.07200
H 	H 	0.08780 0.93550 0.90880 -0.01400
C 	C 	0.19670 0.85120 0.91970 -0.15400
H 	H 	0.15580 0.80440 0.91860 0.06300
C 	C 	0.29610 0.84310 0.92690 0.07700
H 	H 	0.32320 0.78980 0.93210 -0.02200
C 	C 	0.20380 0.28290 0.82140 -0.12800
H 	H 	0.26590 0.29010 0.79640 0.06000
H 	H 	0.17100 0.23400 0.79470 0.04900
C 	C 	0.20320 0.59820 0.83210 0.07600
H 	H 	0.16830 0.64830 0.82780 -0.02700
C 	C 	0.30180 0.59980 0.85790 -0.15100
H 	H 	0.33470 0.65010 0.87040 0.06800
C 	C 	0.35240 0.52630 0.86530 0.06900
H 	H 	0.42080 0.52600 0.88260 -0.00200
C 	C 	0.30340 0.45320 0.84760 -0.16000
H 	H 	0.33690 0.40240 0.85340 0.08200
C 	C 	0.20410 0.45670 0.82110 0.10700
Ag	Ag	0.01942 0.62192 0.41976 0.49200
S 	S 	0.09150 0.56182 0.58153 -0.20200
S 	S 	0.37324 0.87096 0.70654 -0.17800
N 	N 	0.18900 0.68557 0.47200 -0.15600
N 	N 	0.14180 0.40798 0.57290 -0.21300
N 	N 	0.34660 0.02780 0.68750 -0.21200
C 	C 	0.20930 0.70160 0.55530 0.03700
C 	C 	0.27150 0.76590 0.58330 0.03800
C 	C 	0.16310 0.65030 0.62040 -0.13100
H 	H 	0.21610 0.63110 0.66320 0.06100
H 	H 	0.12040 0.68640 0.64990 0.03800
C 	C 	0.18160 0.48350 0.57930 0.11200
C 	C 	0.28210 0.49660 0.58440 -0.16300
H 	H 	0.30820 0.55030 0.58670 0.08600
C 	C 	0.34330 0.42860 0.58610 0.07400
H 	H 	0.41220 0.43550 0.59120 -0.00400
C 	C 	0.30330 0.35120 0.58030 -0.15400
H 	H 	0.34420 0.30440 0.58140 0.06800
C 	C 	0.20390 0.34310 0.57310 0.07800
H 	H 	0.17680 0.28980 0.56790 -0.02700
C 	C 	0.29620 0.78290 0.67860 -0.13300
H 	H 	0.23410 0.79010 0.70360 0.06000
H 	H 	0.32900 0.73400 0.70530 0.05500
C 	C 	0.29680 0.09820 0.66790 0.07600
H 	H 	0.33170 0.14830 0.67220 -0.02200
C 	C 	0.19820 0.09980 0.64210 -0.15100
H 	H 	0.16530 0.15010 0.62960 0.06400
C 	C 	0.14760 0.02630 0.63470 0.06700
H 	H 	0.07920 0.02600 0.61740 -0.01200
C 	C 	0.19660 0.95320 0.65240 -0.15900
H 	H 	0.16310 0.90240 0.64660 0.07700
C 	C 	0.29590 0.95670 0.67890 0.10400
Ag	Ag	0.51942 0.12192 0.41976 0.50800
S 	S 	0.59150 0.06182 0.58153 -0.18100
S 	S 	0.87324 0.37096 0.70654 -0.15600
N 	N 	0.68900 0.18557 0.47200 -0.15500
N 	N 	0.64180 0.90798 0.57290 -0.20500
N 	N 	0.84660 0.52780 0.68750 -0.20300
C 	C 	0.70930 0.20160 0.55530 0.04100
C 	C 	0.77150 0.26590 0.58330 0.04300
C 	C 	0.66310 0.15030 0.62040 -0.14000
H 	H 	0.71610 0.13110 0.66320 0.06400
H 	H 	0.62040 0.18640 0.64990 0.04600
C 	C 	0.68160 0.98350 0.57930 0.10900
C 	C 	0.78210 0.99660 0.58440 -0.15800
H 	H 	0.80820 0.05030 0.58670 0.08800
C 	C 	0.84330 0.92860 0.58610 0.07200
H 	H 	0.91220 0.93550 0.59120 0.00700
C 	C 	0.80330 0.85120 0.58030 -0.15000
H 	H 	0.84420 0.80440 0.58140 0.07300
C 	C 	0.70390 0.84310 0.57310 0.07800
H 	H 	0.67680 0.78980 0.56790 -0.02100
C 	C 	0.79620 0.28290 0.67860 -0.14200
H 	H 	0.73410 0.29010 0.70360 0.06400
H 	H 	0.82900 0.23400 0.70530 0.06100
C 	C 	0.79680 0.59820 0.66790 0.07400
H 	H 	0.83170 0.64830 0.67220 -0.01600
C 	C 	0.69820 0.59980 0.64210 -0.14500
H 	H 	0.66530 0.65010 0.62960 0.06700
C 	C 	0.64760 0.52630 0.63470 0.06500
H 	H 	0.57920 0.52600 0.61740 -0.00100
C 	C 	0.69660 0.45320 0.65240 -0.15300
H 	H 	0.66310 0.40240 0.64660 0.07900
C 	C 	0.79590 0.45670 0.67890 0.10100
Ag	Ag	0.50000 0.96675 0.25000 0.49900
Ag	Ag	0.00000 0.46675 0.25000 0.48100
Ag	Ag	0.50000 0.03325 0.75000 0.49900
Ag	Ag	0.00000 0.53325 0.75000 0.48000
