data_crystal

_cell_length_a 8.73880
_cell_length_b 11.74170
_cell_length_c 15.12380
_cell_angle_alpha 90.00000
_cell_angle_beta  92.60500
_cell_angle_gamma 90.00000

_symmetry_space_group_name_	'P 1'
_symmetry_space_group_name_H-M	'P 1'

loop_
_symmetry_equiv_pos_as_xyz
  x,y,z

loop_
_atom_site_label
_atom_site_type_symbol
_atom_site_fract_x
_atom_site_fract_y
_atom_site_fract_z
_atom_site_charge
Cu	Cu	0.31041 0.15542 0.75167 0.87700
Cu	Cu	0.50136 0.34154 0.86407 0.87200
Cu	Cu	0.68959 0.15542 0.74833 0.88300
Cu	Cu	0.49864 0.34154 0.63593 0.86900
Cu	Cu	0.68959 0.84458 0.24833 0.88500
Cu	Cu	0.49864 0.65846 0.13593 0.86800
Cu	Cu	0.31041 0.84458 0.25167 0.87900
Cu	Cu	0.50136 0.65846 0.36407 0.87000
H 	H 	0.32500 0.12900 0.55040 -0.04800
H 	H 	0.50030 0.09950 0.54580 -0.03900
H 	H 	0.48030 0.95600 0.65080 0.03900
H 	H 	0.34650 0.93490 0.57940 0.04300
H 	H 	0.48010 0.55290 0.85120 0.08100
H 	H 	0.38630 0.51850 0.92390 0.07900
H 	H 	0.13090 0.38530 0.74810 -0.05500
H 	H 	0.15920 0.36330 0.85030 -0.06300
H 	H 	0.19580 0.55610 0.83290 0.04600
H 	H 	0.29750 0.53690 0.75100 0.04600
H 	H 	0.17640 0.00210 0.66840 0.06000
H 	H 	0.28040 0.94800 0.73390 0.08900
H 	H 	0.67500 0.12900 0.94960 -0.02800
H 	H 	0.49970 0.09950 0.95420 -0.02800
H 	H 	0.51970 0.95600 0.84920 0.03800
H 	H 	0.65350 0.93490 0.92060 0.05400
H 	H 	0.51990 0.55290 0.64880 0.07600
H 	H 	0.61370 0.51850 0.57610 0.07200
H 	H 	0.86910 0.38530 0.75190 -0.02000
H 	H 	0.84080 0.36330 0.64970 -0.03900
H 	H 	0.80420 0.55610 0.66710 0.05900
H 	H 	0.70250 0.53690 0.74900 0.05300
H 	H 	0.82360 0.00210 0.83160 0.09100
H 	H 	0.71960 0.94800 0.76610 0.09800
H 	H 	0.67500 0.87100 0.44960 -0.04900
H 	H 	0.49970 0.90050 0.45420 -0.04900
H 	H 	0.51970 0.04400 0.34920 0.05000
H 	H 	0.65350 0.06510 0.42060 0.06300
H 	H 	0.51990 0.44710 0.14880 0.07100
H 	H 	0.61370 0.48150 0.07610 0.06300
H 	H 	0.86910 0.61470 0.25190 -0.02000
H 	H 	0.84080 0.63670 0.14970 -0.04100
H 	H 	0.80420 0.44390 0.16710 0.05500
H 	H 	0.70250 0.46310 0.24900 0.05000
H 	H 	0.82360 0.99790 0.33160 0.08800
H 	H 	0.71960 0.05200 0.26610 0.06900
H 	H 	0.32500 0.87100 0.05040 -0.06900
H 	H 	0.50030 0.90050 0.04580 -0.06000
H 	H 	0.48030 0.04400 0.15080 0.05300
H 	H 	0.34650 0.06510 0.07940 0.05400
H 	H 	0.48010 0.44710 0.35120 0.07600
H 	H 	0.38630 0.48150 0.42390 0.06900
H 	H 	0.13090 0.61470 0.24810 -0.05600
H 	H 	0.15920 0.63670 0.35030 -0.06700
H 	H 	0.19580 0.44390 0.33290 0.03900
H 	H 	0.29750 0.46310 0.25100 0.04400
H 	H 	0.17640 0.99790 0.16840 0.06000
H 	H 	0.28040 0.05200 0.23390 0.05700
Au	Au	-0.00000 0.00000 -0.00000 0.19900
Au	Au	0.00000 -0.00000 0.50000 0.21900
Au	Au	-0.00000 0.50000 -0.00000 0.21100
Au	Au	0.00000 0.50000 0.50000 0.23100
C 	C 	0.10680 0.07480 0.90230 -0.07700
C 	C 	0.81230 0.42450 0.95005 -0.01000
C 	C 	0.41500 0.10320 0.58460 0.10600
C 	C 	0.38600 0.98710 0.62450 -0.13200
C 	C 	0.20700 0.38740 0.79680 0.14400
C 	C 	0.27160 0.50650 0.80810 -0.16700
C 	C 	0.89320 0.07480 0.59770 -0.03500
C 	C 	0.18770 0.42450 0.54995 -0.08000
C 	C 	0.58500 0.10320 0.91540 0.09300
C 	C 	0.61400 0.98710 0.87550 -0.12300
C 	C 	0.79300 0.38740 0.70320 0.12300
C 	C 	0.72840 0.50650 0.69190 -0.16200
C 	C 	0.89320 0.92520 0.09770 -0.02700
C 	C 	0.18770 0.57550 0.04995 -0.08900
C 	C 	0.58500 0.89680 0.41540 0.15600
C 	C 	0.61400 0.01290 0.37550 -0.20100
C 	C 	0.79300 0.61260 0.20320 0.12300
C 	C 	0.72840 0.49350 0.19190 -0.16200
C 	C 	0.10680 0.92520 0.40230 -0.08100
C 	C 	0.81230 0.57550 0.45005 -0.03200
C 	C 	0.41500 0.89680 0.08460 0.17200
C 	C 	0.38600 0.01290 0.12450 -0.21600
C 	C 	0.20700 0.61260 0.29680 0.14400
C 	C 	0.27160 0.49350 0.30810 -0.16700
N 	N 	0.17160 0.11620 0.84594 -0.23800
N 	N 	0.69960 0.38500 0.92229 -0.23900
N 	N 	0.41090 0.50164 0.86826 -0.29600
N 	N 	0.27180 0.00400 0.69335 -0.31300
N 	N 	0.82840 0.11620 0.65406 -0.23400
N 	N 	0.30040 0.38500 0.57771 -0.23300
N 	N 	0.58910 0.50164 0.63174 -0.29400
N 	N 	0.72820 0.00400 0.80665 -0.31900
N 	N 	0.82840 0.88380 0.15406 -0.23400
N 	N 	0.30040 0.61500 0.07771 -0.23500
N 	N 	0.58910 0.49836 0.13174 -0.29200
N 	N 	0.72820 0.99600 0.30665 -0.28100
N 	N 	0.17160 0.88380 0.34594 -0.23600
N 	N 	0.69960 0.61500 0.42229 -0.23800
N 	N 	0.41090 0.49836 0.36826 -0.29400
N 	N 	0.27180 0.99600 0.19335 -0.27100
O 	O 	0.33220 0.31504 0.77894 -0.52300
O 	O 	0.44920 0.17901 0.65623 -0.52200
O 	O 	0.66780 0.31504 0.72106 -0.51500
O 	O 	0.55080 0.17901 0.84377 -0.51600
O 	O 	0.66780 0.68496 0.22106 -0.51500
O 	O 	0.55080 0.82099 0.34377 -0.52500
O 	O 	0.33220 0.68496 0.27894 -0.52300
O 	O 	0.44920 0.82099 0.15623 -0.53100
