data_crystal

_cell_length_a 21.91680
_cell_length_b 21.91680
_cell_length_c 21.91680
_cell_angle_alpha 60.00000
_cell_angle_beta  60.00000
_cell_angle_gamma 60.00000

_symmetry_space_group_name_	'P 1'
_symmetry_space_group_name_H-M	'P 1'

loop_
_symmetry_equiv_pos_as_xyz
  x,y,z

loop_
_atom_site_label
_atom_site_type_symbol
_atom_site_fract_x
_atom_site_fract_y
_atom_site_fract_z
_atom_site_charge
Zn	Zn	0.25000 0.25000 0.25000 1.19000
Zn	Zn	0.75000 0.75000 0.75000 1.18900
Co	Co	0.18152 0.45546 0.18151 1.14400
Co	Co	0.45547 0.18151 0.18151 1.14400
Co	Co	0.18152 0.18151 0.18151 1.14400
Co	Co	0.18152 0.18151 0.45546 1.14400
Co	Co	0.54453 0.81849 0.81849 1.14200
Co	Co	0.81848 0.54454 0.81849 1.14200
Co	Co	0.81848 0.81849 0.81849 1.14200
Co	Co	0.81848 0.81849 0.54454 1.14300
H 	H 	0.07873 0.52901 0.31353 0.11100
H 	H 	0.52901 0.07873 0.07873 0.11400
H 	H 	0.31353 0.07873 0.07873 0.11500
H 	H 	0.07873 0.31353 0.52901 0.11700
H 	H 	0.07873 0.31353 0.07873 0.11500
H 	H 	0.52901 0.07873 0.31353 0.11300
H 	H 	0.31353 0.07873 0.52901 0.11200
H 	H 	0.07873 0.52901 0.07873 0.11400
H 	H 	0.07873 0.07873 0.52901 0.11700
H 	H 	0.52901 0.31353 0.07873 0.11300
H 	H 	0.31353 0.52901 0.07873 0.11300
H 	H 	0.07873 0.07873 0.31353 0.11300
H 	H 	0.47099 0.92127 0.68647 0.10500
H 	H 	0.92127 0.47099 0.92127 0.09800
H 	H 	0.92127 0.68647 0.92127 0.09700
H 	H 	0.68647 0.92127 0.47099 0.10500
H 	H 	0.68647 0.92127 0.92127 0.09700
H 	H 	0.92127 0.47099 0.68647 0.11000
H 	H 	0.92127 0.68647 0.47099 0.10400
H 	H 	0.47099 0.92127 0.92127 0.09800
H 	H 	0.92127 0.92127 0.47099 0.10000
H 	H 	0.68647 0.47099 0.92127 0.10200
H 	H 	0.47099 0.68647 0.92127 0.10200
H 	H 	0.92127 0.92127 0.68647 0.10400
C 	C 	0.11733 0.41571 0.34963 0.07100
C 	C 	0.07850 0.48675 0.35625 -0.16100
C 	C 	0.03880 0.49496 0.42744 0.11500
C 	C 	0.41571 0.11733 0.11733 0.07500
C 	C 	0.48675 0.07850 0.07850 -0.16400
C 	C 	0.49496 0.03880 0.03880 0.12400
C 	C 	0.34963 0.11733 0.11733 0.07500
C 	C 	0.35625 0.07850 0.07850 -0.16400
C 	C 	0.42744 0.03880 0.03880 0.12500
C 	C 	0.11733 0.34963 0.41571 0.07800
C 	C 	0.07850 0.35625 0.48675 -0.17600
C 	C 	0.03880 0.42744 0.49496 0.14300
C 	C 	0.11733 0.34963 0.11733 0.07500
C 	C 	0.07850 0.35625 0.07850 -0.16400
C 	C 	0.03880 0.42744 0.03880 0.12500
C 	C 	0.41571 0.11733 0.34963 0.07400
C 	C 	0.48675 0.07850 0.35625 -0.16600
C 	C 	0.49496 0.03880 0.42744 0.12200
C 	C 	0.34963 0.11733 0.41571 0.07300
C 	C 	0.35625 0.07850 0.48675 -0.16600
C 	C 	0.42744 0.03880 0.49496 0.12200
C 	C 	0.11733 0.41571 0.11733 0.07500
C 	C 	0.07850 0.48675 0.07850 -0.16400
C 	C 	0.03880 0.49496 0.03880 0.12400
C 	C 	0.11733 0.11733 0.41571 0.07800
C 	C 	0.07850 0.07850 0.48675 -0.17500
C 	C 	0.03880 0.03880 0.49496 0.14300
C 	C 	0.41571 0.34963 0.11733 0.07400
C 	C 	0.48675 0.35625 0.07850 -0.16500
C 	C 	0.49496 0.42744 0.03880 0.12300
C 	C 	0.34963 0.41571 0.11733 0.07400
C 	C 	0.35625 0.48675 0.07850 -0.16500
C 	C 	0.42744 0.49496 0.03880 0.12300
C 	C 	0.11733 0.11733 0.34963 0.07200
C 	C 	0.07850 0.07850 0.35625 -0.16000
C 	C 	0.03880 0.03880 0.42744 0.11700
C 	C 	0.58429 0.88267 0.65037 0.06900
C 	C 	0.51325 0.92150 0.64375 -0.16300
C 	C 	0.50504 0.96120 0.57256 0.10600
C 	C 	0.88267 0.58429 0.88267 0.06600
C 	C 	0.92150 0.51325 0.92150 -0.15700
C 	C 	0.96120 0.50504 0.96120 0.08400
C 	C 	0.88267 0.65037 0.88267 0.06600
C 	C 	0.92150 0.64375 0.92150 -0.15600
C 	C 	0.96120 0.57256 0.96120 0.08300
C 	C 	0.65037 0.88267 0.58429 0.07000
C 	C 	0.64375 0.92150 0.51325 -0.16300
C 	C 	0.57256 0.96120 0.50504 0.10600
C 	C 	0.65037 0.88267 0.88267 0.06600
C 	C 	0.64375 0.92150 0.92150 -0.15600
C 	C 	0.57256 0.96120 0.96120 0.08300
C 	C 	0.88267 0.58429 0.65037 0.07400
C 	C 	0.92150 0.51325 0.64375 -0.17400
C 	C 	0.96120 0.50504 0.57256 0.12600
C 	C 	0.88267 0.65037 0.58429 0.06700
C 	C 	0.92150 0.64375 0.51325 -0.15800
C 	C 	0.96120 0.57256 0.50504 0.09800
C 	C 	0.58429 0.88267 0.88267 0.06600
C 	C 	0.51325 0.92150 0.92150 -0.15700
C 	C 	0.50504 0.96120 0.96120 0.08400
C 	C 	0.88267 0.88267 0.58429 0.06500
C 	C 	0.92150 0.92150 0.51325 -0.15400
C 	C 	0.96120 0.96120 0.50504 0.08500
C 	C 	0.65037 0.58429 0.88267 0.06800
C 	C 	0.64375 0.51325 0.92150 -0.16100
C 	C 	0.57256 0.50504 0.96120 0.09700
C 	C 	0.58429 0.65037 0.88267 0.06800
C 	C 	0.51325 0.64375 0.92150 -0.16100
C 	C 	0.50504 0.57256 0.96120 0.09700
C 	C 	0.88267 0.88267 0.65037 0.07100
C 	C 	0.92150 0.92150 0.64375 -0.16900
C 	C 	0.96120 0.96120 0.57256 0.11100
N 	N 	0.16010 0.39029 0.28951 -0.22400
N 	N 	0.39029 0.16010 0.16010 -0.22400
N 	N 	0.28951 0.16010 0.16010 -0.22400
N 	N 	0.16010 0.28951 0.39029 -0.22500
N 	N 	0.16010 0.28951 0.16010 -0.22400
N 	N 	0.39029 0.16010 0.28951 -0.22500
N 	N 	0.28951 0.16010 0.39029 -0.22500
N 	N 	0.16010 0.39029 0.16010 -0.22400
N 	N 	0.16010 0.16010 0.39029 -0.22500
N 	N 	0.39029 0.28951 0.16010 -0.22400
N 	N 	0.28951 0.39029 0.16010 -0.22400
N 	N 	0.16010 0.16010 0.28951 -0.22400
N 	N 	0.60971 0.83990 0.71049 -0.22600
N 	N 	0.83990 0.60971 0.83990 -0.22600
N 	N 	0.83990 0.71049 0.83990 -0.22600
N 	N 	0.71049 0.83990 0.60971 -0.22600
N 	N 	0.71049 0.83990 0.83990 -0.22600
N 	N 	0.83990 0.60971 0.71049 -0.22600
N 	N 	0.83990 0.71049 0.60971 -0.22500
N 	N 	0.60971 0.83990 0.83990 -0.22600
N 	N 	0.83990 0.83990 0.60971 -0.22500
N 	N 	0.71049 0.60971 0.83990 -0.22600
N 	N 	0.60971 0.71049 0.83990 -0.22600
N 	N 	0.83990 0.83990 0.71049 -0.22600
N 	N 	0.18540 0.31460 0.31460 -0.20200
N 	N 	0.31460 0.18540 0.18540 -0.20200
N 	N 	0.18540 0.31460 0.18540 -0.20200
N 	N 	0.31460 0.18540 0.31460 -0.20200
N 	N 	0.18540 0.18540 0.31460 -0.20200
N 	N 	0.31460 0.31460 0.18540 -0.20200
N 	N 	0.68540 0.81460 0.68540 -0.20300
N 	N 	0.81460 0.68540 0.81460 -0.20400
N 	N 	0.68540 0.81460 0.81460 -0.20400
N 	N 	0.81460 0.68540 0.68540 -0.20300
N 	N 	0.81460 0.81460 0.68540 -0.20400
N 	N 	0.68540 0.68540 0.81460 -0.20300
Cl	Cl	0.14412 0.56764 0.14412 -0.56000
Cl	Cl	0.56764 0.14412 0.14412 -0.56000
Cl	Cl	0.14412 0.14412 0.14412 -0.55400
Cl	Cl	0.14412 0.14412 0.56764 -0.56300
Cl	Cl	0.43236 0.85588 0.85588 -0.58000
Cl	Cl	0.85588 0.43236 0.85588 -0.58000
Cl	Cl	0.85588 0.85588 0.85588 -0.58700
Cl	Cl	0.85588 0.85588 0.43236 -0.57600
O 	O 	-0.00000 0.56681 0.43319 -0.18300
O 	O 	0.56681 0.00000 -0.00000 -0.16600
O 	O 	0.43319 0.00000 -0.00000 -0.16500
O 	O 	1.00000 0.43319 0.56681 -0.22100
O 	O 	-0.00000 0.43319 -0.00000 -0.16500
O 	O 	0.56681 0.00000 0.43319 -0.18700
O 	O 	0.43319 0.00000 0.56681 -0.18800
O 	O 	-0.00000 0.56681 -0.00000 -0.16600
O 	O 	-0.00000 1.00000 0.56681 -0.20600
O 	O 	0.56681 0.43319 -0.00000 -0.17900
O 	O 	0.43319 0.56681 -0.00000 -0.18000
O 	O 	-0.00000 0.00000 0.43319 -0.16900
