data_crystal

_cell_length_a 9.63600
_cell_length_b 9.88500
_cell_length_c 24.55500
_cell_angle_alpha 90.00000
_cell_angle_beta  111.47900
_cell_angle_gamma 90.00000

_symmetry_space_group_name_	'P 1'
_symmetry_space_group_name_H-M	'P 1'

loop_
_symmetry_equiv_pos_as_xyz
  x,y,z

loop_
_atom_site_label
_atom_site_type_symbol
_atom_site_fract_x
_atom_site_fract_y
_atom_site_fract_z
_atom_site_charge
Cu	Cu	0.20261 0.45791 0.75854 0.91500
C 	C 	0.40120 0.58630 0.87191 0.12400
H 	H 	0.44290 0.50330 0.88710 0.05500
C 	C 	0.26700 0.73140 0.81459 0.12500
H 	H 	0.19740 0.77480 0.78260 0.00800
C 	C 	0.36570 0.93720 0.87550 -0.00600
H 	H 	0.26710 0.97750 0.86030 0.08400
H 	H 	0.42500 0.97870 0.85560 0.08900
C 	C 	0.43550 0.96620 0.93937 -0.08500
C 	C 	0.57000 0.03310 0.96295 0.23600
C 	C 	0.63200 0.06590 0.02112 0.23800
C 	C 	0.26340 0.31060 0.66436 0.09900
H 	H 	0.31860 0.38380 0.65970 0.03400
C 	C 	0.13180 0.18760 0.69656 0.12400
H 	H 	0.07760 0.15320 0.71800 0.01800
C 	C 	0.10800 0.99030 0.62821 -0.00500
H 	H 	0.02900 0.95700 0.64020 0.08000
H 	H 	0.19150 0.92810 0.64280 0.08800
C 	C 	0.05310 0.99560 0.56186 -0.09400
C 	C 	0.91420 0.04470 0.52933 0.23900
C 	C 	0.13870 0.95090 0.53102 0.24200
C 	C 	0.03730 0.60170 0.67509 0.29200
C 	C 	0.95570 0.66130 0.61586 -0.02100
C 	C 	0.82090 0.72990 0.60318 -0.02400
C 	C 	0.73710 0.76300 0.54550 -0.01700
H 	H 	0.64580 0.80640 0.53670 0.09600
C 	C 	0.78790 0.73200 0.50079 -0.01800
H 	H 	0.73070 0.75390 0.46220 0.08200
C 	C 	0.92390 0.66870 0.51398 -0.01400
H 	H 	0.95970 0.65030 0.48440 0.09800
C 	C 	0.00670 0.63260 0.57070 -0.00800
H 	H 	0.09760 0.58870 0.57910 0.11000
C 	C 	0.76540 0.77990 0.64942 0.31200
F 	F 	0.64500 0.06570 0.92781 -0.39600
F 	F 	0.76610 0.12850 0.04140 -0.37500
F 	F 	0.82430 0.08810 0.55698 -0.37900
F 	F 	0.27630 0.90260 0.55987 -0.38500
N 	N 	0.29410 0.60020 0.81825 -0.22000
N 	N 	0.44090 0.69980 0.90042 -0.05400
N 	N 	0.35310 0.79210 0.86296 -0.07600
N 	N 	0.19750 0.30690 0.70484 -0.22000
N 	N 	0.24100 0.20080 0.63274 -0.07100
N 	N 	0.15460 0.12440 0.65319 -0.07900
O 	O 	0.96540 0.55900 0.70448 -0.30300
O 	O 	0.17910 0.58720 0.69234 -0.33900
O 	O 	0.86140 0.85030 0.68946 -0.36800
O 	O 	0.63580 0.76110 0.64429 -0.23400
Cu	Cu	0.79739 0.95791 0.74146 0.91500
C 	C 	0.59880 0.08630 0.62809 0.12500
H 	H 	0.55710 0.00330 0.61290 0.05500
C 	C 	0.73300 0.23140 0.68541 0.12500
H 	H 	0.80260 0.27480 0.71740 0.00800
C 	C 	0.63430 0.43720 0.62450 -0.00700
H 	H 	0.73290 0.47750 0.63970 0.08500
H 	H 	0.57500 0.47870 0.64440 0.09000
C 	C 	0.56450 0.46620 0.56063 -0.08300
C 	C 	0.43000 0.53310 0.53705 0.23400
C 	C 	0.36800 0.56590 0.47888 0.23900
C 	C 	0.73660 0.81060 0.83564 0.09900
H 	H 	0.68140 0.88380 0.84030 0.03300
C 	C 	0.86820 0.68760 0.80344 0.12400
H 	H 	0.92240 0.65320 0.78200 0.01700
C 	C 	0.89200 0.49030 0.87179 -0.00400
H 	H 	0.97100 0.45700 0.85980 0.08000
H 	H 	0.80850 0.42810 0.85720 0.08800
C 	C 	0.94690 0.49560 0.93814 -0.09500
C 	C 	0.08580 0.54470 0.97067 0.23900
C 	C 	0.86130 0.45090 0.96898 0.24200
C 	C 	0.96270 0.10170 0.82491 0.29200
C 	C 	0.04430 0.16130 0.88414 -0.02000
C 	C 	0.17910 0.22990 0.89682 -0.02400
C 	C 	0.26290 0.26300 0.95450 -0.01600
H 	H 	0.35420 0.30640 0.96330 0.09600
C 	C 	0.21210 0.23200 0.99921 -0.01900
H 	H 	0.26930 0.25390 0.03780 0.08100
C 	C 	0.07610 0.16870 0.98602 -0.01000
H 	H 	0.04030 0.15030 0.01560 0.09600
C 	C 	0.99330 0.13260 0.92930 -0.01000
H 	H 	0.90240 0.08870 0.92090 0.11100
C 	C 	0.23460 0.27990 0.85058 0.31200
F 	F 	0.35500 0.56570 0.57219 -0.39600
F 	F 	0.23390 0.62850 0.45860 -0.37500
F 	F 	0.17570 0.58810 0.94302 -0.38000
F 	F 	0.72370 0.40260 0.94013 -0.38500
N 	N 	0.70590 0.10020 0.68175 -0.21900
N 	N 	0.55910 0.19980 0.59958 -0.05400
N 	N 	0.64690 0.29210 0.63704 -0.07500
N 	N 	0.80250 0.80690 0.79516 -0.22000
N 	N 	0.75900 0.70080 0.86726 -0.07100
N 	N 	0.84540 0.62440 0.84681 -0.08000
O 	O 	0.03460 0.05900 0.79552 -0.30200
O 	O 	0.82090 0.08720 0.80766 -0.33800
O 	O 	0.13860 0.35030 0.81054 -0.36800
O 	O 	0.36420 0.26110 0.85571 -0.23300
Cu	Cu	0.79739 0.54209 0.24146 0.91600
C 	C 	0.59880 0.41370 0.12809 0.12500
H 	H 	0.55710 0.49670 0.11290 0.05500
C 	C 	0.73300 0.26860 0.18541 0.12500
H 	H 	0.80260 0.22520 0.21740 0.00800
C 	C 	0.63430 0.06280 0.12450 -0.00600
H 	H 	0.73290 0.02250 0.13970 0.08400
H 	H 	0.57500 0.02130 0.14440 0.08900
C 	C 	0.56450 0.03380 0.06063 -0.08500
C 	C 	0.43000 0.96690 0.03705 0.23600
C 	C 	0.36800 0.93410 0.97888 0.23800
C 	C 	0.73660 0.68940 0.33564 0.09900
H 	H 	0.68140 0.61620 0.34030 0.03400
C 	C 	0.86820 0.81240 0.30344 0.12400
H 	H 	0.92240 0.84680 0.28200 0.01800
C 	C 	0.89200 0.00970 0.37179 -0.00500
H 	H 	0.97100 0.04300 0.35980 0.08000
H 	H 	0.80850 0.07190 0.35720 0.08800
C 	C 	0.94690 0.00440 0.43814 -0.09400
C 	C 	0.08580 0.95530 0.47067 0.23900
C 	C 	0.86130 0.04910 0.46898 0.24200
C 	C 	0.96270 0.39830 0.32491 0.29200
C 	C 	0.04430 0.33870 0.38414 -0.02100
C 	C 	0.17910 0.27010 0.39682 -0.02400
C 	C 	0.26290 0.23700 0.45450 -0.01700
H 	H 	0.35420 0.19360 0.46330 0.09600
C 	C 	0.21210 0.26800 0.49921 -0.01800
H 	H 	0.26930 0.24610 0.53780 0.08200
C 	C 	0.07610 0.33130 0.48602 -0.01400
H 	H 	0.04030 0.34970 0.51560 0.09800
C 	C 	0.99330 0.36740 0.42930 -0.00800
H 	H 	0.90240 0.41130 0.42090 0.11000
C 	C 	0.23460 0.22010 0.35058 0.31200
F 	F 	0.35500 0.93430 0.07219 -0.39600
F 	F 	0.23390 0.87150 0.95860 -0.37500
F 	F 	0.17570 0.91190 0.44302 -0.37900
F 	F 	0.72370 0.09740 0.44013 -0.38500
N 	N 	0.70590 0.39980 0.18175 -0.22000
N 	N 	0.55910 0.30020 0.09958 -0.05400
N 	N 	0.64690 0.20790 0.13704 -0.07600
N 	N 	0.80250 0.69310 0.29516 -0.22000
N 	N 	0.75900 0.79920 0.36726 -0.07100
N 	N 	0.84540 0.87560 0.34681 -0.07900
O 	O 	0.03460 0.44100 0.29552 -0.30300
O 	O 	0.82090 0.41280 0.30766 -0.33900
O 	O 	0.13860 0.14970 0.31054 -0.36800
O 	O 	0.36420 0.23890 0.35571 -0.23400
Cu	Cu	0.20261 0.04209 0.25854 0.91500
C 	C 	0.40120 0.91370 0.37191 0.12500
H 	H 	0.44290 0.99670 0.38710 0.05500
C 	C 	0.26700 0.76860 0.31459 0.12500
H 	H 	0.19740 0.72520 0.28260 0.00800
C 	C 	0.36570 0.56280 0.37550 -0.00700
H 	H 	0.26710 0.52250 0.36030 0.08500
H 	H 	0.42500 0.52130 0.35560 0.09000
C 	C 	0.43550 0.53380 0.43937 -0.08300
C 	C 	0.57000 0.46690 0.46295 0.23400
C 	C 	0.63200 0.43410 0.52112 0.23900
C 	C 	0.26340 0.18940 0.16436 0.09900
H 	H 	0.31860 0.11620 0.15970 0.03300
C 	C 	0.13180 0.31240 0.19656 0.12400
H 	H 	0.07760 0.34680 0.21800 0.01700
C 	C 	0.10800 0.50970 0.12821 -0.00400
H 	H 	0.02900 0.54300 0.14020 0.08000
H 	H 	0.19150 0.57190 0.14280 0.08800
C 	C 	0.05310 0.50440 0.06186 -0.09500
C 	C 	0.91420 0.45530 0.02933 0.23900
C 	C 	0.13870 0.54910 0.03102 0.24200
C 	C 	0.03730 0.89830 0.17509 0.29200
C 	C 	0.95570 0.83870 0.11586 -0.02000
C 	C 	0.82090 0.77010 0.10318 -0.02400
C 	C 	0.73710 0.73700 0.04550 -0.01600
H 	H 	0.64580 0.69360 0.03670 0.09600
C 	C 	0.78790 0.76800 0.00079 -0.01900
H 	H 	0.73070 0.74610 0.96220 0.08100
C 	C 	0.92390 0.83130 0.01398 -0.01000
H 	H 	0.95970 0.84970 0.98440 0.09600
C 	C 	0.00670 0.86740 0.07070 -0.01000
H 	H 	0.09760 0.91130 0.07910 0.11100
C 	C 	0.76540 0.72010 0.14942 0.31200
F 	F 	0.64500 0.43430 0.42781 -0.39600
F 	F 	0.76610 0.37150 0.54140 -0.37500
F 	F 	0.82430 0.41190 0.05698 -0.38000
F 	F 	0.27630 0.59740 0.05987 -0.38500
N 	N 	0.29410 0.89980 0.31825 -0.21900
N 	N 	0.44090 0.80020 0.40042 -0.05400
N 	N 	0.35310 0.70790 0.36296 -0.07500
N 	N 	0.19750 0.19310 0.20484 -0.22000
N 	N 	0.24100 0.29920 0.13274 -0.07100
N 	N 	0.15460 0.37560 0.15319 -0.08000
O 	O 	0.96540 0.94100 0.20448 -0.30200
O 	O 	0.17910 0.91280 0.19234 -0.33800
O 	O 	0.86140 0.64970 0.18946 -0.36800
O 	O 	0.63580 0.73890 0.14429 -0.23300
