data_crystal

_cell_length_a 26.67000
_cell_length_b 26.67000
_cell_length_c 26.78500
_cell_angle_alpha 60.14190
_cell_angle_beta  60.14190
_cell_angle_gamma 90.00000

_symmetry_space_group_name_	'P 1'
_symmetry_space_group_name_H-M	'P 1'

loop_
_symmetry_equiv_pos_as_xyz
  x,y,z

loop_
_atom_site_label
_atom_site_type_symbol
_atom_site_fract_x
_atom_site_fract_y
_atom_site_fract_z
_atom_site_charge
Cu	Cu	0.96588 0.03819 0.60544 0.90200
Cu	Cu	0.97376 0.02885 0.70396 0.90700
Cu	Cu	0.42868 0.35637 0.60544 0.90200
Cu	Cu	0.32228 0.26719 0.70396 0.90800
Cu	Cu	0.03819 0.42868 0.60544 0.90300
Cu	Cu	0.02885 0.32228 0.70396 0.90800
Cu	Cu	0.35637 0.96588 0.60544 0.90400
Cu	Cu	0.26719 0.97376 0.70396 0.90900
Cu	Cu	0.03412 0.96181 0.39456 0.90300
Cu	Cu	0.02624 0.97115 0.29604 0.90500
Cu	Cu	0.57132 0.64363 0.39456 0.90300
Cu	Cu	0.67772 0.73281 0.29604 0.90700
Cu	Cu	0.96181 0.57132 0.39456 0.90400
Cu	Cu	0.97115 0.67772 0.29604 0.90800
Cu	Cu	0.64363 0.03412 0.39456 0.90200
Cu	Cu	0.73281 0.02624 0.29604 0.90500
Cu	Cu	0.39183 0.93347 1.00000 0.91700
Cu	Cu	0.70543 0.04998 -0.00000 0.89100
Cu	Cu	0.60817 0.06653 1.00000 0.91600
Cu	Cu	0.29457 0.95002 -0.00000 0.89200
Cu	Cu	0.93347 0.60817 1.00000 0.91600
Cu	Cu	0.04998 0.29457 -0.00000 0.89100
Cu	Cu	0.06653 0.39183 -0.00000 0.89000
Cu	Cu	0.95002 0.70543 -0.00000 0.89300
H 	H 	0.66940 0.06700 0.16420 0.06000
H 	H 	0.51280 0.07730 0.17660 0.08500
H 	H 	0.52730 0.06340 0.32620 0.07300
H 	H 	0.20110 0.96670 0.17260 0.06300
H 	H 	0.36780 0.98910 0.13600 0.07100
H 	H 	0.23020 0.99740 0.28880 0.08900
H 	H 	0.29440 0.01690 0.46920 0.09100
H 	H 	0.14570 0.05050 0.47080 0.07900
H 	H 	0.15710 0.02140 0.62760 0.07000
H 	H 	0.44210 0.07570 0.32840 0.13400
H 	H 	0.38890 0.01230 0.19460 0.13200
H 	H 	0.21870 0.04620 0.38460 0.13400
H 	H 	0.16640 0.76880 0.16420 0.06000
H 	H 	0.31060 0.74610 0.17660 0.08500
H 	H 	0.14650 0.61040 0.32620 0.07300
H 	H 	0.62630 0.86070 0.17260 0.06300
H 	H 	0.49620 0.87490 0.13600 0.07000
H 	H 	0.48100 0.71380 0.28880 0.08800
H 	H 	0.23640 0.51390 0.46920 0.09100
H 	H 	0.38350 0.47870 0.47080 0.07900
H 	H 	0.21530 0.35100 0.62760 0.07000
H 	H 	0.22950 0.59590 0.32840 0.13400
H 	H 	0.41650 0.79310 0.19460 0.13300
H 	H 	0.39670 0.56920 0.38460 0.13500
H 	H 	0.06700 0.16640 0.16420 0.06000
H 	H 	0.07730 0.31060 0.17660 0.08500
H 	H 	0.06340 0.14650 0.32620 0.07300
H 	H 	0.96670 0.62630 0.17260 0.06400
H 	H 	0.98910 0.49620 0.13600 0.07200
H 	H 	0.99740 0.48100 0.28880 0.09000
H 	H 	0.01690 0.23640 0.46920 0.09100
H 	H 	0.05050 0.38350 0.47080 0.07900
H 	H 	0.02140 0.21530 0.62760 0.07000
H 	H 	0.07570 0.22950 0.32840 0.13400
H 	H 	0.01230 0.41650 0.19460 0.13200
H 	H 	0.04620 0.39670 0.38460 0.13400
H 	H 	0.76880 0.66940 0.16420 0.06100
H 	H 	0.74610 0.51280 0.17660 0.08500
H 	H 	0.61040 0.52730 0.32620 0.07300
H 	H 	0.86070 0.20110 0.17260 0.06300
H 	H 	0.87490 0.36780 0.13600 0.07000
H 	H 	0.71380 0.23020 0.28880 0.08800
H 	H 	0.51390 0.29440 0.46920 0.09100
H 	H 	0.47870 0.14570 0.47080 0.07900
H 	H 	0.35100 0.15710 0.62760 0.07000
H 	H 	0.59590 0.44210 0.32840 0.13400
H 	H 	0.79310 0.38890 0.19460 0.13300
H 	H 	0.56920 0.21870 0.38460 0.13500
H 	H 	0.33060 0.93300 0.83580 0.06700
H 	H 	0.48720 0.92270 0.82340 0.09000
H 	H 	0.47270 0.93660 0.67380 0.07500
H 	H 	0.79890 0.03330 0.82740 0.06700
H 	H 	0.63220 0.01090 0.86400 0.07500
H 	H 	0.76980 0.00260 0.71120 0.08800
H 	H 	0.70560 0.98310 0.53080 0.09200
H 	H 	0.85430 0.94950 0.52920 0.08000
H 	H 	0.84290 0.97860 0.37240 0.06900
H 	H 	0.55790 0.92430 0.67160 0.13600
H 	H 	0.61110 0.98770 0.80540 0.13700
H 	H 	0.78130 0.95380 0.61540 0.13700
H 	H 	0.83360 0.23120 0.83580 0.06700
H 	H 	0.68940 0.25390 0.82340 0.09000
H 	H 	0.85350 0.38960 0.67380 0.07500
H 	H 	0.37370 0.13930 0.82740 0.06700
H 	H 	0.50380 0.12510 0.86400 0.07600
H 	H 	0.51900 0.28620 0.71120 0.09000
H 	H 	0.76360 0.48610 0.53080 0.09100
H 	H 	0.61650 0.52130 0.52920 0.08000
H 	H 	0.78470 0.64900 0.37240 0.06900
H 	H 	0.77050 0.40410 0.67160 0.13600
H 	H 	0.58350 0.20690 0.80540 0.13600
H 	H 	0.60330 0.43080 0.61540 0.13600
H 	H 	0.93300 0.83360 0.83580 0.06800
H 	H 	0.92270 0.68940 0.82340 0.09000
H 	H 	0.93660 0.85350 0.67380 0.07600
H 	H 	0.03330 0.37370 0.82740 0.06700
H 	H 	0.01090 0.50380 0.86400 0.07600
H 	H 	0.00260 0.51900 0.71120 0.08900
H 	H 	0.98310 0.76360 0.53080 0.09200
H 	H 	0.94950 0.61650 0.52920 0.08000
H 	H 	0.97860 0.78470 0.37240 0.06900
H 	H 	0.92430 0.77050 0.67160 0.13600
H 	H 	0.98770 0.58350 0.80540 0.13700
H 	H 	0.95380 0.60330 0.61540 0.13700
H 	H 	0.23120 0.33060 0.83580 0.06700
H 	H 	0.25390 0.48720 0.82340 0.09100
H 	H 	0.38960 0.47270 0.67380 0.07500
H 	H 	0.13930 0.79890 0.82740 0.06700
H 	H 	0.12510 0.63220 0.86400 0.07600
H 	H 	0.28620 0.76980 0.71120 0.09000
H 	H 	0.48610 0.70560 0.53080 0.09100
H 	H 	0.52130 0.85430 0.52920 0.08000
H 	H 	0.64900 0.84290 0.37240 0.06900
H 	H 	0.40410 0.55790 0.67160 0.13600
H 	H 	0.20690 0.61110 0.80540 0.13700
H 	H 	0.43080 0.78130 0.61540 0.13600
C 	C 	0.61881 0.07098 0.09768 0.35900
C 	C 	0.63771 0.05559 0.28146 0.34700
C 	C 	0.62864 0.06727 0.18814 -0.00300
C 	C 	0.59350 0.07042 0.16222 -0.05100
C 	C 	0.60291 0.06444 0.24972 -0.05000
C 	C 	0.53526 0.07263 0.19628 -0.08300
C 	C 	0.50824 0.06824 0.25882 0.12000
C 	C 	0.54397 0.06509 0.28450 -0.08400
C 	C 	0.39823 0.05313 0.30134 0.20100
C 	C 	0.34918 0.02878 0.26324 0.20600
C 	C 	0.29880 0.04290 0.35020 0.21100
C 	C 	0.20785 0.98192 0.23674 -0.03800
C 	C 	0.28742 0.97458 0.14724 -0.04900
C 	C 	0.30895 0.96221 0.09312 0.34100
C 	C 	0.22812 0.97335 0.18368 -0.00900
C 	C 	0.32662 0.98780 0.16176 -0.08700
C 	C 	0.24576 0.99316 0.25108 -0.08800
C 	C 	0.30841 0.99931 0.21238 0.12400
C 	C 	0.14359 0.03762 0.55376 -0.02800
C 	C 	0.25611 0.02279 0.49030 -0.09600
C 	C 	0.22485 0.03695 0.45830 0.13200
C 	C 	0.16812 0.04287 0.49098 -0.10300
C 	C 	0.17398 0.02503 0.58480 -0.02200
C 	C 	0.07913 0.03979 0.59048 0.32800
C 	C 	0.14196 0.97764 0.27858 0.33100
C 	C 	0.26394 0.00056 0.58758 0.33400
C 	C 	0.23169 0.01742 0.55144 -0.03100
C 	C 	0.28351 0.83134 0.09768 0.35900
C 	C 	0.08083 0.66295 0.28146 0.34700
C 	C 	0.18322 0.74459 0.18814 -0.00300
C 	C 	0.24428 0.76736 0.16222 -0.05100
C 	C 	0.14737 0.68584 0.24972 -0.05100
C 	C 	0.26846 0.73109 0.19628 -0.08300
C 	C 	0.23294 0.67294 0.25882 0.12100
C 	C 	0.17153 0.65041 0.28450 -0.08400
C 	C 	0.30043 0.64553 0.30134 0.20100
C 	C 	0.38758 0.70798 0.26324 0.20700
C 	C 	0.35100 0.60690 0.35020 0.21100
C 	C 	0.55541 0.78134 0.23674 -0.03900
C 	C 	0.56534 0.87818 0.14724 -0.04900
C 	C 	0.59793 0.94467 0.09312 0.34000
C 	C 	0.58820 0.84297 0.18368 -0.00800
C 	C 	0.51162 0.85044 0.16176 -0.08600
C 	C 	0.50316 0.75576 0.25108 -0.08700
C 	C 	0.47921 0.78831 0.21238 0.12100
C 	C 	0.30265 0.40862 0.55376 -0.02700
C 	C 	0.25359 0.48691 0.49030 -0.09500
C 	C 	0.31685 0.50475 0.45830 0.13200
C 	C 	0.34090 0.46615 0.49098 -0.10200
C 	C 	0.24122 0.39017 0.58480 -0.02200
C 	C 	0.33039 0.36973 0.59048 0.32800
C 	C 	0.57946 0.74378 0.27858 0.33100
C 	C 	0.14848 0.41186 0.58758 0.33700
C 	C 	0.21687 0.43114 0.55144 -0.03100
C 	C 	0.07098 0.28351 0.09768 0.35800
C 	C 	0.05559 0.08083 0.28146 0.34700
C 	C 	0.06727 0.18322 0.18814 -0.00400
C 	C 	0.07042 0.24428 0.16222 -0.05100
C 	C 	0.06444 0.14737 0.24972 -0.05100
C 	C 	0.07263 0.26846 0.19628 -0.08300
C 	C 	0.06824 0.23294 0.25882 0.12000
C 	C 	0.06509 0.17153 0.28450 -0.08400
C 	C 	0.05313 0.30043 0.30134 0.20100
C 	C 	0.02878 0.38758 0.26324 0.20600
C 	C 	0.04290 0.35100 0.35020 0.21100
C 	C 	0.98192 0.55541 0.23674 -0.03600
C 	C 	0.97458 0.56534 0.14724 -0.04800
C 	C 	0.96221 0.59793 0.09312 0.34000
C 	C 	0.97335 0.58820 0.18368 -0.00900
C 	C 	0.98780 0.51162 0.16176 -0.08800
C 	C 	0.99316 0.50316 0.25108 -0.08900
C 	C 	0.99931 0.47921 0.21238 0.12600
C 	C 	0.03762 0.30265 0.55376 -0.02700
C 	C 	0.02279 0.25359 0.49030 -0.09500
C 	C 	0.03695 0.31685 0.45830 0.13200
C 	C 	0.04287 0.34090 0.49098 -0.10200
C 	C 	0.02503 0.24122 0.58480 -0.02200
C 	C 	0.03979 0.33039 0.59048 0.32800
C 	C 	0.97764 0.57946 0.27858 0.33100
C 	C 	0.00056 0.14848 0.58758 0.33500
C 	C 	0.01742 0.21687 0.55144 -0.03100
C 	C 	0.83134 0.61881 0.09768 0.35800
C 	C 	0.66295 0.63771 0.28146 0.34600
C 	C 	0.74459 0.62864 0.18814 -0.00400
C 	C 	0.76736 0.59350 0.16222 -0.05000
C 	C 	0.68584 0.60291 0.24972 -0.05000
C 	C 	0.73109 0.53526 0.19628 -0.08300
C 	C 	0.67294 0.50824 0.25882 0.12100
C 	C 	0.65041 0.54397 0.28450 -0.08400
C 	C 	0.64553 0.39823 0.30134 0.20200
C 	C 	0.70798 0.34918 0.26324 0.20700
C 	C 	0.60690 0.29880 0.35020 0.21100
C 	C 	0.78134 0.20785 0.23674 -0.03900
C 	C 	0.87818 0.28742 0.14724 -0.04900
C 	C 	0.94467 0.30895 0.09312 0.33900
C 	C 	0.84297 0.22812 0.18368 -0.00800
C 	C 	0.85044 0.32662 0.16176 -0.08600
C 	C 	0.75576 0.24576 0.25108 -0.08700
C 	C 	0.78831 0.30841 0.21238 0.12100
C 	C 	0.40862 0.14359 0.55376 -0.02800
C 	C 	0.48691 0.25611 0.49030 -0.09500
C 	C 	0.50475 0.22485 0.45830 0.13200
C 	C 	0.46615 0.16812 0.49098 -0.10200
C 	C 	0.39017 0.17398 0.58480 -0.02200
C 	C 	0.36973 0.07913 0.59048 0.32800
C 	C 	0.74378 0.14196 0.27858 0.33100
C 	C 	0.41186 0.26394 0.58758 0.33700
C 	C 	0.43114 0.23169 0.55144 -0.03100
C 	C 	0.38119 0.92902 0.90232 0.35500
C 	C 	0.36229 0.94441 0.71854 0.34600
C 	C 	0.37136 0.93273 0.81186 -0.00700
C 	C 	0.40650 0.92958 0.83778 -0.04100
C 	C 	0.39709 0.93556 0.75028 -0.04400
C 	C 	0.46474 0.92737 0.80372 -0.08600
C 	C 	0.49176 0.93176 0.74118 0.12600
C 	C 	0.45603 0.93491 0.71550 -0.08700
C 	C 	0.60177 0.94687 0.69866 0.20400
C 	C 	0.65082 0.97122 0.73676 0.21100
C 	C 	0.70120 0.95710 0.64980 0.21300
C 	C 	0.79215 0.01808 0.76326 -0.03500
C 	C 	0.71258 0.02542 0.85276 -0.04200
C 	C 	0.69105 0.03779 0.90688 0.33800
C 	C 	0.77188 0.02665 0.81632 -0.01000
C 	C 	0.67338 0.01220 0.83824 -0.08700
C 	C 	0.75424 0.00684 0.74892 -0.08700
C 	C 	0.69159 0.00069 0.78762 0.12300
C 	C 	0.85641 0.96238 0.44624 -0.02700
C 	C 	0.74389 0.97721 0.50970 -0.09400
C 	C 	0.77515 0.96305 0.54170 0.13400
C 	C 	0.83188 0.95713 0.50902 -0.10200
C 	C 	0.82602 0.97497 0.41520 -0.02100
C 	C 	0.92087 0.96021 0.40952 0.32800
C 	C 	0.85804 0.02236 0.72142 0.33100
C 	C 	0.73606 0.99944 0.41242 0.34300
C 	C 	0.76831 0.98258 0.44856 -0.03200
C 	C 	0.71649 0.16866 0.90232 0.35500
C 	C 	0.91917 0.33705 0.71854 0.34500
C 	C 	0.81678 0.25541 0.81186 -0.00700
C 	C 	0.75572 0.23264 0.83778 -0.04100
C 	C 	0.85263 0.31416 0.75028 -0.04400
C 	C 	0.73154 0.26891 0.80372 -0.08600
C 	C 	0.76706 0.32706 0.74118 0.12600
C 	C 	0.82847 0.34959 0.71550 -0.08700
C 	C 	0.69957 0.35447 0.69866 0.20400
C 	C 	0.61242 0.29202 0.73676 0.21000
C 	C 	0.64900 0.39310 0.64980 0.21300
C 	C 	0.44459 0.21866 0.76326 -0.03400
C 	C 	0.43466 0.12182 0.85276 -0.04100
C 	C 	0.40207 0.05533 0.90688 0.33800
C 	C 	0.41180 0.15703 0.81632 -0.01100
C 	C 	0.48838 0.14956 0.83824 -0.08900
C 	C 	0.49684 0.24424 0.74892 -0.08900
C 	C 	0.52079 0.21169 0.78762 0.12700
C 	C 	0.69735 0.59138 0.44624 -0.02700
C 	C 	0.74641 0.51309 0.50970 -0.09500
C 	C 	0.68315 0.49525 0.54170 0.13300
C 	C 	0.65910 0.53385 0.50902 -0.10200
C 	C 	0.75878 0.60983 0.41520 -0.02100
C 	C 	0.66961 0.63027 0.40952 0.32800
C 	C 	0.42054 0.25622 0.72142 0.33000
C 	C 	0.85152 0.58814 0.41242 0.33800
C 	C 	0.78313 0.56886 0.44856 -0.03100
C 	C 	0.92902 0.71649 0.90232 0.35500
C 	C 	0.94441 0.91917 0.71854 0.34500
C 	C 	0.93273 0.81678 0.81186 -0.00700
C 	C 	0.92958 0.75572 0.83778 -0.04100
C 	C 	0.93556 0.85263 0.75028 -0.04300
C 	C 	0.92737 0.73154 0.80372 -0.08700
C 	C 	0.93176 0.76706 0.74118 0.12700
C 	C 	0.93491 0.82847 0.71550 -0.08700
C 	C 	0.94687 0.69957 0.69866 0.20500
C 	C 	0.97122 0.61242 0.73676 0.21100
C 	C 	0.95710 0.64900 0.64980 0.21300
C 	C 	0.01808 0.44459 0.76326 -0.03400
C 	C 	0.02542 0.43466 0.85276 -0.04100
C 	C 	0.03779 0.40207 0.90688 0.33700
C 	C 	0.02665 0.41180 0.81632 -0.01100
C 	C 	0.01220 0.48838 0.83824 -0.08800
C 	C 	0.00684 0.49684 0.74892 -0.08800
C 	C 	0.00069 0.52079 0.78762 0.12500
C 	C 	0.96238 0.69735 0.44624 -0.02700
C 	C 	0.97721 0.74641 0.50970 -0.09400
C 	C 	0.96305 0.68315 0.54170 0.13400
C 	C 	0.95713 0.65910 0.50902 -0.10200
C 	C 	0.97497 0.75878 0.41520 -0.02000
C 	C 	0.96021 0.66961 0.40952 0.32900
C 	C 	0.02236 0.42054 0.72142 0.33100
C 	C 	0.99944 0.85152 0.41242 0.34400
C 	C 	0.98258 0.78313 0.44856 -0.03200
C 	C 	0.16866 0.38119 0.90232 0.35400
C 	C 	0.33705 0.36229 0.71854 0.34500
C 	C 	0.25541 0.37136 0.81186 -0.00700
C 	C 	0.23264 0.40650 0.83778 -0.04100
C 	C 	0.31416 0.39709 0.75028 -0.04400
C 	C 	0.26891 0.46474 0.80372 -0.08700
C 	C 	0.32706 0.49176 0.74118 0.12600
C 	C 	0.34959 0.45603 0.71550 -0.08700
C 	C 	0.35447 0.60177 0.69866 0.20400
C 	C 	0.29202 0.65082 0.73676 0.21000
C 	C 	0.39310 0.70120 0.64980 0.21300
C 	C 	0.21866 0.79215 0.76326 -0.03400
C 	C 	0.12182 0.71258 0.85276 -0.04100
C 	C 	0.05533 0.69105 0.90688 0.33800
C 	C 	0.15703 0.77188 0.81632 -0.01100
C 	C 	0.14956 0.67338 0.83824 -0.08900
C 	C 	0.24424 0.75424 0.74892 -0.08900
C 	C 	0.21169 0.69159 0.78762 0.12700
C 	C 	0.59138 0.85641 0.44624 -0.02700
C 	C 	0.51309 0.74389 0.50970 -0.09500
C 	C 	0.49525 0.77515 0.54170 0.13400
C 	C 	0.53385 0.83188 0.50902 -0.10200
C 	C 	0.60983 0.82602 0.41520 -0.02100
C 	C 	0.63027 0.92087 0.40952 0.32800
C 	C 	0.25622 0.85804 0.72142 0.33000
C 	C 	0.58814 0.73606 0.41242 0.33800
C 	C 	0.56886 0.76831 0.44856 -0.03100
N 	N 	0.34850 0.05595 0.34786 -0.17800
N 	N 	0.29777 0.03216 0.30684 -0.17900
N 	N 	0.40149 0.03752 0.25852 -0.17200
N 	N 	0.44827 0.06640 0.29908 -0.23100
N 	N 	0.35283 0.01356 0.22110 -0.23400
N 	N 	0.24529 0.04249 0.39540 -0.23500
N 	N 	0.30364 0.59619 0.34786 -0.17800
N 	N 	0.39539 0.66100 0.30684 -0.17800
N 	N 	0.33999 0.70396 0.25852 -0.17200
N 	N 	0.25265 0.63452 0.29908 -0.23100
N 	N 	0.42607 0.76534 0.22110 -0.23200
N 	N 	0.35931 0.56211 0.39540 -0.23500
N 	N 	0.05595 0.30364 0.34786 -0.17800
N 	N 	0.03216 0.39539 0.30684 -0.17900
N 	N 	0.03752 0.33999 0.25852 -0.17200
N 	N 	0.06640 0.25265 0.29908 -0.23100
N 	N 	0.01356 0.42607 0.22110 -0.23500
N 	N 	0.04249 0.35931 0.39540 -0.23500
N 	N 	0.59619 0.34850 0.34786 -0.17800
N 	N 	0.66100 0.29777 0.30684 -0.17800
N 	N 	0.70396 0.40149 0.25852 -0.17200
N 	N 	0.63452 0.44827 0.29908 -0.23100
N 	N 	0.76534 0.35283 0.22110 -0.23200
N 	N 	0.56211 0.24529 0.39540 -0.23500
N 	N 	0.65150 0.94405 0.65214 -0.17700
N 	N 	0.70223 0.96784 0.69316 -0.17700
N 	N 	0.59851 0.96248 0.74148 -0.17100
N 	N 	0.55173 0.93360 0.70092 -0.23200
N 	N 	0.64717 0.98644 0.77890 -0.23100
N 	N 	0.75471 0.95751 0.60460 -0.23500
N 	N 	0.69636 0.40381 0.65214 -0.17700
N 	N 	0.60461 0.33900 0.69316 -0.17800
N 	N 	0.66001 0.29604 0.74148 -0.17100
N 	N 	0.74735 0.36548 0.70092 -0.23200
N 	N 	0.57393 0.23466 0.77890 -0.23300
N 	N 	0.64069 0.43789 0.60460 -0.23500
N 	N 	0.94405 0.69636 0.65214 -0.17700
N 	N 	0.96784 0.60461 0.69316 -0.17700
N 	N 	0.96248 0.66001 0.74148 -0.17100
N 	N 	0.93360 0.74735 0.70092 -0.23200
N 	N 	0.98644 0.57393 0.77890 -0.23200
N 	N 	0.95751 0.64069 0.60460 -0.23500
N 	N 	0.40381 0.65150 0.65214 -0.17700
N 	N 	0.33900 0.70223 0.69316 -0.17800
N 	N 	0.29604 0.59851 0.74148 -0.17100
N 	N 	0.36548 0.55173 0.70092 -0.23200
N 	N 	0.23466 0.64717 0.77890 -0.23300
N 	N 	0.43789 0.75471 0.60460 -0.23500
O 	O 	0.35768 0.95020 0.07222 -0.41200
O 	O 	0.58767 0.07700 0.07430 -0.42600
O 	O 	0.67079 0.06462 0.07316 -0.41400
O 	O 	0.05727 0.03038 0.65032 -0.39200
O 	O 	0.05309 0.04948 0.56024 -0.40800
O 	O 	0.30976 0.98549 0.56344 -0.39500
O 	O 	0.24057 0.00165 0.64162 -0.39900
O 	O 	0.10985 0.97242 0.25744 -0.40400
O 	O 	0.12150 0.97598 0.33326 -0.39500
O 	O 	0.27465 0.96369 0.07244 -0.40300
O 	O 	0.61125 0.05107 0.33838 -0.41000
O 	O 	0.69055 0.05284 0.24994 -0.40300
O 	O 	0.57010 0.97758 0.07222 -0.41100
O 	O 	0.33803 0.84870 0.07430 -0.42500
O 	O 	0.25605 0.86222 0.07316 -0.41300
O 	O 	0.29241 0.31930 0.65032 -0.39100
O 	O 	0.38667 0.39028 0.56024 -0.40700
O 	O 	0.12680 0.45107 0.56344 -0.39800
O 	O 	0.11781 0.35673 0.64162 -0.39900
O 	O 	0.63271 0.77014 0.25744 -0.40400
O 	O 	0.54524 0.69076 0.33326 -0.39600
O 	O 	0.65291 0.96387 0.07244 -0.40100
O 	O 	0.05037 0.61055 0.33838 -0.41100
O 	O 	0.05951 0.69722 0.24994 -0.40500
O 	O 	0.95020 0.57010 0.07222 -0.41100
O 	O 	0.07700 0.33803 0.07430 -0.42100
O 	O 	0.06462 0.25605 0.07316 -0.41300
O 	O 	0.03038 0.29241 0.65032 -0.39100
O 	O 	0.04948 0.38667 0.56024 -0.40700
O 	O 	0.98549 0.12680 0.56344 -0.39600
O 	O 	0.00165 0.11781 0.64162 -0.39900
O 	O 	0.97242 0.63271 0.25744 -0.40300
O 	O 	0.97598 0.54524 0.33326 -0.39400
O 	O 	0.96369 0.65291 0.07244 -0.40200
O 	O 	0.05107 0.05037 0.33838 -0.41100
O 	O 	0.05284 0.05951 0.24994 -0.40400
O 	O 	0.97758 0.35768 0.07222 -0.40600
O 	O 	0.84870 0.58767 0.07430 -0.42400
O 	O 	0.86222 0.67079 0.07316 -0.41200
O 	O 	0.31930 0.05727 0.65032 -0.39200
O 	O 	0.39028 0.05309 0.56024 -0.40800
O 	O 	0.45107 0.30976 0.56344 -0.39800
O 	O 	0.35673 0.24057 0.64162 -0.39900
O 	O 	0.77014 0.10985 0.25744 -0.40500
O 	O 	0.69076 0.12150 0.33326 -0.39600
O 	O 	0.96387 0.27465 0.07244 -0.40000
O 	O 	0.61055 0.61125 0.33838 -0.40900
O 	O 	0.69722 0.69055 0.24994 -0.40200
O 	O 	0.64232 0.04980 0.92778 -0.39500
O 	O 	0.41233 0.92300 0.92570 -0.40500
O 	O 	0.32921 0.93538 0.92684 -0.39300
O 	O 	0.94273 0.96962 0.34968 -0.38900
O 	O 	0.94691 0.95052 0.43976 -0.40300
O 	O 	0.69024 0.01451 0.43656 -0.40200
O 	O 	0.75943 0.99835 0.35838 -0.39900
O 	O 	0.89015 0.02758 0.74256 -0.40100
O 	O 	0.87850 0.02402 0.66674 -0.39600
O 	O 	0.72535 0.03631 0.92756 -0.38500
O 	O 	0.38875 0.94893 0.66162 -0.40700
O 	O 	0.30945 0.94716 0.75006 -0.39700
O 	O 	0.42990 0.02242 0.92778 -0.39600
O 	O 	0.66197 0.15130 0.92570 -0.40600
O 	O 	0.74395 0.13778 0.92684 -0.39300
O 	O 	0.70759 0.68070 0.34968 -0.39200
O 	O 	0.61333 0.60972 0.43976 -0.40700
O 	O 	0.87320 0.54893 0.43656 -0.39800
O 	O 	0.88219 0.64327 0.35838 -0.40000
O 	O 	0.36729 0.22986 0.74256 -0.40100
O 	O 	0.45476 0.30924 0.66674 -0.39500
O 	O 	0.34709 0.03613 0.92756 -0.38500
O 	O 	0.94963 0.38945 0.66162 -0.40600
O 	O 	0.94049 0.30278 0.75006 -0.39700
O 	O 	0.04980 0.42990 0.92778 -0.39000
O 	O 	0.92300 0.66197 0.92570 -0.40600
O 	O 	0.93538 0.74395 0.92684 -0.39300
O 	O 	0.96962 0.70759 0.34968 -0.39100
O 	O 	0.95052 0.61333 0.43976 -0.40600
O 	O 	0.01451 0.87320 0.43656 -0.40300
O 	O 	0.99835 0.88219 0.35838 -0.39900
O 	O 	0.02758 0.36729 0.74256 -0.40100
O 	O 	0.02402 0.45476 0.66674 -0.39600
O 	O 	0.03631 0.34709 0.92756 -0.38300
O 	O 	0.94893 0.94963 0.66162 -0.40500
O 	O 	0.94716 0.94049 0.75006 -0.39500
O 	O 	0.02242 0.64232 0.92778 -0.39600
O 	O 	0.15130 0.41233 0.92570 -0.40000
O 	O 	0.13778 0.32921 0.92684 -0.39100
O 	O 	0.68070 0.94273 0.34968 -0.39000
O 	O 	0.60972 0.94691 0.43976 -0.40500
O 	O 	0.54893 0.69024 0.43656 -0.39800
O 	O 	0.64327 0.75943 0.35838 -0.40000
O 	O 	0.22986 0.89015 0.74256 -0.40000
O 	O 	0.30924 0.87850 0.66674 -0.39500
O 	O 	0.03613 0.72535 0.92756 -0.38600
O 	O 	0.38945 0.38875 0.66162 -0.40800
O 	O 	0.30278 0.30945 0.75006 -0.39800
