data_crystal

_cell_length_a 26.77780
_cell_length_b 26.77780
_cell_length_c 26.77780
_cell_angle_alpha 60.20310
_cell_angle_beta  89.64790
_cell_angle_gamma 119.79700

_symmetry_space_group_name_	'P 1'
_symmetry_space_group_name_H-M	'P 1'

loop_
_symmetry_equiv_pos_as_xyz
  x,y,z

loop_
_atom_site_label
_atom_site_type_symbol
_atom_site_fract_x
_atom_site_fract_y
_atom_site_fract_z
_atom_site_charge
Cu	Cu	0.76841 0.29530 0.18155 0.90500
Cu	Cu	0.85874 0.39050 0.07604 0.90400
Cu	Cu	0.52315 0.70470 0.52689 0.90600
Cu	Cu	0.53346 0.60950 0.53176 0.90500
Cu	Cu	0.47311 0.94996 0.23159 0.90500
Cu	Cu	0.46824 0.93478 0.14126 0.90400
Cu	Cu	0.81845 0.05004 0.47685 0.90600
Cu	Cu	0.92396 0.06522 0.46654 0.90500
Cu	Cu	0.23159 0.70470 0.81845 0.90600
Cu	Cu	0.14126 0.60950 0.92396 0.90500
Cu	Cu	0.47685 0.29530 0.47311 0.90600
Cu	Cu	0.46654 0.39050 0.46824 0.90500
Cu	Cu	0.52689 0.05004 0.76841 0.90500
Cu	Cu	0.53176 0.06522 0.85874 0.90400
Cu	Cu	0.18155 0.94996 0.52315 0.90600
Cu	Cu	0.07604 0.93478 0.53346 0.90500
Cu	Cu	0.79472 0.34218 0.45254 0.90700
Cu	Cu	0.89166 0.45373 0.43793 0.90800
Cu	Cu	0.20528 0.65782 0.54746 0.90700
Cu	Cu	0.10834 0.54627 0.56207 0.90800
Cu	Cu	0.45254 0.24726 0.20528 0.90700
Cu	Cu	0.43793 0.32959 0.10834 0.90700
Cu	Cu	0.54746 0.75274 0.79472 0.90700
Cu	Cu	0.56207 0.67041 0.89166 0.90700
H 	H 	0.05970 0.63500 0.09750 0.14100
H 	H 	0.28810 0.80870 0.07420 0.14100
H 	H 	0.11480 0.62720 0.29220 0.14100
H 	H 	0.99230 0.56300 0.24910 0.09700
H 	H 	0.83510 0.40150 0.27020 0.06900
H 	H 	0.97600 0.53700 0.11340 0.08300
H 	H 	0.20640 0.71890 0.01210 0.09300
H 	H 	0.34090 0.86050 0.84960 0.06800
H 	H 	0.35480 0.89560 0.97880 0.08300
H 	H 	0.26950 0.76990 0.20980 0.09400
H 	H 	0.30060 0.76910 0.35770 0.06800
H 	H 	0.13560 0.62480 0.37280 0.07900
H 	H 	0.26750 0.36500 0.57530 0.14200
H 	H 	0.11710 0.19130 0.52060 0.14200
H 	H 	0.08060 0.37280 0.51240 0.14100
H 	H 	0.18790 0.43700 0.57070 0.09600
H 	H 	0.32830 0.59850 0.56640 0.06900
H 	H 	0.34960 0.46300 0.56100 0.08200
H 	H 	0.26900 0.28110 0.51250 0.09800
H 	H 	0.28990 0.13950 0.51960 0.06900
H 	H 	0.12560 0.10440 0.54080 0.08500
H 	H 	0.02030 0.23010 0.50040 0.09700
H 	H 	0.87320 0.23090 0.46850 0.06900
H 	H 	0.00240 0.37520 0.48920 0.08100
H 	H 	0.42470 0.15720 0.94030 0.14100
H 	H 	0.47940 0.36230 0.71190 0.14200
H 	H 	0.48760 0.40700 0.88520 0.14100
H 	H 	0.42930 0.24140 0.00770 0.09700
H 	H 	0.43360 0.10530 0.16490 0.06900
H 	H 	0.43900 0.08940 0.02400 0.08300
H 	H 	0.48750 0.21850 0.79360 0.09700
H 	H 	0.48040 0.19050 0.65910 0.06900
H 	H 	0.45920 0.33360 0.64520 0.08500
H 	H 	0.49960 0.47930 0.73050 0.09500
H 	H 	0.53150 0.65830 0.69940 0.06900
H 	H 	0.51080 0.50840 0.86440 0.07900
H 	H 	0.90250 0.84280 0.73250 0.14200
H 	H 	0.92580 0.63770 0.88290 0.14200
H 	H 	0.70780 0.59300 0.91940 0.14100
H 	H 	0.75090 0.75860 0.81210 0.09600
H 	H 	0.72980 0.89470 0.67170 0.06900
H 	H 	0.88660 0.91060 0.65040 0.08300
H 	H 	0.98790 0.78150 0.73100 0.09900
H 	H 	0.15040 0.80950 0.71010 0.07000
H 	H 	0.02120 0.66640 0.87440 0.08500
H 	H 	0.79020 0.52070 0.97970 0.09400
H 	H 	0.64230 0.34170 0.12680 0.06800
H 	H 	0.62720 0.49160 0.99760 0.07800
H 	H 	0.94030 0.36500 0.90250 0.14100
H 	H 	0.71190 0.19130 0.92580 0.14100
H 	H 	0.88520 0.37280 0.70780 0.14100
H 	H 	0.00770 0.43700 0.75090 0.09700
H 	H 	0.16490 0.59850 0.72980 0.06900
H 	H 	0.02400 0.46300 0.88660 0.08300
H 	H 	0.79360 0.28110 0.98790 0.09300
H 	H 	0.65910 0.13950 0.15040 0.06800
H 	H 	0.64520 0.10440 0.02120 0.08300
H 	H 	0.73050 0.23010 0.79020 0.09400
H 	H 	0.69940 0.23090 0.64230 0.06800
H 	H 	0.86440 0.37520 0.62720 0.07900
H 	H 	0.73250 0.63500 0.42470 0.14200
H 	H 	0.88290 0.80870 0.47940 0.14200
H 	H 	0.91940 0.62720 0.48760 0.14100
H 	H 	0.81210 0.56300 0.42930 0.09600
H 	H 	0.67170 0.40150 0.43360 0.06900
H 	H 	0.65040 0.53700 0.43900 0.08200
H 	H 	0.73100 0.71890 0.48750 0.09800
H 	H 	0.71010 0.86050 0.48040 0.06900
H 	H 	0.87440 0.89560 0.45920 0.08500
H 	H 	0.97970 0.76990 0.49960 0.09700
H 	H 	0.12680 0.76910 0.53150 0.06900
H 	H 	0.99760 0.62480 0.51080 0.08100
H 	H 	0.57530 0.84280 0.05970 0.14100
H 	H 	0.52060 0.63770 0.28810 0.14200
H 	H 	0.51240 0.59300 0.11480 0.14100
H 	H 	0.57070 0.75860 0.99230 0.09700
H 	H 	0.56640 0.89470 0.83510 0.06900
H 	H 	0.56100 0.91060 0.97600 0.08300
H 	H 	0.51250 0.78150 0.20640 0.09700
H 	H 	0.51960 0.80950 0.34090 0.06900
H 	H 	0.54080 0.66640 0.35480 0.08500
H 	H 	0.50040 0.52070 0.26950 0.09500
H 	H 	0.46850 0.34170 0.30060 0.06900
H 	H 	0.48920 0.49160 0.13560 0.07900
H 	H 	0.09750 0.15720 0.26750 0.14200
H 	H 	0.07420 0.36230 0.11710 0.14200
H 	H 	0.29220 0.40700 0.08060 0.14100
H 	H 	0.24910 0.24140 0.18790 0.09600
H 	H 	0.27020 0.10530 0.32830 0.06900
H 	H 	0.11340 0.08940 0.34960 0.08300
H 	H 	0.01210 0.21850 0.26900 0.09900
H 	H 	0.84960 0.19050 0.28990 0.07000
H 	H 	0.97880 0.33360 0.12560 0.08500
H 	H 	0.20980 0.47930 0.02030 0.09400
H 	H 	0.35770 0.65830 0.87320 0.06800
H 	H 	0.37280 0.50840 0.00240 0.07800
C 	C 	0.10460 0.65360 0.14700 0.21000
C 	C 	0.20426 0.73620 0.10894 0.20700
C 	C 	0.15334 0.67650 0.20796 0.21000
C 	C 	0.99471 0.55892 0.17561 0.13900
C 	C 	0.96944 0.53771 0.23387 -0.10500
C 	C 	0.91006 0.47872 0.26908 -0.03000
C 	C 	0.87506 0.44101 0.24643 -0.02100
C 	C 	0.90031 0.46290 0.18825 -0.03500
C 	C 	0.95959 0.52201 0.15282 -0.10600
C 	C 	0.88361 0.45226 0.33379 0.33800
C 	C 	0.86576 0.42114 0.16450 0.33900
C 	C 	0.27701 0.80340 0.00539 0.13400
C 	C 	0.24429 0.76119 0.98610 -0.09700
C 	C 	0.26873 0.78258 0.92701 -0.03600
C 	C 	0.32478 0.84585 0.88893 -0.01700
C 	C 	0.35720 0.88752 0.90824 -0.03300
C 	C 	0.33315 0.86682 0.96607 -0.10300
C 	C 	0.23567 0.73530 0.90717 0.33900
C 	C 	0.41977 0.95376 0.86921 0.33400
C 	C 	0.19572 0.69274 0.28682 0.13400
C 	C 	0.25559 0.75059 0.25120 -0.09900
C 	C 	0.29476 0.77965 0.27725 -0.03500
C 	C 	0.27453 0.74983 0.34006 -0.01900
C 	C 	0.21471 0.69092 0.37529 -0.03700
C 	C 	0.17580 0.66347 0.34887 -0.10000
C 	C 	0.35943 0.84019 0.24124 0.33300
C 	C 	0.19400 0.65870 0.44176 0.34200
C 	C 	0.19940 0.34640 0.54900 0.21000
C 	C 	0.15486 0.26380 0.53194 0.20800
C 	C 	0.11554 0.32350 0.52316 0.21000
C 	C 	0.26547 0.44108 0.56421 0.13800
C 	C 	0.22842 0.46229 0.56827 -0.10400
C 	C 	0.25220 0.52128 0.56866 -0.03000
C 	C 	0.31256 0.55899 0.56595 -0.02000
C 	C 	0.34885 0.53710 0.56259 -0.03600
C 	C 	0.32517 0.47799 0.56242 -0.10500
C 	C 	0.21395 0.54774 0.56865 0.33900
C 	C 	0.41436 0.57886 0.55538 0.33900
C 	C 	0.19121 0.19660 0.52639 0.14400
C 	C 	0.25271 0.23881 0.51690 -0.10800
C 	C 	0.29041 0.21742 0.51385 -0.03100
C 	C 	0.26522 0.15415 0.52107 -0.02200
C 	C 	0.20424 0.11248 0.53032 -0.02900
C 	C 	0.16711 0.13318 0.53367 -0.11100
C 	C 	0.35753 0.26470 0.49963 0.33700
C 	C 	0.17703 0.04624 0.53399 0.33300
C 	C 	0.02044 0.30726 0.49702 0.13700
C 	C 	0.99821 0.24941 0.49500 -0.10400
C 	C 	0.94310 0.22035 0.48489 -0.03300
C 	C 	0.91011 0.25017 0.47530 -0.02100
C 	C 	0.93379 0.30908 0.47621 -0.03500
C 	C 	0.98766 0.33653 0.48767 -0.10300
C 	C 	0.91857 0.15981 0.48076 0.33300
C 	C 	0.89954 0.34130 0.46470 0.34100
C 	C 	0.45100 0.25160 0.89540 0.21000
C 	C 	0.46806 0.31320 0.79574 0.20800
C 	C 	0.47684 0.36130 0.84666 0.21000
C 	C 	0.43579 0.17032 0.00529 0.13900
C 	C 	0.43173 0.20331 0.03056 -0.10500
C 	C 	0.43134 0.17914 0.08994 -0.03000
C 	C 	0.43405 0.12149 0.12494 -0.02100
C 	C 	0.43741 0.08856 0.09969 -0.03500
C 	C 	0.43758 0.11241 0.04041 -0.10600
C 	C 	0.43135 0.21740 0.11639 0.33800
C 	C 	0.44462 0.03026 0.13424 0.33800
C 	C 	0.47361 0.28240 0.72299 0.14300
C 	C 	0.48310 0.23039 0.75571 -0.10700
C 	C 	0.48615 0.19574 0.73127 -0.03200
C 	C 	0.47893 0.21371 0.67522 -0.02200
C 	C 	0.46968 0.26544 0.64280 -0.02900
C 	C 	0.46633 0.29922 0.66685 -0.11100
C 	C 	0.50037 0.14284 0.76433 0.33700
C 	C 	0.46601 0.28898 0.58023 0.33300
C 	C 	0.50298 0.48254 0.80428 0.13400
C 	C 	0.50500 0.50679 0.74441 -0.09900
C 	C 	0.51511 0.57201 0.70524 -0.03500
C 	C 	0.52470 0.61459 0.72547 -0.01900
C 	C 	0.52379 0.59000 0.78529 -0.03700
C 	C 	0.51233 0.52467 0.82420 -0.10000
C 	C 	0.51924 0.60067 0.64057 0.33300
C 	C 	0.53530 0.63576 0.80600 0.34200
C 	C 	0.85300 0.74840 0.80060 0.21000
C 	C 	0.89106 0.68680 0.84514 0.20800
C 	C 	0.79204 0.63870 0.88446 0.21000
C 	C 	0.82439 0.82968 0.73453 0.13800
C 	C 	0.76613 0.79669 0.77158 -0.10400
C 	C 	0.73092 0.82086 0.74780 -0.03000
C 	C 	0.75357 0.87851 0.68744 -0.02100
C 	C 	0.81175 0.91144 0.65115 -0.03500
C 	C 	0.84718 0.88759 0.67483 -0.10500
C 	C 	0.66621 0.78260 0.78605 0.33900
C 	C 	0.83550 0.96974 0.58564 0.33900
C 	C 	0.99461 0.71760 0.80879 0.14500
C 	C 	0.01390 0.76961 0.74729 -0.11000
C 	C 	0.07299 0.80426 0.70959 -0.03000
C 	C 	0.11107 0.78629 0.73478 -0.02300
C 	C 	0.09176 0.73456 0.79576 -0.02800
C 	C 	0.03393 0.70078 0.83289 -0.11200
C 	C 	0.09283 0.85716 0.64247 0.33700
C 	C 	0.13079 0.71102 0.82297 0.33300
C 	C 	0.71318 0.51746 0.97956 0.13200
C 	C 	0.74880 0.49321 0.00179 -0.09800
C 	C 	0.72275 0.42799 0.05690 -0.03600
C 	C 	0.65994 0.38541 0.08989 -0.01800
C 	C 	0.62471 0.41000 0.06621 -0.03800
C 	C 	0.65113 0.47533 0.01234 -0.09800
C 	C 	0.75876 0.39933 0.08143 0.33400
C 	C 	0.55824 0.36424 0.10046 0.34200
C 	C 	0.89540 0.34640 0.85300 0.21000
C 	C 	0.79574 0.26380 0.89106 0.20700
C 	C 	0.84666 0.32350 0.79204 0.21000
C 	C 	0.00529 0.44108 0.82439 0.13900
C 	C 	0.03056 0.46229 0.76613 -0.10500
C 	C 	0.08994 0.52128 0.73092 -0.03000
C 	C 	0.12494 0.55899 0.75357 -0.02100
C 	C 	0.09969 0.53710 0.81175 -0.03500
C 	C 	0.04041 0.47799 0.84718 -0.10600
C 	C 	0.11639 0.54774 0.66621 0.33800
C 	C 	0.13424 0.57886 0.83550 0.33900
C 	C 	0.72299 0.19660 0.99461 0.13400
C 	C 	0.75571 0.23881 0.01390 -0.09700
C 	C 	0.73127 0.21742 0.07299 -0.03600
C 	C 	0.67522 0.15415 0.11107 -0.01700
C 	C 	0.64280 0.11248 0.09176 -0.03300
C 	C 	0.66685 0.13318 0.03393 -0.10300
C 	C 	0.76433 0.26470 0.09283 0.33900
C 	C 	0.58023 0.04624 0.13079 0.33400
C 	C 	0.80428 0.30726 0.71318 0.13400
C 	C 	0.74441 0.24941 0.74880 -0.09900
C 	C 	0.70524 0.22035 0.72275 -0.03500
C 	C 	0.72547 0.25017 0.65994 -0.01900
C 	C 	0.78529 0.30908 0.62471 -0.03700
C 	C 	0.82420 0.33653 0.65113 -0.10000
C 	C 	0.64057 0.15981 0.75876 0.33300
C 	C 	0.80600 0.34130 0.55824 0.34200
C 	C 	0.80060 0.65360 0.45100 0.21000
C 	C 	0.84514 0.73620 0.46806 0.20800
C 	C 	0.88446 0.67650 0.47684 0.21000
C 	C 	0.73453 0.55892 0.43579 0.13800
C 	C 	0.77158 0.53771 0.43173 -0.10400
C 	C 	0.74780 0.47872 0.43134 -0.03000
C 	C 	0.68744 0.44101 0.43405 -0.02000
C 	C 	0.65115 0.46290 0.43741 -0.03600
C 	C 	0.67483 0.52201 0.43758 -0.10500
C 	C 	0.78605 0.45226 0.43135 0.33900
C 	C 	0.58564 0.42114 0.44462 0.33900
C 	C 	0.80879 0.80340 0.47361 0.14400
C 	C 	0.74729 0.76119 0.48310 -0.10800
C 	C 	0.70959 0.78258 0.48615 -0.03100
C 	C 	0.73478 0.84585 0.47893 -0.02200
C 	C 	0.79576 0.88752 0.46968 -0.02900
C 	C 	0.83289 0.86682 0.46633 -0.11100
C 	C 	0.64247 0.73530 0.50037 0.33700
C 	C 	0.82297 0.95376 0.46601 0.33300
C 	C 	0.97956 0.69274 0.50298 0.13700
C 	C 	0.00179 0.75059 0.50500 -0.10400
C 	C 	0.05690 0.77965 0.51511 -0.03300
C 	C 	0.08989 0.74983 0.52470 -0.02100
C 	C 	0.06621 0.69092 0.52379 -0.03500
C 	C 	0.01234 0.66347 0.51233 -0.10300
C 	C 	0.08143 0.84019 0.51924 0.33300
C 	C 	0.10046 0.65870 0.53530 0.34100
C 	C 	0.54900 0.74840 0.10460 0.21000
C 	C 	0.53194 0.68680 0.20426 0.20800
C 	C 	0.52316 0.63870 0.15334 0.21000
C 	C 	0.56421 0.82968 0.99471 0.13900
C 	C 	0.56827 0.79669 0.96944 -0.10500
C 	C 	0.56866 0.82086 0.91006 -0.03000
C 	C 	0.56595 0.87851 0.87506 -0.02100
C 	C 	0.56259 0.91144 0.90031 -0.03500
C 	C 	0.56242 0.88759 0.95959 -0.10600
C 	C 	0.56865 0.78260 0.88361 0.33800
C 	C 	0.55538 0.96974 0.86576 0.33800
C 	C 	0.52639 0.71760 0.27701 0.14300
C 	C 	0.51690 0.76961 0.24429 -0.10700
C 	C 	0.51385 0.80426 0.26873 -0.03200
C 	C 	0.52107 0.78629 0.32478 -0.02200
C 	C 	0.53032 0.73456 0.35720 -0.02900
C 	C 	0.53367 0.70078 0.33315 -0.11100
C 	C 	0.49963 0.85716 0.23567 0.33700
C 	C 	0.53399 0.71102 0.41977 0.33300
C 	C 	0.49702 0.51746 0.19572 0.13400
C 	C 	0.49500 0.49321 0.25559 -0.09900
C 	C 	0.48489 0.42799 0.29476 -0.03500
C 	C 	0.47530 0.38541 0.27453 -0.01900
C 	C 	0.47621 0.41000 0.21471 -0.03700
C 	C 	0.48767 0.47533 0.17580 -0.10000
C 	C 	0.48076 0.39933 0.35943 0.33300
C 	C 	0.46470 0.36424 0.19400 0.34200
C 	C 	0.14700 0.25160 0.19940 0.21000
C 	C 	0.10894 0.31320 0.15486 0.20800
C 	C 	0.20796 0.36130 0.11554 0.21000
C 	C 	0.17561 0.17032 0.26547 0.13800
C 	C 	0.23387 0.20331 0.22842 -0.10400
C 	C 	0.26908 0.17914 0.25220 -0.03000
C 	C 	0.24643 0.12149 0.31256 -0.02100
C 	C 	0.18825 0.08856 0.34885 -0.03500
C 	C 	0.15282 0.11241 0.32517 -0.10500
C 	C 	0.33379 0.21740 0.21395 0.33900
C 	C 	0.16450 0.03026 0.41436 0.33900
C 	C 	0.00539 0.28240 0.19121 0.14500
C 	C 	0.98610 0.23039 0.25271 -0.11000
C 	C 	0.92701 0.19574 0.29041 -0.03000
C 	C 	0.88893 0.21371 0.26522 -0.02300
C 	C 	0.90824 0.26544 0.20424 -0.02800
C 	C 	0.96607 0.29922 0.16711 -0.11200
C 	C 	0.90717 0.14284 0.35753 0.33700
C 	C 	0.86921 0.28898 0.17703 0.33300
C 	C 	0.28682 0.48254 0.02044 0.13200
C 	C 	0.25120 0.50679 0.99821 -0.09800
C 	C 	0.27725 0.57201 0.94310 -0.03600
C 	C 	0.34006 0.61459 0.91011 -0.01800
C 	C 	0.37529 0.59000 0.93379 -0.03800
C 	C 	0.34887 0.52467 0.98766 -0.09800
C 	C 	0.24124 0.60067 0.91857 0.33400
C 	C 	0.44176 0.63576 0.89954 0.34200
N 	N 	0.10069 0.63863 0.20294 -0.17900
N 	N 	0.15525 0.70161 0.09816 -0.18000
N 	N 	0.20706 0.72624 0.16378 -0.17600
N 	N 	0.05448 0.61843 0.13555 -0.24000
N 	N 	0.25927 0.78500 0.06473 -0.24100
N 	N 	0.15029 0.66144 0.26495 -0.23800
N 	N 	0.15843 0.36137 0.53794 -0.17900
N 	N 	0.20023 0.29839 0.54636 -0.18000
N 	N 	0.10998 0.27376 0.51918 -0.17600
N 	N 	0.24602 0.38157 0.56395 -0.24000
N 	N 	0.15027 0.21500 0.52573 -0.24200
N 	N 	0.07361 0.33856 0.51115 -0.23900
N 	N 	0.46206 0.30363 0.89931 -0.18000
N 	N 	0.45364 0.25341 0.84475 -0.18000
N 	N 	0.48082 0.37084 0.79294 -0.17600
N 	N 	0.43605 0.19003 0.94552 -0.24100
N 	N 	0.47427 0.32400 0.74073 -0.24200
N 	N 	0.48885 0.41524 0.84971 -0.23800
N 	N 	0.79706 0.69637 0.84157 -0.17900
N 	N 	0.90184 0.74659 0.79977 -0.18000
N 	N 	0.83622 0.62916 0.89002 -0.17600
N 	N 	0.86445 0.80997 0.75398 -0.24000
N 	N 	0.93527 0.67600 0.84973 -0.24300
N 	N 	0.73505 0.58476 0.92639 -0.23800
N 	N 	0.89931 0.36137 0.79706 -0.17900
N 	N 	0.84475 0.29839 0.90184 -0.18000
N 	N 	0.79294 0.27376 0.83622 -0.17600
N 	N 	0.94552 0.38157 0.86445 -0.24000
N 	N 	0.74073 0.21500 0.93527 -0.24100
N 	N 	0.84971 0.33856 0.73505 -0.23800
N 	N 	0.84157 0.63863 0.46206 -0.17900
N 	N 	0.79977 0.70161 0.45364 -0.18000
N 	N 	0.89002 0.72624 0.48082 -0.17600
N 	N 	0.75398 0.61843 0.43605 -0.24000
N 	N 	0.84973 0.78500 0.47427 -0.24200
N 	N 	0.92639 0.66144 0.48885 -0.23900
N 	N 	0.53794 0.69637 0.10069 -0.18000
N 	N 	0.54636 0.74659 0.15525 -0.18000
N 	N 	0.51918 0.62916 0.20706 -0.17600
N 	N 	0.56395 0.80997 0.05448 -0.24100
N 	N 	0.52573 0.67600 0.25927 -0.24200
N 	N 	0.51115 0.58476 0.15029 -0.23800
N 	N 	0.20294 0.30363 0.15843 -0.17900
N 	N 	0.09816 0.25341 0.20023 -0.18000
N 	N 	0.16378 0.37084 0.10998 -0.17600
N 	N 	0.13555 0.19003 0.24602 -0.24000
N 	N 	0.06473 0.32400 0.15027 -0.24300
N 	N 	0.26495 0.41524 0.07361 -0.23800
O 	O 	0.91493 0.48844 0.35257 -0.40200
O 	O 	0.83218 0.39353 0.36533 -0.40300
O 	O 	0.81282 0.36615 0.19855 -0.39900
O 	O 	0.89253 0.44231 0.11202 -0.40500
O 	O 	0.18819 0.67483 0.94576 -0.39800
O 	O 	0.25902 0.75948 0.85240 -0.40100
O 	O 	0.44282 0.96815 0.81865 -0.39400
O 	O 	0.44549 0.98908 0.89061 -0.40600
O 	O 	0.38118 0.86010 0.18760 -0.39300
O 	O 	0.38954 0.86739 0.26747 -0.40400
O 	O 	0.22659 0.69229 0.46162 -0.40400
O 	O 	0.14393 0.59770 0.47435 -0.40200
O 	O 	0.15899 0.51156 0.57351 -0.40200
O 	O 	0.24114 0.60647 0.56135 -0.40300
O 	O 	0.43530 0.63385 0.55333 -0.39900
O 	O 	0.44567 0.55769 0.54978 -0.40500
O 	O 	0.37941 0.32517 0.48664 -0.39800
O 	O 	0.38812 0.24052 0.50046 -0.40000
O 	O 	0.21320 0.03185 0.52533 -0.39400
O 	O 	0.12031 0.01092 0.54359 -0.40600
O 	O 	0.95230 0.13990 0.47892 -0.39200
O 	O 	0.86514 0.13261 0.47785 -0.40300
O 	O 	0.84609 0.30771 0.46570 -0.40300
O 	O 	0.92795 0.40230 0.45377 -0.40100
O 	O 	0.42649 0.26750 0.08507 -0.40200
O 	O 	0.43865 0.19751 0.16782 -0.40300
O 	O 	0.44667 0.01137 0.18718 -0.39800
O 	O 	0.45022 0.00455 0.10747 -0.40400
O 	O 	0.51336 0.13395 0.81181 -0.39800
O 	O 	0.49954 0.11142 0.74098 -0.40100
O 	O 	0.47467 0.26147 0.55718 -0.39400
O 	O 	0.45641 0.33610 0.55451 -0.40600
O 	O 	0.52108 0.56878 0.61882 -0.39200
O 	O 	0.52215 0.65701 0.61046 -0.40300
O 	O 	0.53430 0.68821 0.77341 -0.40300
O 	O 	0.54623 0.61828 0.85607 -0.40200
O 	O 	0.64743 0.73250 0.84101 -0.40200
O 	O 	0.63467 0.80249 0.75886 -0.40300
O 	O 	0.80145 0.98863 0.56470 -0.39800
O 	O 	0.88798 0.99545 0.55433 -0.40500
O 	O 	0.05424 0.86605 0.62059 -0.39800
O 	O 	0.14760 0.88858 0.61188 -0.40000
O 	O 	0.18135 0.73853 0.78680 -0.39400
O 	O 	0.10939 0.66390 0.87969 -0.40600
O 	O 	0.81240 0.43122 0.04770 -0.39200
O 	O 	0.73253 0.34299 0.13486 -0.40300
O 	O 	0.53838 0.31179 0.15391 -0.40400
O 	O 	0.52565 0.38172 0.07205 -0.40200
O 	O 	0.08507 0.51156 0.64743 -0.40200
O 	O 	0.16782 0.60647 0.63467 -0.40300
O 	O 	0.18718 0.63385 0.80145 -0.39900
O 	O 	0.10747 0.55769 0.88798 -0.40500
O 	O 	0.81181 0.32517 0.05424 -0.39800
O 	O 	0.74098 0.24052 0.14760 -0.40100
O 	O 	0.55718 0.03185 0.18135 -0.39400
O 	O 	0.55451 0.01092 0.10939 -0.40600
O 	O 	0.61882 0.13990 0.81240 -0.39300
O 	O 	0.61046 0.13261 0.73253 -0.40400
O 	O 	0.77341 0.30771 0.53838 -0.40400
O 	O 	0.85607 0.40230 0.52565 -0.40200
O 	O 	0.84101 0.48844 0.42649 -0.40200
O 	O 	0.75886 0.39353 0.43865 -0.40300
O 	O 	0.56470 0.36615 0.44667 -0.39900
O 	O 	0.55433 0.44231 0.45022 -0.40500
O 	O 	0.62059 0.67483 0.51336 -0.39800
O 	O 	0.61188 0.75948 0.49954 -0.40000
O 	O 	0.78680 0.96815 0.47467 -0.39400
O 	O 	0.87969 0.98908 0.45641 -0.40600
O 	O 	0.04770 0.86010 0.52108 -0.39200
O 	O 	0.13486 0.86739 0.52215 -0.40300
O 	O 	0.15391 0.69229 0.53430 -0.40300
O 	O 	0.07205 0.59770 0.54623 -0.40100
O 	O 	0.57351 0.73250 0.91493 -0.40200
O 	O 	0.56135 0.80249 0.83218 -0.40300
O 	O 	0.55333 0.98863 0.81282 -0.39800
O 	O 	0.54978 0.99545 0.89253 -0.40400
O 	O 	0.48664 0.86605 0.18819 -0.39800
O 	O 	0.50046 0.88858 0.25902 -0.40100
O 	O 	0.52533 0.73853 0.44282 -0.39400
O 	O 	0.54359 0.66390 0.44549 -0.40600
O 	O 	0.47892 0.43122 0.38118 -0.39200
O 	O 	0.47785 0.34299 0.38954 -0.40300
O 	O 	0.46570 0.31179 0.22659 -0.40300
O 	O 	0.45377 0.38172 0.14393 -0.40200
O 	O 	0.35257 0.26750 0.15899 -0.40200
O 	O 	0.36533 0.19751 0.24114 -0.40300
O 	O 	0.19855 0.01137 0.43530 -0.39800
O 	O 	0.11202 0.00455 0.44567 -0.40500
O 	O 	0.94576 0.13395 0.37941 -0.39800
O 	O 	0.85240 0.11142 0.38812 -0.40000
O 	O 	0.81865 0.26147 0.21320 -0.39400
O 	O 	0.89061 0.33610 0.12031 -0.40600
O 	O 	0.18760 0.56878 0.95230 -0.39200
O 	O 	0.26747 0.65701 0.86514 -0.40300
O 	O 	0.46162 0.68821 0.84609 -0.40400
O 	O 	0.47435 0.61828 0.92795 -0.40200
