data_crystal

_cell_length_a 18.62290
_cell_length_b 18.62290
_cell_length_c 18.62290
_cell_angle_alpha 60.00000
_cell_angle_beta  60.00000
_cell_angle_gamma 60.00000

_symmetry_space_group_name_	'P 1'
_symmetry_space_group_name_H-M	'P 1'

loop_
_symmetry_equiv_pos_as_xyz
  x,y,z

loop_
_atom_site_label
_atom_site_type_symbol
_atom_site_fract_x
_atom_site_fract_y
_atom_site_fract_z
_atom_site_charge
Cu	Cu	-0.00000 0.43000 0.57000 0.85400
Cu	Cu	0.43000 0.00000 -0.00000 0.76000
Cu	Cu	0.57000 0.00000 -0.00000 0.76600
Cu	Cu	1.00000 0.57000 0.43000 0.96100
Cu	Cu	1.00000 0.57000 -0.00000 0.87600
Cu	Cu	0.43000 0.00000 0.57000 0.85900
Cu	Cu	0.57000 0.00000 0.43000 0.85400
Cu	Cu	-0.00000 0.43000 -0.00000 0.75600
Cu	Cu	0.00000 1.00000 0.43000 0.90100
Cu	Cu	0.43000 0.57000 -0.00000 0.81500
Cu	Cu	0.57000 0.43000 -0.00000 0.81500
Cu	Cu	0.00000 1.00000 0.57000 0.91100
H 	H 	0.97180 0.27040 0.48740 0.05400
H 	H 	0.27040 0.97180 0.27040 0.03400
H 	H 	0.48740 0.27040 0.97180 0.07300
H 	H 	0.27040 0.48740 0.27040 0.01200
H 	H 	0.97180 0.48740 0.27040 0.04400
H 	H 	0.27040 0.27040 0.48740 0.02200
H 	H 	0.48740 0.97180 0.27040 0.04600
H 	H 	0.27040 0.27040 0.97180 0.06100
H 	H 	0.97180 0.27040 0.27040 0.03400
H 	H 	0.27040 0.48740 0.97180 0.07100
H 	H 	0.48740 0.27040 0.27040 0.01300
H 	H 	0.27040 0.97180 0.48740 0.05300
H 	H 	0.72960 0.02820 0.51260 0.03100
H 	H 	0.02820 0.72960 0.72960 0.05000
H 	H 	0.72960 0.51260 0.02820 0.01700
H 	H 	0.51260 0.72960 0.72960 0.07100
H 	H 	0.51260 0.02820 0.72960 0.04200
H 	H 	0.72960 0.72960 0.51260 0.06100
H 	H 	0.02820 0.51260 0.72960 0.04000
H 	H 	0.72960 0.72960 0.02820 0.02900
H 	H 	0.72960 0.02820 0.72960 0.05300
H 	H 	0.51260 0.72960 0.02820 0.01700
H 	H 	0.72960 0.51260 0.72960 0.07200
H 	H 	0.02820 0.72960 0.51260 0.02900
C 	C 	0.97092 0.30010 0.42888 0.07000
C 	C 	0.30010 0.97092 0.30010 0.07000
C 	C 	0.42888 0.30010 0.97092 0.05100
C 	C 	0.30010 0.42888 0.30010 0.08700
C 	C 	0.97092 0.42888 0.30010 0.07100
C 	C 	0.30010 0.30010 0.42888 0.08600
C 	C 	0.42888 0.97092 0.30010 0.06800
C 	C 	0.30010 0.30010 0.97092 0.05300
C 	C 	0.97092 0.30010 0.30010 0.07200
C 	C 	0.30010 0.42888 0.97092 0.05200
C 	C 	0.42888 0.30010 0.30010 0.08600
C 	C 	0.30010 0.97092 0.42888 0.06800
C 	C 	0.69990 0.02908 0.57112 0.07300
C 	C 	0.02908 0.69990 0.69990 0.07100
C 	C 	0.69990 0.57112 0.02908 0.08100
C 	C 	0.57112 0.69990 0.69990 0.05400
C 	C 	0.57112 0.02908 0.69990 0.06900
C 	C 	0.69990 0.69990 0.57112 0.05700
C 	C 	0.02908 0.57112 0.69990 0.07300
C 	C 	0.69990 0.69990 0.02908 0.07800
C 	C 	0.69990 0.02908 0.69990 0.06800
C 	C 	0.57112 0.69990 0.02908 0.08000
C 	C 	0.69990 0.57112 0.69990 0.05400
C 	C 	0.02908 0.69990 0.57112 0.07600
C 	C 	0.97040 0.38630 0.38630 -0.11500
C 	C 	0.97722 0.43020 0.43020 0.37600
C 	C 	0.38630 0.97040 0.25700 -0.12600
C 	C 	0.43020 0.97722 0.16238 0.37100
C 	C 	0.38630 0.25700 0.97040 -0.08500
C 	C 	0.43020 0.16238 0.97722 0.36000
C 	C 	0.25700 0.38630 0.38630 -0.16300
C 	C 	0.16238 0.43020 0.43020 0.38900
C 	C 	0.97040 0.38630 0.25700 -0.12900
C 	C 	0.97722 0.43020 0.16238 0.37600
C 	C 	0.38630 0.25700 0.38630 -0.16100
C 	C 	0.43020 0.16238 0.43020 0.38400
C 	C 	0.38630 0.97040 0.38630 -0.11200
C 	C 	0.43020 0.97722 0.43020 0.37100
C 	C 	0.25700 0.38630 0.97040 -0.08800
C 	C 	0.16238 0.43020 0.97722 0.36500
C 	C 	0.97040 0.25700 0.38630 -0.12400
C 	C 	0.97722 0.16238 0.43020 0.38000
C 	C 	0.38630 0.38630 0.97040 -0.07800
C 	C 	0.43020 0.43020 0.97722 0.36000
C 	C 	0.38630 0.38630 0.25700 -0.16800
C 	C 	0.43020 0.43020 0.16238 0.38400
C 	C 	0.25700 0.97040 0.38630 -0.12400
C 	C 	0.16238 0.97722 0.43020 0.38000
C 	C 	0.61370 0.02960 0.61370 -0.13400
C 	C 	0.56980 0.02278 0.56980 0.38000
C 	C 	0.02960 0.61370 0.74300 -0.11900
C 	C 	0.02278 0.56980 0.83762 0.36900
C 	C 	0.74300 0.61370 0.02960 -0.15100
C 	C 	0.83762 0.56980 0.02278 0.37800
C 	C 	0.61370 0.74300 0.61370 -0.08900
C 	C 	0.56980 0.83762 0.56980 0.36800
C 	C 	0.61370 0.02960 0.74300 -0.11300
C 	C 	0.56980 0.02278 0.83762 0.36300
C 	C 	0.74300 0.61370 0.61370 -0.09000
C 	C 	0.83762 0.56980 0.56980 0.37200
C 	C 	0.02960 0.61370 0.61370 -0.13900
C 	C 	0.02278 0.56980 0.56980 0.38600
C 	C 	0.61370 0.74300 0.02960 -0.15000
C 	C 	0.56980 0.83762 0.02278 0.37300
C 	C 	0.74300 0.02960 0.61370 -0.12600
C 	C 	0.83762 0.02278 0.56980 0.38000
C 	C 	0.61370 0.61370 0.02960 -0.16200
C 	C 	0.56980 0.56980 0.02278 0.38300
C 	C 	0.61370 0.61370 0.74300 -0.07900
C 	C 	0.56980 0.56980 0.83762 0.36000
C 	C 	0.02960 0.74300 0.61370 -0.13000
C 	C 	0.02278 0.83762 0.56980 0.38100
O 	O 	0.97996 0.38740 0.50684 -0.35800
O 	O 	0.38740 0.97996 0.12580 -0.40600
O 	O 	0.50684 0.12580 0.97996 -0.32800
O 	O 	0.12580 0.50684 0.38740 -0.46900
O 	O 	0.97996 0.50684 0.12580 -0.41800
O 	O 	0.38740 0.12580 0.50684 -0.43900
O 	O 	0.50684 0.97996 0.38740 -0.36200
O 	O 	0.12580 0.38740 0.97996 -0.34300
O 	O 	0.97996 0.12580 0.38740 -0.41500
O 	O 	0.38740 0.50684 0.97996 -0.31000
O 	O 	0.50684 0.38740 0.12580 -0.46300
O 	O 	0.12580 0.97996 0.50684 -0.40100
O 	O 	0.61260 0.02004 0.49316 -0.43800
O 	O 	0.02004 0.61260 0.87420 -0.36300
O 	O 	0.87420 0.49316 0.02004 -0.41900
O 	O 	0.49316 0.87420 0.61260 -0.34700
O 	O 	0.49316 0.02004 0.87420 -0.34700
O 	O 	0.87420 0.61260 0.49316 -0.37400
O 	O 	0.02004 0.49316 0.61260 -0.43500
O 	O 	0.61260 0.87420 0.02004 -0.40600
O 	O 	0.87420 0.02004 0.61260 -0.39900
O 	O 	0.49316 0.61260 0.02004 -0.46200
O 	O 	0.61260 0.49316 0.87420 -0.30900
O 	O 	0.02004 0.87420 0.49316 -0.41900
O 	O 	0.02004 0.61260 0.49316 -0.46000
O 	O 	0.61260 0.02004 0.87420 -0.33800
O 	O 	0.49316 0.87420 0.02004 -0.41500
O 	O 	0.87420 0.49316 0.61260 -0.34900
O 	O 	0.02004 0.49316 0.87420 -0.35400
O 	O 	0.61260 0.87420 0.49316 -0.35400
O 	O 	0.49316 0.02004 0.61260 -0.42900
O 	O 	0.87420 0.61260 0.02004 -0.42700
O 	O 	0.02004 0.87420 0.61260 -0.40300
O 	O 	0.61260 0.49316 0.02004 -0.46100
O 	O 	0.49316 0.61260 0.87420 -0.31000
O 	O 	0.87420 0.02004 0.49316 -0.41700
O 	O 	0.38740 0.97996 0.50684 -0.35600
O 	O 	0.97996 0.38740 0.12580 -0.41000
O 	O 	0.12580 0.50684 0.97996 -0.35200
O 	O 	0.50684 0.12580 0.38740 -0.44700
O 	O 	0.50684 0.97996 0.12580 -0.39600
O 	O 	0.12580 0.38740 0.50684 -0.44400
O 	O 	0.97996 0.50684 0.38740 -0.38200
O 	O 	0.38740 0.12580 0.97996 -0.33700
O 	O 	0.12580 0.97996 0.38740 -0.41700
O 	O 	0.50684 0.38740 0.97996 -0.30900
O 	O 	0.38740 0.50684 0.12580 -0.46400
O 	O 	0.97996 0.12580 0.50684 -0.39800
