data_crystal

_cell_length_a 18.51370
_cell_length_b 18.51370
_cell_length_c 18.51370
_cell_angle_alpha 60.00000
_cell_angle_beta  60.00000
_cell_angle_gamma 60.00000

_symmetry_space_group_name_	'P 1'
_symmetry_space_group_name_H-M	'P 1'

loop_
_symmetry_equiv_pos_as_xyz
  x,y,z

loop_
_atom_site_label
_atom_site_type_symbol
_atom_site_fract_x
_atom_site_fract_y
_atom_site_fract_z
_atom_site_charge
Cu	Cu	-0.00000 0.42992 0.57008 0.81800
Cu	Cu	0.42992 0.00000 -0.00000 0.69100
Cu	Cu	0.57008 0.00000 -0.00000 0.70200
Cu	Cu	1.00000 0.57008 0.42992 0.99900
Cu	Cu	-0.00000 0.57008 -0.00000 0.72600
Cu	Cu	0.42992 0.00000 0.57008 0.80500
Cu	Cu	0.57008 0.00000 0.42992 0.80300
Cu	Cu	-0.00000 0.42992 -0.00000 0.71300
Cu	Cu	-0.00000 0.00000 0.42992 0.71300
Cu	Cu	0.42992 0.57008 -0.00000 0.80500
Cu	Cu	0.57008 0.42992 -0.00000 0.80300
Cu	Cu	-0.00000 0.00000 0.57008 0.72500
H 	H 	0.97030 0.27150 0.48670 0.05600
H 	H 	0.27150 0.97030 0.27150 0.04700
H 	H 	0.48670 0.27150 0.97030 0.06500
H 	H 	0.27150 0.48670 0.27150 0.00400
H 	H 	0.97030 0.48670 0.27150 0.05400
H 	H 	0.27150 0.27150 0.48670 0.00500
H 	H 	0.48670 0.97030 0.27150 0.06500
H 	H 	0.27150 0.27150 0.97030 0.04700
H 	H 	0.97030 0.27150 0.27150 0.03400
H 	H 	0.27150 0.48670 0.97030 0.06900
H 	H 	0.48670 0.27150 0.27150 0.00000
H 	H 	0.27150 0.97030 0.48670 0.07000
H 	H 	0.72850 0.02970 0.51330 0.01700
H 	H 	0.02970 0.72850 0.72850 0.05400
H 	H 	0.72850 0.51330 0.02970 0.01800
H 	H 	0.51330 0.72850 0.72850 0.08100
H 	H 	0.51330 0.02970 0.72850 0.02300
H 	H 	0.72850 0.72850 0.51330 0.07400
H 	H 	0.02970 0.51330 0.72850 0.02900
H 	H 	0.72850 0.72850 0.02970 0.04200
H 	H 	0.72850 0.02970 0.72850 0.04300
H 	H 	0.51330 0.72850 0.02970 0.02300
H 	H 	0.72850 0.51330 0.72850 0.07600
H 	H 	0.02970 0.72850 0.51330 0.02800
C 	C 	0.96760 0.30200 0.42840 0.07900
C 	C 	0.30200 0.96760 0.30200 0.07300
C 	C 	0.42840 0.30200 0.96760 0.07100
C 	C 	0.30200 0.42840 0.30200 0.10600
C 	C 	0.96760 0.42840 0.30200 0.08000
C 	C 	0.30200 0.30200 0.42840 0.10500
C 	C 	0.42840 0.96760 0.30200 0.07100
C 	C 	0.30200 0.30200 0.96760 0.07300
C 	C 	0.96760 0.30200 0.30200 0.08100
C 	C 	0.30200 0.42840 0.96760 0.07000
C 	C 	0.42840 0.30200 0.30200 0.10500
C 	C 	0.30200 0.96760 0.42840 0.07000
C 	C 	0.69800 0.03240 0.57160 0.08900
C 	C 	0.03240 0.69800 0.69800 0.08000
C 	C 	0.69800 0.57160 0.03240 0.08900
C 	C 	0.57160 0.69800 0.69800 0.06600
C 	C 	0.57160 0.03240 0.69800 0.08800
C 	C 	0.69800 0.69800 0.57160 0.06900
C 	C 	0.03240 0.57160 0.69800 0.08700
C 	C 	0.69800 0.69800 0.03240 0.08300
C 	C 	0.69800 0.03240 0.69800 0.08300
C 	C 	0.57160 0.69800 0.03240 0.08800
C 	C 	0.69800 0.57160 0.69800 0.06900
C 	C 	0.03240 0.69800 0.57160 0.08700
C 	C 	0.96520 0.38900 0.38900 -0.12000
C 	C 	0.97710 0.43050 0.43050 0.38600
C 	C 	0.38900 0.96520 0.25680 -0.11500
C 	C 	0.43050 0.97710 0.16190 0.37200
C 	C 	0.38900 0.25680 0.96520 -0.11500
C 	C 	0.43050 0.16190 0.97710 0.37200
C 	C 	0.25680 0.38900 0.38900 -0.19400
C 	C 	0.16190 0.43050 0.43050 0.40500
C 	C 	0.96520 0.38900 0.25680 -0.13300
C 	C 	0.97710 0.43050 0.16190 0.37800
C 	C 	0.38900 0.25680 0.38900 -0.19500
C 	C 	0.43050 0.16190 0.43050 0.39700
C 	C 	0.38900 0.96520 0.38900 -0.10000
C 	C 	0.43050 0.97710 0.43050 0.37300
C 	C 	0.25680 0.38900 0.96520 -0.11100
C 	C 	0.16190 0.43050 0.97710 0.37200
C 	C 	0.96520 0.25680 0.38900 -0.13200
C 	C 	0.97710 0.16190 0.43050 0.37800
C 	C 	0.38900 0.38900 0.96520 -0.09900
C 	C 	0.43050 0.43050 0.97710 0.37300
C 	C 	0.38900 0.38900 0.25680 -0.19500
C 	C 	0.43050 0.43050 0.16190 0.39700
C 	C 	0.25680 0.96520 0.38900 -0.11200
C 	C 	0.16190 0.97710 0.43050 0.37200
C 	C 	0.61100 0.03480 0.61100 -0.16900
C 	C 	0.56950 0.02290 0.56950 0.39300
C 	C 	0.03480 0.61100 0.74320 -0.13500
C 	C 	0.02290 0.56950 0.83810 0.37400
C 	C 	0.74320 0.61100 0.03480 -0.15100
C 	C 	0.83810 0.56950 0.02290 0.37800
C 	C 	0.61100 0.74320 0.61100 -0.08700
C 	C 	0.56950 0.83810 0.56950 0.37200
C 	C 	0.61100 0.03480 0.74320 -0.14600
C 	C 	0.56950 0.02290 0.83810 0.37400
C 	C 	0.74320 0.61100 0.61100 -0.09400
C 	C 	0.83810 0.56950 0.56950 0.38400
C 	C 	0.03480 0.61100 0.61100 -0.16000
C 	C 	0.02290 0.56950 0.56950 0.40000
C 	C 	0.61100 0.74320 0.03480 -0.14700
C 	C 	0.56950 0.83810 0.02290 0.37500
C 	C 	0.74320 0.03480 0.61100 -0.15100
C 	C 	0.83810 0.02290 0.56950 0.37800
C 	C 	0.61100 0.61100 0.03480 -0.16900
C 	C 	0.56950 0.56950 0.02290 0.39300
C 	C 	0.61100 0.61100 0.74320 -0.08600
C 	C 	0.56950 0.56950 0.83810 0.37200
C 	C 	0.03480 0.74320 0.61100 -0.13500
C 	C 	0.02290 0.83810 0.56950 0.37500
O 	O 	0.97910 0.38710 0.50750 -0.33600
O 	O 	0.38710 0.97910 0.12630 -0.35900
O 	O 	0.50750 0.12630 0.97910 -0.34400
O 	O 	0.12630 0.50750 0.38710 -0.50100
O 	O 	0.97910 0.50750 0.12630 -0.36900
O 	O 	0.38710 0.12630 0.50750 -0.47500
O 	O 	0.50750 0.97910 0.38710 -0.30600
O 	O 	0.12630 0.38710 0.97910 -0.35100
O 	O 	0.97910 0.12630 0.38710 -0.38700
O 	O 	0.38710 0.50750 0.97910 -0.30100
O 	O 	0.50750 0.38710 0.12630 -0.47900
O 	O 	0.12630 0.97910 0.50750 -0.33200
O 	O 	0.61290 0.02090 0.49250 -0.47000
O 	O 	0.02090 0.61290 0.87370 -0.34100
O 	O 	0.87370 0.49250 0.02090 -0.39600
O 	O 	0.49250 0.87370 0.61290 -0.29600
O 	O 	0.49250 0.02090 0.87370 -0.37300
O 	O 	0.87370 0.61290 0.49250 -0.35400
O 	O 	0.02090 0.49250 0.61290 -0.46100
O 	O 	0.61290 0.87370 0.02090 -0.35800
O 	O 	0.87370 0.02090 0.61290 -0.37600
O 	O 	0.49250 0.61290 0.02090 -0.46600
O 	O 	0.61290 0.49250 0.87370 -0.29900
O 	O 	0.02090 0.87370 0.49250 -0.36100
O 	O 	0.02090 0.61290 0.49250 -0.48800
O 	O 	0.61290 0.02090 0.87370 -0.35700
O 	O 	0.49250 0.87370 0.02090 -0.37300
O 	O 	0.87370 0.49250 0.61290 -0.32600
O 	O 	0.02090 0.49250 0.87370 -0.36000
O 	O 	0.61290 0.87370 0.49250 -0.30000
O 	O 	0.49250 0.02090 0.61290 -0.46600
O 	O 	0.87370 0.61290 0.02090 -0.37700
O 	O 	0.02090 0.87370 0.61290 -0.34100
O 	O 	0.61290 0.49250 0.02090 -0.47000
O 	O 	0.49250 0.61290 0.87370 -0.29500
O 	O 	0.87370 0.02090 0.49250 -0.39600
O 	O 	0.38710 0.97910 0.50750 -0.30100
O 	O 	0.97910 0.38710 0.12630 -0.38700
O 	O 	0.12630 0.50750 0.97910 -0.33200
O 	O 	0.50750 0.12630 0.38710 -0.47900
O 	O 	0.50750 0.97910 0.12630 -0.34500
O 	O 	0.12630 0.38710 0.50750 -0.47400
O 	O 	0.97910 0.50750 0.38710 -0.36400
O 	O 	0.38710 0.12630 0.97910 -0.35900
O 	O 	0.12630 0.97910 0.38710 -0.35100
O 	O 	0.50750 0.38710 0.97910 -0.30500
O 	O 	0.38710 0.50750 0.12630 -0.47600
O 	O 	0.97910 0.12630 0.50750 -0.36800
