data_crystal

_cell_length_a 18.60260
_cell_length_b 18.60260
_cell_length_c 18.60260
_cell_angle_alpha 60.00000
_cell_angle_beta  60.00000
_cell_angle_gamma 60.00000

_symmetry_space_group_name_	'P 1'
_symmetry_space_group_name_H-M	'P 1'

loop_
_symmetry_equiv_pos_as_xyz
  x,y,z

loop_
_atom_site_label
_atom_site_type_symbol
_atom_site_fract_x
_atom_site_fract_y
_atom_site_fract_z
_atom_site_charge
Cu	Cu	-0.00000 0.42992 0.57008 0.79900
Cu	Cu	0.42992 0.00000 -0.00000 0.68200
Cu	Cu	0.57008 0.00000 -0.00000 0.69500
Cu	Cu	-0.00000 0.57008 0.42992 0.80000
Cu	Cu	-0.00000 0.57008 -0.00000 0.69600
Cu	Cu	0.42992 0.00000 0.57008 0.80000
Cu	Cu	0.57008 0.00000 0.42992 0.80000
Cu	Cu	-0.00000 0.42992 -0.00000 0.68300
Cu	Cu	0.00000 0.00000 0.42992 0.68300
Cu	Cu	0.42992 0.57008 -0.00000 0.80000
Cu	Cu	0.57008 0.42992 -0.00000 0.80000
Cu	Cu	0.00000 0.00000 0.57008 0.69600
H 	H 	0.97280 0.27000 0.48720 0.07400
H 	H 	0.27000 0.97280 0.27000 0.05000
H 	H 	0.48720 0.27000 0.97280 0.07400
H 	H 	0.27000 0.48720 0.27000 0.00300
H 	H 	0.97280 0.48720 0.27000 0.07400
H 	H 	0.27000 0.27000 0.48720 0.00300
H 	H 	0.48720 0.97280 0.27000 0.07400
H 	H 	0.27000 0.27000 0.97280 0.05000
H 	H 	0.97280 0.27000 0.27000 0.05000
H 	H 	0.27000 0.48720 0.97280 0.07400
H 	H 	0.48720 0.27000 0.27000 0.00300
H 	H 	0.27000 0.97280 0.48720 0.07400
H 	H 	0.73000 0.02720 0.51280 0.02700
H 	H 	0.02720 0.73000 0.73000 0.05300
H 	H 	0.73000 0.51280 0.02720 0.02700
H 	H 	0.51280 0.73000 0.73000 0.09200
H 	H 	0.51280 0.02720 0.73000 0.02700
H 	H 	0.73000 0.73000 0.51280 0.09200
H 	H 	0.02720 0.51280 0.73000 0.02700
H 	H 	0.73000 0.73000 0.02720 0.05300
H 	H 	0.73000 0.02720 0.73000 0.05300
H 	H 	0.51280 0.73000 0.02720 0.02700
H 	H 	0.73000 0.51280 0.73000 0.09200
H 	H 	0.02720 0.73000 0.51280 0.02700
C 	C 	0.97118 0.30000 0.42882 0.04300
C 	C 	0.30000 0.97118 0.30000 0.04600
C 	C 	0.42882 0.30000 0.97118 0.04300
C 	C 	0.30000 0.42882 0.30000 0.08600
C 	C 	0.97118 0.42882 0.30000 0.04300
C 	C 	0.30000 0.30000 0.42882 0.08600
C 	C 	0.42882 0.97118 0.30000 0.04300
C 	C 	0.30000 0.30000 0.97118 0.04600
C 	C 	0.97118 0.30000 0.30000 0.04600
C 	C 	0.30000 0.42882 0.97118 0.04300
C 	C 	0.42882 0.30000 0.30000 0.08600
C 	C 	0.30000 0.97118 0.42882 0.04300
C 	C 	0.70000 0.02882 0.57118 0.06400
C 	C 	0.02882 0.70000 0.70000 0.05800
C 	C 	0.70000 0.57118 0.02882 0.06400
C 	C 	0.57118 0.70000 0.70000 0.03200
C 	C 	0.57118 0.02882 0.70000 0.06400
C 	C 	0.70000 0.70000 0.57118 0.03200
C 	C 	0.02882 0.57118 0.70000 0.06400
C 	C 	0.70000 0.70000 0.02882 0.05800
C 	C 	0.70000 0.02882 0.70000 0.05800
C 	C 	0.57118 0.70000 0.02882 0.06400
C 	C 	0.70000 0.57118 0.70000 0.03200
C 	C 	0.02882 0.70000 0.57118 0.06400
C 	C 	0.97048 0.38600 0.38600 -0.07000
C 	C 	0.97786 0.43010 0.43010 0.35100
C 	C 	0.38600 0.97048 0.25752 -0.08600
C 	C 	0.43010 0.97786 0.16194 0.35000
C 	C 	0.38600 0.25752 0.97048 -0.08600
C 	C 	0.43010 0.16194 0.97786 0.35000
C 	C 	0.25752 0.38600 0.38600 -0.17600
C 	C 	0.16194 0.43010 0.43010 0.37600
C 	C 	0.97048 0.38600 0.25752 -0.08600
C 	C 	0.97786 0.43010 0.16194 0.35000
C 	C 	0.38600 0.25752 0.38600 -0.17600
C 	C 	0.43010 0.16194 0.43010 0.37600
C 	C 	0.38600 0.97048 0.38600 -0.07000
C 	C 	0.43010 0.97786 0.43010 0.35100
C 	C 	0.25752 0.38600 0.97048 -0.08600
C 	C 	0.16194 0.43010 0.97786 0.35000
C 	C 	0.97048 0.25752 0.38600 -0.08600
C 	C 	0.97786 0.16194 0.43010 0.35000
C 	C 	0.38600 0.38600 0.97048 -0.07000
C 	C 	0.43010 0.43010 0.97786 0.35100
C 	C 	0.38600 0.38600 0.25752 -0.17600
C 	C 	0.43010 0.43010 0.16194 0.37600
C 	C 	0.25752 0.97048 0.38600 -0.08600
C 	C 	0.16194 0.97786 0.43010 0.35000
C 	C 	0.61400 0.02952 0.61400 -0.14200
C 	C 	0.56990 0.02214 0.56990 0.37100
C 	C 	0.02952 0.61400 0.74248 -0.11800
C 	C 	0.02214 0.56990 0.83806 0.35300
C 	C 	0.74248 0.61400 0.02952 -0.11800
C 	C 	0.83806 0.56990 0.02214 0.35300
C 	C 	0.61400 0.74248 0.61400 -0.04500
C 	C 	0.56990 0.83806 0.56990 0.34900
C 	C 	0.61400 0.02952 0.74248 -0.11800
C 	C 	0.56990 0.02214 0.83806 0.35300
C 	C 	0.74248 0.61400 0.61400 -0.04500
C 	C 	0.83806 0.56990 0.56990 0.34900
C 	C 	0.02952 0.61400 0.61400 -0.14200
C 	C 	0.02214 0.56990 0.56990 0.37100
C 	C 	0.61400 0.74248 0.02952 -0.11800
C 	C 	0.56990 0.83806 0.02214 0.35300
C 	C 	0.74248 0.02952 0.61400 -0.11800
C 	C 	0.83806 0.02214 0.56990 0.35300
C 	C 	0.61400 0.61400 0.02952 -0.14200
C 	C 	0.56990 0.56990 0.02214 0.37100
C 	C 	0.61400 0.61400 0.74248 -0.04500
C 	C 	0.56990 0.56990 0.83806 0.34900
C 	C 	0.02952 0.74248 0.61400 -0.11800
C 	C 	0.02214 0.83806 0.56990 0.35300
O 	O 	0.98012 0.38720 0.50712 -0.29300
O 	O 	0.38720 0.98012 0.12556 -0.35300
O 	O 	0.50712 0.12556 0.98012 -0.33400
O 	O 	0.12556 0.50712 0.38720 -0.47400
O 	O 	0.98012 0.50712 0.12556 -0.33400
O 	O 	0.38720 0.12556 0.50712 -0.47400
O 	O 	0.50712 0.98012 0.38720 -0.29300
O 	O 	0.12556 0.38720 0.98012 -0.35300
O 	O 	0.98012 0.12556 0.38720 -0.35300
O 	O 	0.38720 0.50712 0.98012 -0.29300
O 	O 	0.50712 0.38720 0.12556 -0.47400
O 	O 	0.12556 0.98012 0.50712 -0.33400
O 	O 	0.61280 0.01988 0.49288 -0.46300
O 	O 	0.01988 0.61280 0.87444 -0.34600
O 	O 	0.87444 0.49288 0.01988 -0.36600
O 	O 	0.49288 0.87444 0.61280 -0.28400
O 	O 	0.49288 0.01988 0.87444 -0.36600
O 	O 	0.87444 0.61280 0.49288 -0.28400
O 	O 	0.01988 0.49288 0.61280 -0.46300
O 	O 	0.61280 0.87444 0.01988 -0.34600
O 	O 	0.87444 0.01988 0.61280 -0.34600
O 	O 	0.49288 0.61280 0.01988 -0.46300
O 	O 	0.61280 0.49288 0.87444 -0.28400
O 	O 	0.01988 0.87444 0.49288 -0.36600
O 	O 	0.01988 0.61280 0.49288 -0.46300
O 	O 	0.61280 0.01988 0.87444 -0.34600
O 	O 	0.49288 0.87444 0.01988 -0.36600
O 	O 	0.87444 0.49288 0.61280 -0.28400
O 	O 	0.01988 0.49288 0.87444 -0.36600
O 	O 	0.61280 0.87444 0.49288 -0.28400
O 	O 	0.49288 0.01988 0.61280 -0.46300
O 	O 	0.87444 0.61280 0.01988 -0.34600
O 	O 	0.01988 0.87444 0.61280 -0.34600
O 	O 	0.61280 0.49288 0.01988 -0.46300
O 	O 	0.49288 0.61280 0.87444 -0.28400
O 	O 	0.87444 0.01988 0.49288 -0.36600
O 	O 	0.38720 0.98012 0.50712 -0.29300
O 	O 	0.98012 0.38720 0.12556 -0.35300
O 	O 	0.12556 0.50712 0.98012 -0.33400
O 	O 	0.50712 0.12556 0.38720 -0.47400
O 	O 	0.50712 0.98012 0.12556 -0.33400
O 	O 	0.12556 0.38720 0.50712 -0.47400
O 	O 	0.98012 0.50712 0.38720 -0.29300
O 	O 	0.38720 0.12556 0.98012 -0.35300
O 	O 	0.12556 0.98012 0.38720 -0.35300
O 	O 	0.50712 0.38720 0.98012 -0.29300
O 	O 	0.38720 0.50712 0.12556 -0.47400
O 	O 	0.98012 0.12556 0.50712 -0.33400
