data_crystal

_cell_length_a 18.56610
_cell_length_b 18.56610
_cell_length_c 18.56610
_cell_angle_alpha 60.00000
_cell_angle_beta  60.00000
_cell_angle_gamma 60.00000

_symmetry_space_group_name_	'P 1'
_symmetry_space_group_name_H-M	'P 1'

loop_
_symmetry_equiv_pos_as_xyz
  x,y,z

loop_
_atom_site_label
_atom_site_type_symbol
_atom_site_fract_x
_atom_site_fract_y
_atom_site_fract_z
_atom_site_charge
Cu	Cu	-0.00000 0.43010 0.56990 0.81700
Cu	Cu	0.43010 0.00000 -0.00000 0.69200
Cu	Cu	0.56990 0.00000 -0.00000 0.70200
Cu	Cu	1.00000 0.56990 0.43010 0.99500
Cu	Cu	0.00000 0.56990 -0.00000 0.72600
Cu	Cu	0.43010 -0.00000 0.56990 0.80500
Cu	Cu	0.56990 -0.00000 0.43010 0.80200
Cu	Cu	0.00000 0.43010 -0.00000 0.71300
Cu	Cu	0.00000 -0.00000 0.43010 0.71300
Cu	Cu	0.43010 0.56990 -0.00000 0.80400
Cu	Cu	0.56990 0.43010 -0.00000 0.80200
Cu	Cu	0.00000 -0.00000 0.56990 0.72500
H 	H 	0.97220 0.27040 0.48700 0.05700
H 	H 	0.27040 0.97220 0.27040 0.04900
H 	H 	0.48700 0.27040 0.97220 0.06700
H 	H 	0.27040 0.48700 0.27040 0.00400
H 	H 	0.97220 0.48700 0.27040 0.05600
H 	H 	0.27040 0.27040 0.48700 0.00500
H 	H 	0.48700 0.97220 0.27040 0.06700
H 	H 	0.27040 0.27040 0.97220 0.04900
H 	H 	0.97220 0.27040 0.27040 0.03500
H 	H 	0.27040 0.48700 0.97220 0.07100
H 	H 	0.48700 0.27040 0.27040 0.00000
H 	H 	0.27040 0.97220 0.48700 0.07200
H 	H 	0.72960 0.02780 0.51300 0.01800
H 	H 	0.02780 0.72960 0.72960 0.05600
H 	H 	0.72960 0.51300 0.02780 0.01800
H 	H 	0.51300 0.72960 0.72960 0.08300
H 	H 	0.51300 0.02780 0.72960 0.02400
H 	H 	0.72960 0.72960 0.51300 0.07700
H 	H 	0.02780 0.51300 0.72960 0.03000
H 	H 	0.72960 0.72960 0.02780 0.04300
H 	H 	0.72960 0.02780 0.72960 0.04400
H 	H 	0.51300 0.72960 0.02780 0.02300
H 	H 	0.72960 0.51300 0.72960 0.07800
H 	H 	0.02780 0.72960 0.51300 0.02900
C 	C 	0.97040 0.30040 0.42880 0.07000
C 	C 	0.30040 0.97040 0.30040 0.06300
C 	C 	0.42880 0.30040 0.97040 0.06100
C 	C 	0.30040 0.42880 0.30040 0.09900
C 	C 	0.97040 0.42880 0.30040 0.07100
C 	C 	0.30040 0.30040 0.42880 0.09900
C 	C 	0.42880 0.97040 0.30040 0.06100
C 	C 	0.30040 0.30040 0.97040 0.06300
C 	C 	0.97040 0.30040 0.30040 0.07200
C 	C 	0.30040 0.42880 0.97040 0.06000
C 	C 	0.42880 0.30040 0.30040 0.09800
C 	C 	0.30040 0.97040 0.42880 0.06000
C 	C 	0.69960 0.02960 0.57120 0.08100
C 	C 	0.02960 0.69960 0.69960 0.07100
C 	C 	0.69960 0.57120 0.02960 0.08100
C 	C 	0.57120 0.69960 0.69960 0.05600
C 	C 	0.57120 0.02960 0.69960 0.08000
C 	C 	0.69960 0.69960 0.57120 0.05800
C 	C 	0.02960 0.57120 0.69960 0.07800
C 	C 	0.69960 0.69960 0.02960 0.07500
C 	C 	0.69960 0.02960 0.69960 0.07500
C 	C 	0.57120 0.69960 0.02960 0.08000
C 	C 	0.69960 0.57120 0.69960 0.05800
C 	C 	0.02960 0.69960 0.57120 0.07800
C 	C 	0.96852 0.38700 0.38700 -0.10900
C 	C 	0.97860 0.42960 0.42960 0.38100
C 	C 	0.38700 0.96852 0.25748 -0.10400
C 	C 	0.42960 0.97860 0.16220 0.36700
C 	C 	0.38700 0.25748 0.96852 -0.10400
C 	C 	0.42960 0.16220 0.97860 0.36700
C 	C 	0.25748 0.38700 0.38700 -0.18600
C 	C 	0.16220 0.42960 0.42960 0.39900
C 	C 	0.96852 0.38700 0.25748 -0.12200
C 	C 	0.97860 0.42960 0.16220 0.37200
C 	C 	0.38700 0.25748 0.38700 -0.18700
C 	C 	0.42960 0.16220 0.42960 0.39100
C 	C 	0.38700 0.96852 0.38700 -0.08800
C 	C 	0.42960 0.97860 0.42960 0.36800
C 	C 	0.25748 0.38700 0.96852 -0.10000
C 	C 	0.16220 0.42960 0.97860 0.36700
C 	C 	0.96852 0.25748 0.38700 -0.12200
C 	C 	0.97860 0.16220 0.42960 0.37200
C 	C 	0.38700 0.38700 0.96852 -0.08800
C 	C 	0.42960 0.42960 0.97860 0.36800
C 	C 	0.38700 0.38700 0.25748 -0.18700
C 	C 	0.42960 0.42960 0.16220 0.39200
C 	C 	0.25748 0.96852 0.38700 -0.10100
C 	C 	0.16220 0.97860 0.42960 0.36700
C 	C 	0.61300 0.03148 0.61300 -0.16000
C 	C 	0.57040 0.02140 0.57040 0.38700
C 	C 	0.03148 0.61300 0.74252 -0.12500
C 	C 	0.02140 0.57040 0.83780 0.36900
C 	C 	0.74252 0.61300 0.03148 -0.14200
C 	C 	0.83780 0.57040 0.02140 0.37300
C 	C 	0.61300 0.74252 0.61300 -0.07500
C 	C 	0.57040 0.83780 0.57040 0.36700
C 	C 	0.61300 0.03148 0.74252 -0.13700
C 	C 	0.57040 0.02140 0.83780 0.36900
C 	C 	0.74252 0.61300 0.61300 -0.08200
C 	C 	0.83780 0.57040 0.57040 0.37800
C 	C 	0.03148 0.61300 0.61300 -0.15000
C 	C 	0.02140 0.57040 0.57040 0.39500
C 	C 	0.61300 0.74252 0.03148 -0.13700
C 	C 	0.57040 0.83780 0.02140 0.36900
C 	C 	0.74252 0.03148 0.61300 -0.14200
C 	C 	0.83780 0.02140 0.57040 0.37300
C 	C 	0.61300 0.61300 0.03148 -0.16000
C 	C 	0.57040 0.57040 0.02140 0.38700
C 	C 	0.61300 0.61300 0.74252 -0.07400
C 	C 	0.57040 0.57040 0.83780 0.36700
C 	C 	0.03148 0.74252 0.61300 -0.12500
C 	C 	0.02140 0.83780 0.57040 0.36900
O 	O 	0.97998 0.38714 0.50664 -0.33500
O 	O 	0.38714 0.97998 0.12624 -0.35800
O 	O 	0.50664 0.12624 0.97998 -0.34300
O 	O 	0.12624 0.50664 0.38714 -0.49800
O 	O 	0.97998 0.50664 0.12624 -0.36800
O 	O 	0.38714 0.12624 0.50664 -0.47300
O 	O 	0.50664 0.97998 0.38714 -0.30400
O 	O 	0.12624 0.38714 0.97998 -0.34900
O 	O 	0.97998 0.12624 0.38714 -0.38500
O 	O 	0.38714 0.50664 0.97998 -0.30000
O 	O 	0.50664 0.38714 0.12624 -0.47700
O 	O 	0.12624 0.97998 0.50664 -0.33100
O 	O 	0.61286 0.02002 0.49336 -0.46800
O 	O 	0.02002 0.61286 0.87376 -0.34000
O 	O 	0.87376 0.49336 0.02002 -0.39400
O 	O 	0.49336 0.87376 0.61286 -0.29500
O 	O 	0.49336 0.02002 0.87376 -0.37100
O 	O 	0.87376 0.61286 0.49336 -0.35200
O 	O 	0.02002 0.49336 0.61286 -0.45900
O 	O 	0.61286 0.87376 0.02002 -0.35600
O 	O 	0.87376 0.02002 0.61286 -0.37500
O 	O 	0.49336 0.61286 0.02002 -0.46400
O 	O 	0.61286 0.49336 0.87376 -0.29800
O 	O 	0.02002 0.87376 0.49336 -0.35900
O 	O 	0.02002 0.61286 0.49336 -0.48600
O 	O 	0.61286 0.02002 0.87376 -0.35600
O 	O 	0.49336 0.87376 0.02002 -0.37100
O 	O 	0.87376 0.49336 0.61286 -0.32500
O 	O 	0.02002 0.49336 0.87376 -0.35900
O 	O 	0.61286 0.87376 0.49336 -0.29900
O 	O 	0.49336 0.02002 0.61286 -0.46400
O 	O 	0.87376 0.61286 0.02002 -0.37600
O 	O 	0.02002 0.87376 0.61286 -0.34000
O 	O 	0.61286 0.49336 0.02002 -0.46800
O 	O 	0.49336 0.61286 0.87376 -0.29400
O 	O 	0.87376 0.02002 0.49336 -0.39400
O 	O 	0.38714 0.97998 0.50664 -0.30000
O 	O 	0.97998 0.38714 0.12624 -0.38500
O 	O 	0.12624 0.50664 0.97998 -0.33100
O 	O 	0.50664 0.12624 0.38714 -0.47700
O 	O 	0.50664 0.97998 0.12624 -0.34400
O 	O 	0.12624 0.38714 0.50664 -0.47100
O 	O 	0.97998 0.50664 0.38714 -0.36200
O 	O 	0.38714 0.12624 0.97998 -0.35800
O 	O 	0.12624 0.97998 0.38714 -0.34900
O 	O 	0.50664 0.38714 0.97998 -0.30400
O 	O 	0.38714 0.50664 0.12624 -0.47400
O 	O 	0.97998 0.12624 0.50664 -0.36700
