data_crystal

_cell_length_a 18.98200
_cell_length_b 18.98200
_cell_length_c 7.91370
_cell_angle_alpha 90.00000
_cell_angle_beta  90.00000
_cell_angle_gamma 120.00000

_symmetry_space_group_name_	'P 1'
_symmetry_space_group_name_H-M	'P 1'

loop_
_symmetry_equiv_pos_as_xyz
  x,y,z

loop_
_atom_site_label
_atom_site_type_symbol
_atom_site_fract_x
_atom_site_fract_y
_atom_site_fract_z
_atom_site_charge
N 	N 	0.25973 0.56021 0.49380 -0.24600
N 	N 	0.19590 0.43570 0.39230 -0.11100
N 	N 	0.07791 0.10571 0.15800 -0.25300
N 	N 	0.14650 0.22940 0.25860 -0.11600
N 	N 	0.22591 0.63293 0.81060 -0.24600
N 	N 	0.09954 0.57420 0.90350 -0.07600
C 	C 	0.24730 0.48730 0.51110 0.09200
H 	H 	0.27090 0.47190 0.59550 -0.00600
C 	C 	0.21440 0.55590 0.35420 0.00100
H 	H 	0.21030 0.59930 0.31130 0.01600
C 	C 	0.17720 0.48100 0.28860 -0.01100
H 	H 	0.14510 0.46350 0.19190 0.03300
C 	C 	0.09430 0.18100 0.13830 0.08300
H 	H 	0.07300 0.19860 0.05320 -0.01500
C 	C 	0.12050 0.10730 0.29710 0.00600
H 	H 	0.12160 0.06230 0.34030 0.00700
C 	C 	0.16090 0.18210 0.36440 -0.01500
H 	H 	0.19200 0.19800 0.46250 0.03700
C 	C 	0.15270 0.34510 0.39730 -0.19300
C 	C 	0.21520 0.36810 0.30630 0.17500
C 	C 	0.19070 0.32140 0.25580 -0.16500
C 	C 	0.13230 0.30030 0.35710 0.20400
C 	C 	0.15190 0.57160 0.79170 0.08100
H 	H 	0.13720 0.53110 0.71090 -0.00600
C 	C 	0.22160 0.67720 0.94320 0.06100
H 	H 	0.26520 0.72440 0.98640 0.00600
C 	C 	0.14420 0.64170 0.00160 -0.08600
H 	H 	0.12530 0.65960 0.09070 0.05800
C 	C 	0.01290 0.51850 0.91420 -0.20600
H 	H 	0.99760 0.47560 0.83150 0.11100
H 	H 	0.98430 0.54740 0.88660 0.11500
N 	N 	0.43979 0.69952 0.49380 -0.24500
N 	N 	0.56430 0.76020 0.39230 -0.10900
N 	N 	0.89429 0.97220 0.15800 -0.22600
N 	N 	0.77060 0.91710 0.25860 -0.12100
N 	N 	0.36707 0.59298 0.81060 -0.24600
N 	N 	0.42580 0.52534 0.90350 -0.10100
C 	C 	0.51270 0.76000 0.51110 0.09300
H 	H 	0.52810 0.79900 0.59550 -0.00500
C 	C 	0.44410 0.65850 0.35420 0.00100
H 	H 	0.40070 0.61100 0.31130 0.01600
C 	C 	0.51900 0.69620 0.28860 -0.01000
H 	H 	0.53650 0.68160 0.19190 0.03300
C 	C 	0.81900 0.91330 0.13830 0.09000
H 	H 	0.80140 0.87440 0.05320 -0.01000
C 	C 	0.89270 0.01320 0.29710 -0.04500
H 	H 	0.93770 0.05930 0.34030 0.03500
C 	C 	0.81790 0.97880 0.36440 0.03200
H 	H 	0.80200 0.99400 0.46250 0.02700
C 	C 	0.65490 0.80760 0.39730 -0.19200
C 	C 	0.63190 0.84710 0.30630 0.17200
C 	C 	0.67860 0.86930 0.25580 -0.15900
C 	C 	0.69970 0.83200 0.35710 0.20900
C 	C 	0.42840 0.58030 0.79170 0.09200
H 	H 	0.46890 0.60610 0.71090 -0.00700
C 	C 	0.32280 0.54440 0.94320 0.05500
H 	H 	0.27560 0.54080 0.98640 0.00800
C 	C 	0.35830 0.50250 0.00160 -0.07400
H 	H 	0.34040 0.46570 0.09070 0.05300
C 	C 	0.48150 0.49440 0.91420 -0.03000
H 	H 	0.52440 0.52200 0.83150 0.04700
H 	H 	0.45260 0.43690 0.88660 0.05200
N 	N 	0.30048 0.74027 0.49380 -0.24500
N 	N 	0.23980 0.80410 0.39230 -0.11100
N 	N 	0.02780 0.92209 0.15800 -0.25900
N 	N 	0.08290 0.85350 0.25860 -0.11000
N 	N 	0.40702 0.77409 0.81060 -0.24700
N 	N 	0.47466 0.90046 0.90350 -0.12600
C 	C 	0.24000 0.75270 0.51110 0.09500
H 	H 	0.20100 0.72910 0.59550 -0.00800
C 	C 	0.34150 0.78560 0.35420 0.00100
H 	H 	0.38900 0.78970 0.31130 0.01600
C 	C 	0.30380 0.82280 0.28860 -0.00800
H 	H 	0.31840 0.85490 0.19190 0.03100
C 	C 	0.08670 0.90570 0.13830 0.08600
H 	H 	0.12560 0.92700 0.05320 -0.00700
C 	C 	0.98680 0.87950 0.29710 0.06700
H 	H 	0.94070 0.87840 0.34030 -0.00000
C 	C 	0.02120 0.83910 0.36440 -0.05500
H 	H 	0.00600 0.80800 0.46250 0.04700
C 	C 	0.19240 0.84730 0.39730 -0.16700
C 	C 	0.15290 0.78480 0.30630 0.15300
C 	C 	0.13070 0.80930 0.25580 -0.14800
C 	C 	0.16800 0.86770 0.35710 0.19000
C 	C 	0.41970 0.84810 0.79170 0.10200
H 	H 	0.39390 0.86280 0.71090 -0.00800
C 	C 	0.45560 0.77840 0.94320 0.04800
H 	H 	0.45920 0.73480 0.98640 0.01000
C 	C 	0.49750 0.85580 0.00160 -0.06000
H 	H 	0.53430 0.87470 0.09070 0.04900
C 	C 	0.50560 0.98710 0.91420 0.13300
H 	H 	0.47800 0.00240 0.83150 -0.01200
H 	H 	0.56310 0.01570 0.88660 -0.00600
N 	N 	0.74027 0.43979 0.50620 -0.24500
N 	N 	0.80410 0.56430 0.60770 -0.10800
N 	N 	0.92209 0.89429 0.84200 -0.23100
N 	N 	0.85350 0.77060 0.74140 -0.11500
N 	N 	0.77409 0.36707 0.18940 -0.23400
N 	N 	0.90046 0.42580 0.09650 -0.15500
C 	C 	0.75270 0.51270 0.48890 0.09500
H 	H 	0.72910 0.52810 0.40450 -0.00900
C 	C 	0.78560 0.44410 0.64580 0.00400
H 	H 	0.78970 0.40070 0.68870 0.02000
C 	C 	0.82280 0.51900 0.71140 -0.00700
H 	H 	0.85490 0.53650 0.80810 0.04000
C 	C 	0.90570 0.81900 0.86170 0.09500
H 	H 	0.92700 0.80140 0.94680 0.00600
C 	C 	0.87950 0.89270 0.70290 0.01200
H 	H 	0.87840 0.93770 0.65970 0.02200
C 	C 	0.83910 0.81790 0.63560 -0.00500
H 	H 	0.80800 0.80200 0.53750 0.03600
C 	C 	0.84730 0.65490 0.60270 -0.18200
C 	C 	0.78480 0.63190 0.69370 0.16300
C 	C 	0.80930 0.67860 0.74420 -0.14300
C 	C 	0.86770 0.69970 0.64290 0.20200
C 	C 	0.84810 0.42840 0.20830 0.09500
H 	H 	0.86280 0.46890 0.28910 -0.00800
C 	C 	0.77840 0.32280 0.05680 -0.05100
H 	H 	0.73480 0.27560 0.01360 0.03100
C 	C 	0.85580 0.35830 0.99840 0.06500
H 	H 	0.87470 0.34040 0.90930 0.01500
C 	C 	0.98710 0.48150 0.08580 0.09300
H 	H 	0.00240 0.52440 0.16850 -0.00800
H 	H 	0.01570 0.45260 0.11340 -0.00800
N 	N 	0.56021 0.30048 0.50620 -0.24500
N 	N 	0.43570 0.23980 0.60770 -0.10900
N 	N 	0.10571 0.02780 0.84200 -0.25700
N 	N 	0.22940 0.08290 0.74140 -0.10800
N 	N 	0.63293 0.40702 0.18940 -0.23300
N 	N 	0.57420 0.47466 0.09650 -0.13000
C 	C 	0.48730 0.24000 0.48890 0.09400
H 	H 	0.47190 0.20100 0.40450 -0.01000
C 	C 	0.55590 0.34150 0.64580 0.00400
H 	H 	0.59930 0.38900 0.68870 0.02000
C 	C 	0.48100 0.30380 0.71140 -0.00800
H 	H 	0.46350 0.31840 0.80810 0.04100
C 	C 	0.18100 0.08670 0.86170 0.08800
H 	H 	0.19860 0.12560 0.94680 0.00300
C 	C 	0.10730 0.98680 0.70290 0.07200
H 	H 	0.06230 0.94070 0.65970 -0.00600
C 	C 	0.18210 0.02120 0.63560 -0.05800
H 	H 	0.19800 0.00600 0.53750 0.04700
C 	C 	0.34510 0.19240 0.60270 -0.18200
C 	C 	0.36810 0.15290 0.69370 0.16400
C 	C 	0.32140 0.13070 0.74420 -0.14700
C 	C 	0.30030 0.16800 0.64290 0.19700
C 	C 	0.57160 0.41970 0.20830 0.08300
H 	H 	0.53110 0.39390 0.28910 -0.00700
C 	C 	0.67720 0.45560 0.05680 -0.04700
H 	H 	0.72440 0.45920 0.01360 0.02900
C 	C 	0.64170 0.49750 0.99840 0.05600
H 	H 	0.65960 0.53430 0.90930 0.01900
C 	C 	0.51850 0.50560 0.08580 -0.09000
H 	H 	0.47560 0.47800 0.16850 0.05900
H 	H 	0.54740 0.56310 0.11340 0.05900
N 	N 	0.69952 0.25973 0.50620 -0.24500
N 	N 	0.76020 0.19590 0.60770 -0.10700
N 	N 	0.97220 0.07791 0.84200 -0.21900
N 	N 	0.91710 0.14650 0.74140 -0.12100
N 	N 	0.59298 0.22591 0.18940 -0.23100
N 	N 	0.52534 0.09954 0.09650 -0.10700
C 	C 	0.76000 0.24730 0.48890 0.09200
H 	H 	0.79900 0.27090 0.40450 -0.00700
C 	C 	0.65850 0.21440 0.64580 0.00500
H 	H 	0.61100 0.21030 0.68870 0.02000
C 	C 	0.69620 0.17720 0.71140 -0.01000
H 	H 	0.68160 0.14510 0.80810 0.04300
C 	C 	0.91330 0.09430 0.86170 0.09300
H 	H 	0.87440 0.07300 0.94680 -0.00000
C 	C 	0.01320 0.12050 0.70290 -0.05500
H 	H 	0.05930 0.12160 0.65970 0.03300
C 	C 	0.97880 0.16090 0.63560 0.04200
H 	H 	0.99400 0.19200 0.53750 0.02400
C 	C 	0.80760 0.15270 0.60270 -0.20600
C 	C 	0.84710 0.21520 0.69370 0.18300
C 	C 	0.86930 0.19070 0.74420 -0.15800
C 	C 	0.83200 0.13230 0.64290 0.21600
C 	C 	0.58030 0.15190 0.20830 0.07300
H 	H 	0.60610 0.13720 0.28910 -0.00500
C 	C 	0.54440 0.22160 0.05680 -0.04600
H 	H 	0.54080 0.26520 0.01360 0.02800
C 	C 	0.50250 0.14420 0.99840 0.04800
H 	H 	0.46570 0.12530 0.90930 0.02200
C 	C 	0.49440 0.01290 0.08580 -0.25900
H 	H 	0.52200 0.99760 0.16850 0.12200
H 	H 	0.43690 0.98430 0.11340 0.12100
Zn	Zn	0.33333 0.66667 0.65082 1.17600
Zn	Zn	0.66667 0.33333 0.34918 1.17500
Zn	Zn	-0.00000 0.00000 -0.00000 1.15600
