data_crystal

_cell_length_a 18.59800
_cell_length_b 18.59800
_cell_length_c 18.59800
_cell_angle_alpha 60.00000
_cell_angle_beta  60.00000
_cell_angle_gamma 60.00000

_symmetry_space_group_name_	'P 1'
_symmetry_space_group_name_H-M	'P 1'

loop_
_symmetry_equiv_pos_as_xyz
  x,y,z

loop_
_atom_site_label
_atom_site_type_symbol
_atom_site_fract_x
_atom_site_fract_y
_atom_site_fract_z
_atom_site_charge
Cu	Cu	0.57052 0.42948 -0.00000 0.80700
Cu	Cu	0.42948 0.57052 -0.00000 0.81200
Cu	Cu	-0.00000 -0.00000 0.57052 0.75700
Cu	Cu	-0.00000 0.00000 0.42948 0.74400
Cu	Cu	0.57052 0.00000 -0.00000 0.71100
Cu	Cu	0.42948 0.00000 -0.00000 0.70400
Cu	Cu	1.00000 0.57052 0.42948 0.96300
Cu	Cu	1.00000 0.42948 0.57052 0.96300
Cu	Cu	0.57052 0.00000 0.42948 0.80600
Cu	Cu	0.42948 -0.00000 0.57052 0.81100
Cu	Cu	0.00000 0.42948 -0.00000 0.74400
Cu	Cu	-0.00000 0.57052 -0.00000 0.75600
H 	H 	0.27120 0.48940 0.96820 0.07800
H 	H 	0.48940 0.27120 0.27120 0.00800
H 	H 	0.96820 0.27120 0.27120 0.03100
H 	H 	0.27120 0.96820 0.48940 0.07800
H 	H 	0.27120 0.96820 0.27120 0.05700
H 	H 	0.48940 0.27120 0.96820 0.06900
H 	H 	0.96820 0.27120 0.48940 0.05000
H 	H 	0.27120 0.48940 0.27120 0.01600
H 	H 	0.27120 0.27120 0.48940 0.01600
H 	H 	0.48940 0.96820 0.27120 0.06900
H 	H 	0.96820 0.48940 0.27120 0.05000
H 	H 	0.27120 0.27120 0.96820 0.05700
H 	H 	0.51060 0.72880 0.03180 0.03000
H 	H 	0.72880 0.51060 0.72880 0.07400
H 	H 	0.72880 0.03180 0.72880 0.04300
H 	H 	0.03180 0.72880 0.51060 0.04300
H 	H 	0.03180 0.72880 0.72880 0.06800
H 	H 	0.72880 0.51060 0.03180 0.02000
H 	H 	0.72880 0.03180 0.51060 0.02000
H 	H 	0.51060 0.72880 0.72880 0.08500
H 	H 	0.72880 0.72880 0.51060 0.07400
H 	H 	0.03180 0.51060 0.72880 0.04300
H 	H 	0.51060 0.03180 0.72880 0.03000
H 	H 	0.72880 0.72880 0.03180 0.04300
C 	C 	0.30058 0.43028 0.96856 0.04300
C 	C 	0.43028 0.30058 0.30058 0.07900
C 	C 	0.96856 0.30058 0.30058 0.06100
C 	C 	0.30058 0.96856 0.43028 0.04300
C 	C 	0.30058 0.96856 0.30058 0.04500
C 	C 	0.43028 0.30058 0.96856 0.04400
C 	C 	0.96856 0.30058 0.43028 0.06100
C 	C 	0.30058 0.43028 0.30058 0.08000
C 	C 	0.30058 0.30058 0.43028 0.08000
C 	C 	0.43028 0.96856 0.30058 0.04400
C 	C 	0.96856 0.43028 0.30058 0.06100
C 	C 	0.30058 0.30058 0.96856 0.04500
C 	C 	0.56972 0.69942 0.03144 0.06400
C 	C 	0.69942 0.56972 0.69942 0.04500
C 	C 	0.69942 0.03144 0.69942 0.06100
C 	C 	0.03144 0.69942 0.56972 0.05800
C 	C 	0.03144 0.69942 0.69942 0.05200
C 	C 	0.69942 0.56972 0.03144 0.06600
C 	C 	0.69942 0.03144 0.56972 0.06600
C 	C 	0.56972 0.69942 0.69942 0.04100
C 	C 	0.69942 0.69942 0.56972 0.04500
C 	C 	0.03144 0.56972 0.69942 0.05800
C 	C 	0.56972 0.03144 0.69942 0.06400
C 	C 	0.69942 0.69942 0.03144 0.06100
C 	C 	0.38687 0.38687 0.96887 -0.07000
C 	C 	0.43099 0.43099 0.97599 0.35600
C 	C 	0.38687 0.38687 0.25739 -0.16500
C 	C 	0.43099 0.43099 0.16203 0.38100
C 	C 	0.96887 0.25739 0.38687 -0.12000
C 	C 	0.97599 0.16203 0.43099 0.36700
C 	C 	0.25739 0.96887 0.38687 -0.07800
C 	C 	0.16203 0.97599 0.43099 0.35600
C 	C 	0.38687 0.96887 0.25739 -0.08500
C 	C 	0.43099 0.97599 0.16203 0.35600
C 	C 	0.38687 0.25739 0.96887 -0.08500
C 	C 	0.43099 0.16203 0.97599 0.35600
C 	C 	0.96887 0.38687 0.38687 -0.10900
C 	C 	0.97599 0.43099 0.43099 0.37700
C 	C 	0.25739 0.38687 0.38687 -0.16200
C 	C 	0.16203 0.43099 0.43099 0.39000
C 	C 	0.38687 0.25739 0.38687 -0.16500
C 	C 	0.43099 0.16203 0.43099 0.38100
C 	C 	0.38687 0.96887 0.38687 -0.07000
C 	C 	0.43099 0.97599 0.43099 0.35600
C 	C 	0.96887 0.38687 0.25739 -0.12000
C 	C 	0.97599 0.43099 0.16203 0.36700
C 	C 	0.25739 0.38687 0.96887 -0.07800
C 	C 	0.16203 0.43099 0.97599 0.35600
C 	C 	0.61313 0.61313 0.03113 -0.14500
C 	C 	0.56901 0.56901 0.02401 0.37700
C 	C 	0.61313 0.61313 0.74261 -0.06200
C 	C 	0.56901 0.56901 0.83797 0.35600
C 	C 	0.74261 0.03113 0.61313 -0.13300
C 	C 	0.83797 0.02401 0.56901 0.36700
C 	C 	0.03113 0.74261 0.61313 -0.09700
C 	C 	0.02401 0.83797 0.56901 0.35800
C 	C 	0.03113 0.61313 0.74261 -0.09700
C 	C 	0.02401 0.56901 0.83797 0.35800
C 	C 	0.74261 0.61313 0.03113 -0.13300
C 	C 	0.83797 0.56901 0.02401 0.36700
C 	C 	0.61313 0.03113 0.61313 -0.14500
C 	C 	0.56901 0.02401 0.56901 0.37700
C 	C 	0.61313 0.74261 0.61313 -0.06200
C 	C 	0.56901 0.83797 0.56901 0.35600
C 	C 	0.74261 0.61313 0.61313 -0.07500
C 	C 	0.83797 0.56901 0.56901 0.37300
C 	C 	0.03113 0.61313 0.61313 -0.12200
C 	C 	0.02401 0.56901 0.56901 0.38500
C 	C 	0.61313 0.03113 0.74261 -0.12300
C 	C 	0.56901 0.02401 0.83797 0.36000
C 	C 	0.61313 0.74261 0.03113 -0.12300
C 	C 	0.56901 0.83797 0.02401 0.36000
O 	O 	0.50759 0.38759 0.97867 -0.30800
O 	O 	0.38759 0.50759 0.12615 -0.46400
O 	O 	0.97867 0.12615 0.50759 -0.39200
O 	O 	0.12615 0.97867 0.38759 -0.33800
O 	O 	0.50759 0.97867 0.12615 -0.34500
O 	O 	0.38759 0.12615 0.97867 -0.35500
O 	O 	0.97867 0.50759 0.38759 -0.38300
O 	O 	0.12615 0.38759 0.50759 -0.47500
O 	O 	0.50759 0.12615 0.38759 -0.47200
O 	O 	0.38759 0.97867 0.50759 -0.30000
O 	O 	0.97867 0.38759 0.12615 -0.40900
O 	O 	0.12615 0.50759 0.97867 -0.32100
O 	O 	0.61241 0.49241 0.02133 -0.46600
O 	O 	0.49241 0.61241 0.87385 -0.29700
O 	O 	0.87385 0.02133 0.49241 -0.41500
O 	O 	0.02133 0.87385 0.61241 -0.32700
O 	O 	0.02133 0.49241 0.87385 -0.34500
O 	O 	0.87385 0.61241 0.02133 -0.39700
O 	O 	0.49241 0.02133 0.61241 -0.45800
O 	O 	0.61241 0.87385 0.49241 -0.30500
O 	O 	0.87385 0.49241 0.61241 -0.37100
O 	O 	0.02133 0.61241 0.49241 -0.46000
O 	O 	0.61241 0.02133 0.87385 -0.36000
O 	O 	0.49241 0.87385 0.02133 -0.37000
O 	O 	0.49241 0.61241 0.02133 -0.45800
O 	O 	0.61241 0.49241 0.87385 -0.30500
O 	O 	0.02133 0.87385 0.49241 -0.34500
O 	O 	0.87385 0.02133 0.61241 -0.39700
O 	O 	0.49241 0.02133 0.87385 -0.37000
O 	O 	0.61241 0.87385 0.02133 -0.36000
O 	O 	0.02133 0.49241 0.61241 -0.46000
O 	O 	0.87385 0.61241 0.49241 -0.37100
O 	O 	0.49241 0.87385 0.61241 -0.29700
O 	O 	0.61241 0.02133 0.49241 -0.46600
O 	O 	0.02133 0.61241 0.87385 -0.32700
O 	O 	0.87385 0.49241 0.02133 -0.41500
O 	O 	0.38759 0.50759 0.97867 -0.30000
O 	O 	0.50759 0.38759 0.12615 -0.47200
O 	O 	0.12615 0.97867 0.50759 -0.32100
O 	O 	0.97867 0.12615 0.38759 -0.40900
O 	O 	0.97867 0.50759 0.12615 -0.39200
O 	O 	0.12615 0.38759 0.97867 -0.33800
O 	O 	0.50759 0.97867 0.38759 -0.30800
O 	O 	0.38759 0.12615 0.50759 -0.46400
O 	O 	0.12615 0.50759 0.38759 -0.47500
O 	O 	0.97867 0.38759 0.50759 -0.38300
O 	O 	0.38759 0.97867 0.12615 -0.35500
O 	O 	0.50759 0.12615 0.97867 -0.34500
