data_crystal

_cell_length_a 18.34710
_cell_length_b 18.34710
_cell_length_c 18.34710
_cell_angle_alpha 60.00000
_cell_angle_beta  60.00000
_cell_angle_gamma 60.00000

_symmetry_space_group_name_	'P 1'
_symmetry_space_group_name_H-M	'P 1'

loop_
_symmetry_equiv_pos_as_xyz
  x,y,z

loop_
_atom_site_label
_atom_site_type_symbol
_atom_site_fract_x
_atom_site_fract_y
_atom_site_fract_z
_atom_site_charge
Cu	Cu	0.00000 0.42920 0.57080 0.81300
Cu	Cu	0.42920 0.00000 -0.00000 0.70700
Cu	Cu	0.57080 1.00000 -0.00000 0.91400
Cu	Cu	0.00000 0.57080 0.42920 0.81100
Cu	Cu	0.00000 0.57080 -0.00000 0.70400
Cu	Cu	0.42920 0.00000 0.57080 0.83300
Cu	Cu	0.57080 0.00000 0.42920 0.83300
Cu	Cu	-0.00000 0.42920 -0.00000 0.69400
Cu	Cu	-0.00000 0.00000 0.42920 0.71500
Cu	Cu	0.42920 0.57080 -0.00000 0.81000
Cu	Cu	0.57080 0.42920 -0.00000 0.81200
Cu	Cu	0.00000 0.00000 0.57080 0.72700
H 	H 	0.96410 0.27250 0.49090 0.07300
H 	H 	0.27250 0.96410 0.27250 0.03800
H 	H 	0.49090 0.27250 0.96410 0.07200
H 	H 	0.27250 0.49090 0.27250 0.00500
H 	H 	0.96410 0.49090 0.27250 0.06900
H 	H 	0.27250 0.27250 0.49090 0.01000
H 	H 	0.49090 0.96410 0.27250 0.06000
H 	H 	0.27250 0.27250 0.96410 0.05100
H 	H 	0.96410 0.27250 0.27250 0.05100
H 	H 	0.27250 0.49090 0.96410 0.07000
H 	H 	0.49090 0.27250 0.27250 0.00900
H 	H 	0.27250 0.96410 0.49090 0.06200
H 	H 	0.72750 0.03590 0.50910 0.03300
H 	H 	0.03590 0.72750 0.72750 0.04800
H 	H 	0.72750 0.50910 0.03590 0.02600
H 	H 	0.50910 0.72750 0.72750 0.08200
H 	H 	0.50910 0.03590 0.72750 0.03300
H 	H 	0.72750 0.72750 0.50910 0.08100
H 	H 	0.03590 0.50910 0.72750 0.02800
H 	H 	0.72750 0.72750 0.03590 0.04500
H 	H 	0.72750 0.03590 0.72750 0.05700
H 	H 	0.50910 0.72750 0.03590 0.02100
H 	H 	0.72750 0.50910 0.72750 0.08600
H 	H 	0.03590 0.72750 0.50910 0.02300
C 	C 	0.96370 0.30250 0.43130 0.05400
C 	C 	0.30250 0.96370 0.30250 0.06500
C 	C 	0.43130 0.30250 0.96370 0.05600
C 	C 	0.30250 0.43130 0.30250 0.08800
C 	C 	0.96370 0.43130 0.30250 0.05400
C 	C 	0.30250 0.30250 0.43130 0.08800
C 	C 	0.43130 0.96370 0.30250 0.06300
C 	C 	0.30250 0.30250 0.96370 0.05800
C 	C 	0.96370 0.30250 0.30250 0.05600
C 	C 	0.30250 0.43130 0.96370 0.05500
C 	C 	0.43130 0.30250 0.30250 0.08800
C 	C 	0.30250 0.96370 0.43130 0.06200
C 	C 	0.69750 0.03630 0.56870 0.07000
C 	C 	0.03630 0.69750 0.69750 0.06600
C 	C 	0.69750 0.56870 0.03630 0.07300
C 	C 	0.56870 0.69750 0.69750 0.04900
C 	C 	0.56870 0.03630 0.69750 0.07100
C 	C 	0.69750 0.69750 0.56870 0.04900
C 	C 	0.03630 0.56870 0.69750 0.07100
C 	C 	0.69750 0.69750 0.03630 0.07000
C 	C 	0.69750 0.03630 0.69750 0.06600
C 	C 	0.56870 0.69750 0.03630 0.07500
C 	C 	0.69750 0.56870 0.69750 0.04800
C 	C 	0.03630 0.69750 0.56870 0.07200
C 	C 	0.96250 0.38910 0.38910 -0.08000
C 	C 	0.97740 0.43060 0.43060 0.35200
C 	C 	0.38910 0.96250 0.25930 -0.11400
C 	C 	0.43060 0.97740 0.16140 0.36000
C 	C 	0.38910 0.25930 0.96250 -0.09500
C 	C 	0.43060 0.16140 0.97740 0.35700
C 	C 	0.25930 0.38910 0.38910 -0.17400
C 	C 	0.16140 0.43060 0.43060 0.36700
C 	C 	0.96250 0.38910 0.25930 -0.09500
C 	C 	0.97740 0.43060 0.16140 0.34800
C 	C 	0.38910 0.25930 0.38910 -0.17100
C 	C 	0.43060 0.16140 0.43060 0.36800
C 	C 	0.38910 0.96250 0.38910 -0.09700
C 	C 	0.43060 0.97740 0.43060 0.35600
C 	C 	0.25930 0.38910 0.96250 -0.09500
C 	C 	0.16140 0.43060 0.97740 0.34800
C 	C 	0.96250 0.25930 0.38910 -0.09200
C 	C 	0.97740 0.16140 0.43060 0.34900
C 	C 	0.38910 0.38910 0.96250 -0.08100
C 	C 	0.43060 0.43060 0.97740 0.35200
C 	C 	0.38910 0.38910 0.25930 -0.17400
C 	C 	0.43060 0.43060 0.16140 0.36700
C 	C 	0.25930 0.96250 0.38910 -0.11000
C 	C 	0.16140 0.97740 0.43060 0.35200
C 	C 	0.61090 0.03750 0.61090 -0.13800
C 	C 	0.56940 0.02260 0.56940 0.36600
C 	C 	0.03750 0.61090 0.74070 -0.12500
C 	C 	0.02260 0.56940 0.83860 0.34800
C 	C 	0.74070 0.61090 0.03750 -0.12900
C 	C 	0.83860 0.56940 0.02260 0.34900
C 	C 	0.61090 0.74070 0.61090 -0.06800
C 	C 	0.56940 0.83860 0.56940 0.35500
C 	C 	0.61090 0.03750 0.74070 -0.11900
C 	C 	0.56940 0.02260 0.83860 0.35700
C 	C 	0.74070 0.61090 0.61090 -0.06400
C 	C 	0.83860 0.56940 0.56940 0.35200
C 	C 	0.03750 0.61090 0.61090 -0.14700
C 	C 	0.02260 0.56940 0.56940 0.36500
C 	C 	0.61090 0.74070 0.03750 -0.13600
C 	C 	0.56940 0.83860 0.02260 0.36000
C 	C 	0.74070 0.03750 0.61090 -0.11700
C 	C 	0.83860 0.02260 0.56940 0.35000
C 	C 	0.61090 0.61090 0.03750 -0.15000
C 	C 	0.56940 0.56940 0.02260 0.36500
C 	C 	0.61090 0.61090 0.74070 -0.06400
C 	C 	0.56940 0.56940 0.83860 0.35100
C 	C 	0.03750 0.74070 0.61090 -0.12900
C 	C 	0.02260 0.83860 0.56940 0.35100
O 	O 	0.97960 0.38720 0.50940 -0.29200
O 	O 	0.38720 0.97960 0.12380 -0.38600
O 	O 	0.50940 0.12380 0.97960 -0.36300
O 	O 	0.12380 0.50940 0.38720 -0.47700
O 	O 	0.97960 0.50940 0.12380 -0.33800
O 	O 	0.38720 0.12380 0.50940 -0.46500
O 	O 	0.50940 0.97960 0.38720 -0.31800
O 	O 	0.12380 0.38720 0.97960 -0.35000
O 	O 	0.97960 0.12380 0.38720 -0.34500
O 	O 	0.38720 0.50940 0.97960 -0.29300
O 	O 	0.50940 0.38720 0.12380 -0.47400
O 	O 	0.12380 0.97960 0.50940 -0.35700
O 	O 	0.61280 0.02040 0.49060 -0.45300
O 	O 	0.02040 0.61280 0.87620 -0.34700
O 	O 	0.87620 0.49060 0.02040 -0.36700
O 	O 	0.49060 0.87620 0.61280 -0.30600
O 	O 	0.49060 0.02040 0.87620 -0.36100
O 	O 	0.87620 0.61280 0.49060 -0.29000
O 	O 	0.02040 0.49060 0.61280 -0.46300
O 	O 	0.61280 0.87620 0.02040 -0.40700
O 	O 	0.87620 0.02040 0.61280 -0.33500
O 	O 	0.49060 0.61280 0.02040 -0.46900
O 	O 	0.61280 0.49060 0.87620 -0.28400
O 	O 	0.02040 0.87620 0.49060 -0.38600
O 	O 	0.02040 0.61280 0.49060 -0.46700
O 	O 	0.61280 0.02040 0.87620 -0.37200
O 	O 	0.49060 0.87620 0.02040 -0.39600
O 	O 	0.87620 0.49060 0.61280 -0.28600
O 	O 	0.02040 0.49060 0.87620 -0.36300
O 	O 	0.61280 0.87620 0.49060 -0.30800
O 	O 	0.49060 0.02040 0.61280 -0.45300
O 	O 	0.87620 0.61280 0.02040 -0.35200
O 	O 	0.02040 0.87620 0.61280 -0.36600
O 	O 	0.61280 0.49060 0.02040 -0.46500
O 	O 	0.49060 0.61280 0.87620 -0.28700
O 	O 	0.87620 0.02040 0.49060 -0.35500
O 	O 	0.38720 0.97960 0.50940 -0.31700
O 	O 	0.97960 0.38720 0.12380 -0.35300
O 	O 	0.12380 0.50940 0.97960 -0.33400
O 	O 	0.50940 0.12380 0.38720 -0.46600
O 	O 	0.50940 0.97960 0.12380 -0.39800
O 	O 	0.12380 0.38720 0.50940 -0.47300
O 	O 	0.97960 0.50940 0.38720 -0.29600
O 	O 	0.38720 0.12380 0.97960 -0.35100
O 	O 	0.12380 0.97960 0.38720 -0.37700
O 	O 	0.50940 0.38720 0.97960 -0.29000
O 	O 	0.38720 0.50940 0.12380 -0.47700
O 	O 	0.97960 0.12380 0.50940 -0.32600
