data_crystal

_cell_length_a 18.58960
_cell_length_b 18.58960
_cell_length_c 18.58960
_cell_angle_alpha 60.00000
_cell_angle_beta  60.00000
_cell_angle_gamma 60.00000

_symmetry_space_group_name_	'P 1'
_symmetry_space_group_name_H-M	'P 1'

loop_
_symmetry_equiv_pos_as_xyz
  x,y,z

loop_
_atom_site_label
_atom_site_type_symbol
_atom_site_fract_x
_atom_site_fract_y
_atom_site_fract_z
_atom_site_charge
Cu	Cu	0.00000 0.42998 0.57002 0.80800
Cu	Cu	0.42998 0.00000 -0.00000 0.74000
Cu	Cu	0.57002 0.00000 -0.00000 0.75200
Cu	Cu	-0.00000 0.57002 0.42998 0.80400
Cu	Cu	-0.00000 0.57002 -0.00000 0.70800
Cu	Cu	0.42998 0.00000 0.57002 0.84400
Cu	Cu	0.57002 1.00000 0.42998 0.97100
Cu	Cu	-0.00000 0.42998 -0.00000 0.70100
Cu	Cu	0.00000 1.00000 0.42998 0.86600
Cu	Cu	0.42998 0.57002 -0.00000 0.80500
Cu	Cu	0.57002 0.42998 -0.00000 0.81000
Cu	Cu	0.00000 0.00000 0.57002 0.74800
H 	H 	0.97170 0.27110 0.48610 0.07300
H 	H 	0.27110 0.97170 0.27110 0.02400
H 	H 	0.48610 0.27110 0.97170 0.07300
H 	H 	0.27110 0.48610 0.27110 -0.00100
H 	H 	0.97170 0.48610 0.27110 0.06500
H 	H 	0.27110 0.27110 0.48610 0.00800
H 	H 	0.48610 0.97170 0.27110 0.04600
H 	H 	0.27110 0.27110 0.97170 0.05200
H 	H 	0.97170 0.27110 0.27110 0.05100
H 	H 	0.27110 0.48610 0.97170 0.06400
H 	H 	0.48610 0.27110 0.27110 0.00700
H 	H 	0.27110 0.97170 0.48610 0.04600
H 	H 	0.72890 0.02830 0.51390 0.03500
H 	H 	0.02830 0.72890 0.72890 0.03600
H 	H 	0.72890 0.51390 0.02830 0.02300
H 	H 	0.51390 0.72890 0.72890 0.07200
H 	H 	0.51390 0.02830 0.72890 0.03700
H 	H 	0.72890 0.72890 0.51390 0.07100
H 	H 	0.02830 0.51390 0.72890 0.02200
H 	H 	0.72890 0.72890 0.02830 0.03700
H 	H 	0.72890 0.02830 0.72890 0.06100
H 	H 	0.51390 0.72890 0.02830 0.01300
H 	H 	0.72890 0.51390 0.72890 0.08200
H 	H 	0.02830 0.72890 0.51390 0.01100
C 	C 	0.97010 0.30110 0.42770 0.06200
C 	C 	0.30110 0.97010 0.30110 0.08500
C 	C 	0.42770 0.30110 0.97010 0.06100
C 	C 	0.30110 0.42770 0.30110 0.10700
C 	C 	0.97010 0.42770 0.30110 0.06300
C 	C 	0.30110 0.30110 0.42770 0.10600
C 	C 	0.42770 0.97010 0.30110 0.08200
C 	C 	0.30110 0.30110 0.97010 0.06400
C 	C 	0.97010 0.30110 0.30110 0.06500
C 	C 	0.30110 0.42770 0.97010 0.06200
C 	C 	0.42770 0.30110 0.30110 0.10600
C 	C 	0.30110 0.97010 0.42770 0.08200
C 	C 	0.69890 0.02990 0.57230 0.08100
C 	C 	0.02990 0.69890 0.69890 0.08700
C 	C 	0.69890 0.57230 0.02990 0.08800
C 	C 	0.57230 0.69890 0.69890 0.06000
C 	C 	0.57230 0.02990 0.69890 0.08000
C 	C 	0.69890 0.69890 0.57230 0.06000
C 	C 	0.02990 0.57230 0.69890 0.08900
C 	C 	0.69890 0.69890 0.02990 0.08400
C 	C 	0.69890 0.02990 0.69890 0.07400
C 	C 	0.57230 0.69890 0.02990 0.09100
C 	C 	0.69890 0.57230 0.69890 0.05600
C 	C 	0.02990 0.69890 0.57230 0.09300
C 	C 	0.96930 0.38690 0.38690 -0.08900
C 	C 	0.97740 0.43020 0.43020 0.36400
C 	C 	0.38690 0.96930 0.25690 -0.14200
C 	C 	0.43020 0.97740 0.16220 0.37600
C 	C 	0.38690 0.25690 0.96930 -0.09800
C 	C 	0.43020 0.16220 0.97740 0.36400
C 	C 	0.25690 0.38690 0.38690 -0.19200
C 	C 	0.16220 0.43020 0.43020 0.39200
C 	C 	0.96930 0.38690 0.25690 -0.10500
C 	C 	0.97740 0.43020 0.16220 0.36400
C 	C 	0.38690 0.25690 0.38690 -0.18700
C 	C 	0.43020 0.16220 0.43020 0.39700
C 	C 	0.38690 0.96930 0.38690 -0.12700
C 	C 	0.43020 0.97740 0.43020 0.38100
C 	C 	0.25690 0.38690 0.96930 -0.10400
C 	C 	0.16220 0.43020 0.97740 0.36400
C 	C 	0.96930 0.25690 0.38690 -0.10000
C 	C 	0.97740 0.16220 0.43020 0.36900
C 	C 	0.38690 0.38690 0.96930 -0.08800
C 	C 	0.43020 0.43020 0.97740 0.36400
C 	C 	0.38690 0.38690 0.25690 -0.19200
C 	C 	0.43020 0.43020 0.16220 0.39200
C 	C 	0.25690 0.96930 0.38690 -0.14300
C 	C 	0.16220 0.97740 0.43020 0.38100
C 	C 	0.61310 0.03070 0.61310 -0.14400
C 	C 	0.56980 0.02260 0.56980 0.39100
C 	C 	0.03070 0.61310 0.74310 -0.14800
C 	C 	0.02260 0.56980 0.83780 0.37000
C 	C 	0.74310 0.61310 0.03070 -0.14600
C 	C 	0.83780 0.56980 0.02260 0.36900
C 	C 	0.61310 0.74310 0.61310 -0.08900
C 	C 	0.56980 0.83780 0.56980 0.37500
C 	C 	0.61310 0.03070 0.74310 -0.12000
C 	C 	0.56980 0.02260 0.83780 0.36700
C 	C 	0.74310 0.61310 0.61310 -0.07800
C 	C 	0.83780 0.56980 0.56980 0.36300
C 	C 	0.03070 0.61310 0.61310 -0.17100
C 	C 	0.02260 0.56980 0.56980 0.38800
C 	C 	0.61310 0.74310 0.03070 -0.15500
C 	C 	0.56980 0.83780 0.02260 0.37600
C 	C 	0.74310 0.03070 0.61310 -0.12200
C 	C 	0.83780 0.02260 0.56980 0.37300
C 	C 	0.61310 0.61310 0.03070 -0.16900
C 	C 	0.56980 0.56980 0.02260 0.38700
C 	C 	0.61310 0.61310 0.74310 -0.07800
C 	C 	0.56980 0.56980 0.83780 0.36300
C 	C 	0.03070 0.74310 0.61310 -0.16000
C 	C 	0.02260 0.83780 0.56980 0.38200
O 	O 	0.97993 0.38711 0.50695 -0.29800
O 	O 	0.38711 0.97993 0.12601 -0.40900
O 	O 	0.50695 0.12601 0.97993 -0.32200
O 	O 	0.12601 0.50695 0.38711 -0.47600
O 	O 	0.97993 0.50695 0.12601 -0.34400
O 	O 	0.38711 0.12601 0.50695 -0.45600
O 	O 	0.50695 0.97993 0.38711 -0.37700
O 	O 	0.12601 0.38711 0.97993 -0.35600
O 	O 	0.97993 0.12601 0.38711 -0.36400
O 	O 	0.38711 0.50695 0.97993 -0.30700
O 	O 	0.50695 0.38711 0.12601 -0.46800
O 	O 	0.12601 0.97993 0.50695 -0.39600
O 	O 	0.61289 0.02007 0.49305 -0.46200
O 	O 	0.02007 0.61289 0.87399 -0.36100
O 	O 	0.87399 0.49305 0.02007 -0.37000
O 	O 	0.49305 0.87399 0.61289 -0.34500
O 	O 	0.49305 0.02007 0.87399 -0.34800
O 	O 	0.87399 0.61289 0.49305 -0.30200
O 	O 	0.02007 0.49305 0.61289 -0.46200
O 	O 	0.61289 0.87399 0.02007 -0.39600
O 	O 	0.87399 0.02007 0.61289 -0.33400
O 	O 	0.49305 0.61289 0.02007 -0.46800
O 	O 	0.61289 0.49305 0.87399 -0.29600
O 	O 	0.02007 0.87399 0.49305 -0.44100
O 	O 	0.02007 0.61289 0.49305 -0.47000
O 	O 	0.61289 0.02007 0.87399 -0.32900
O 	O 	0.49305 0.87399 0.02007 -0.41500
O 	O 	0.87399 0.49305 0.61289 -0.29500
O 	O 	0.02007 0.49305 0.87399 -0.37200
O 	O 	0.61289 0.87399 0.49305 -0.36400
O 	O 	0.49305 0.02007 0.61289 -0.44200
O 	O 	0.87399 0.61289 0.02007 -0.35900
O 	O 	0.02007 0.87399 0.61289 -0.40300
O 	O 	0.61289 0.49305 0.02007 -0.46100
O 	O 	0.49305 0.61289 0.87399 -0.30300
O 	O 	0.87399 0.02007 0.49305 -0.37200
O 	O 	0.38711 0.97993 0.50695 -0.35800
O 	O 	0.97993 0.38711 0.12601 -0.35500
O 	O 	0.12601 0.50695 0.97993 -0.34600
O 	O 	0.50695 0.12601 0.38711 -0.47600
O 	O 	0.50695 0.97993 0.12601 -0.39000
O 	O 	0.12601 0.38711 0.50695 -0.46800
O 	O 	0.97993 0.50695 0.38711 -0.30600
O 	O 	0.38711 0.12601 0.97993 -0.34000
O 	O 	0.12601 0.97993 0.38711 -0.43400
O 	O 	0.50695 0.38711 0.97993 -0.30000
O 	O 	0.38711 0.50695 0.12601 -0.47500
O 	O 	0.97993 0.12601 0.50695 -0.32700
