data_crystal

_cell_length_a 8.92100
_cell_length_b 11.93500
_cell_length_c 13.27400
_cell_angle_alpha 90.00000
_cell_angle_beta  90.00000
_cell_angle_gamma 90.00000

_symmetry_space_group_name_	'P 1'
_symmetry_space_group_name_H-M	'P 1'

loop_
_symmetry_equiv_pos_as_xyz
  x,y,z

loop_
_atom_site_label
_atom_site_type_symbol
_atom_site_fract_x
_atom_site_fract_y
_atom_site_fract_z
_atom_site_charge
Ca	Ca	-0.00000 0.76175 0.75000 1.45700
Ca	Ca	0.50000 0.73825 0.25000 1.50000
Ca	Ca	0.00000 0.23825 0.25000 1.44700
Ca	Ca	0.50000 0.26175 0.75000 1.49800
Ni	Ni	0.50000 0.50000 1.00000 1.07900
Ni	Ni	-0.00000 0.00000 0.50000 0.90100
Ni	Ni	0.50000 0.50000 0.50000 1.08300
Ni	Ni	-0.00000 0.00000 -0.00000 0.90100
H 	H 	0.75100 0.78200 0.93800 0.42500
H 	H 	0.60100 0.74100 0.89500 0.28600
H 	H 	0.74900 0.71800 0.43800 0.33900
H 	H 	0.89900 0.75900 0.39500 0.33200
H 	H 	0.24900 0.78200 0.56200 0.30800
H 	H 	0.39900 0.74100 0.60500 0.27200
H 	H 	0.25100 0.71800 0.06200 0.29400
H 	H 	0.10100 0.75900 0.10500 0.17200
H 	H 	0.24900 0.21800 0.06200 0.25000
H 	H 	0.39900 0.25900 0.10500 0.22800
H 	H 	0.25100 0.28200 0.56200 0.31200
H 	H 	0.10100 0.24100 0.60500 0.17600
H 	H 	0.75100 0.21800 0.43800 0.37200
H 	H 	0.60100 0.25900 0.39500 0.24300
H 	H 	0.74900 0.28200 0.93800 0.35400
H 	H 	0.89900 0.24100 0.89500 0.33500
C 	C 	0.75310 0.61790 0.90270 0.61400
C 	C 	0.68410 0.72560 0.94200 -0.95900
C 	C 	0.62210 0.72240 0.04780 0.61800
C 	C 	0.74690 0.88210 0.40270 0.58400
C 	C 	0.81590 0.77440 0.44200 -0.86800
C 	C 	0.87790 0.77760 0.54780 0.56800
C 	C 	0.24690 0.61790 0.59730 0.58300
C 	C 	0.31590 0.72560 0.55800 -0.91400
C 	C 	0.37790 0.72240 0.45220 0.56600
C 	C 	0.25310 0.88210 0.09730 0.54900
C 	C 	0.18410 0.77440 0.05800 -0.82000
C 	C 	0.12210 0.77760 0.95220 0.53100
C 	C 	0.24690 0.38210 0.09730 0.56100
C 	C 	0.31590 0.27440 0.05800 -0.85500
C 	C 	0.37790 0.27760 0.95220 0.53800
C 	C 	0.25310 0.11790 0.59730 0.57400
C 	C 	0.18410 0.22560 0.55800 -0.88900
C 	C 	0.12210 0.22240 0.45220 0.56100
C 	C 	0.75310 0.38210 0.40270 0.59200
C 	C 	0.68410 0.27440 0.44200 -0.89400
C 	C 	0.62210 0.27760 0.54780 0.58500
C 	C 	0.74690 0.11790 0.90270 0.60700
C 	C 	0.81590 0.22560 0.94200 -0.92500
C 	C 	0.87790 0.22240 0.04780 0.58900
O 	O 	0.85450 0.62620 0.83860 -0.38900
O 	O 	0.70730 0.52420 0.93480 -0.47700
O 	O 	0.52300 0.64980 0.07220 -0.62700
O 	O 	0.83620 0.70580 0.61020 -0.40400
O 	O 	0.64550 0.87380 0.33860 -0.45700
O 	O 	0.79270 0.97580 0.43480 -0.32800
O 	O 	0.97700 0.85020 0.57220 -0.38800
O 	O 	0.66380 0.79420 0.11020 -0.43500
O 	O 	0.14550 0.62620 0.66140 -0.61500
O 	O 	0.29270 0.52420 0.56520 -0.54100
O 	O 	0.47700 0.64980 0.42780 -0.62600
O 	O 	0.16380 0.70580 0.88980 -0.54700
O 	O 	0.35450 0.87380 0.16140 -0.48200
O 	O 	0.20730 0.97580 0.06520 -0.46000
O 	O 	0.02300 0.85020 0.92780 -0.70100
O 	O 	0.33620 0.79420 0.38980 -0.51100
O 	O 	0.14550 0.37380 0.16140 -0.61600
O 	O 	0.29270 0.47580 0.06520 -0.53000
O 	O 	0.47700 0.35020 0.92780 -0.62500
O 	O 	0.16380 0.29420 0.38980 -0.57200
O 	O 	0.35450 0.12620 0.66140 -0.54900
O 	O 	0.20730 0.02420 0.56520 -0.61100
O 	O 	0.02300 0.14980 0.42780 -0.78700
O 	O 	0.33620 0.20580 0.88980 -0.54900
O 	O 	0.85450 0.37380 0.33860 -0.38600
O 	O 	0.70730 0.47580 0.43480 -0.46700
O 	O 	0.52300 0.35020 0.57220 -0.62700
O 	O 	0.83620 0.29420 0.11020 -0.42500
O 	O 	0.64550 0.12620 0.83860 -0.52100
O 	O 	0.79270 0.02420 0.93480 -0.46800
O 	O 	0.97700 0.14980 0.07220 -0.46700
O 	O 	0.66380 0.20580 0.61020 -0.47200
