data_crystal

_cell_length_a 15.77200
_cell_length_b 26.98400
_cell_length_c 19.25400
_cell_angle_alpha 90.00000
_cell_angle_beta  90.01900
_cell_angle_gamma 90.00000

_symmetry_space_group_name_	'P 1'
_symmetry_space_group_name_H-M	'P 1'

loop_
_symmetry_equiv_pos_as_xyz
  x,y,z

loop_
_atom_site_label
_atom_site_type_symbol
_atom_site_fract_x
_atom_site_fract_y
_atom_site_fract_z
_atom_site_charge
Fe	Fe	0.04134 0.61800 0.78746 1.09700
Fe	Fe	0.53448 0.86668 0.20634 1.09900
S 	S 	0.31931 0.93774 0.05448 -0.06900
S 	S 	0.76484 0.77922 0.31668 -0.06000
S 	S 	0.28149 0.71602 0.71409 -0.07500
S 	S 	0.84529 0.56265 0.96182 -0.06500
C 	C 	0.20020 0.67970 0.72695 0.09100
C 	C 	0.90250 0.57499 0.89327 0.09300
C 	C 	0.39430 0.91670 0.10440 0.09200
C 	C 	0.68170 0.80842 0.28870 0.09300
N 	N 	0.14234 0.65427 0.73583 -0.26500
N 	N 	0.94374 0.58447 0.84533 -0.26700
N 	N 	0.44785 0.90183 0.14048 -0.27000
N 	N 	0.62288 0.82938 0.26850 -0.26700
N 	N 	0.62983 0.87181 0.12338 -0.23500
N 	N 	0.99923 0.69180 0.82342 -0.23800
N 	N 	0.92060 0.04540 0.75591 -0.24000
N 	N 	0.84398 0.82949 0.94041 -0.14200
N 	N 	0.81576 0.91449 0.91961 -0.14100
N 	N 	0.91259 0.87087 0.84771 -0.14100
C 	C 	0.67410 0.83113 0.10661 0.06200
H 	H 	0.66600 0.80190 0.13330 -0.00700
C 	C 	0.73090 0.82997 0.05226 -0.12000
H 	H 	0.76070 0.80030 0.04160 0.07500
C 	C 	0.74415 0.87242 0.01343 0.04700
C 	C 	0.69870 0.91487 0.03105 -0.12100
H 	H 	0.70650 0.94470 0.00570 0.07800
C 	C 	0.64240 0.91301 0.08569 0.06700
H 	H 	0.61120 0.94200 0.09710 -0.00800
C 	C 	0.96830 0.69882 0.88739 0.06700
H 	H 	0.96820 0.67150 0.91860 -0.00700
C 	C 	0.93660 0.74366 0.91063 -0.11700
H 	H 	0.91590 0.74710 0.95670 0.07500
C 	C 	0.93583 0.78336 0.86507 0.04900
C 	C 	0.96940 0.77695 0.79874 -0.11300
H 	H 	0.97110 0.80380 0.76690 0.07600
C 	C 	0.00010 0.73092 0.78011 0.05700
H 	H 	0.02280 0.72670 0.73480 -0.01400
C 	C 	0.97220 0.00625 0.75085 0.05300
H 	H 	0.02100 0.00900 0.72220 -0.00500
C 	C 	0.95830 0.96190 0.78504 -0.11300
H 	H 	0.99600 0.93480 0.77920 0.07600
C 	C 	0.88810 0.95796 0.82808 0.04700
C 	C 	0.83450 0.99832 0.83429 -0.11700
H 	H 	0.78620 0.99680 0.86370 0.07800
C 	C 	0.85250 0.04069 0.79712 0.05800
H 	H 	0.81470 0.06800 0.80090 -0.00800
C 	C 	0.80500 0.87226 0.95467 0.09900
C 	C 	0.89560 0.83072 0.88581 0.10200
C 	C 	0.87120 0.91180 0.86741 0.10000
N 	N 	0.12562 0.61303 0.87847 -0.23500
N 	N 	0.49731 0.79127 0.17078 -0.23700
N 	N 	0.43039 0.43654 0.24034 -0.24100
N 	N 	0.33930 0.65257 0.06052 -0.14200
N 	N 	0.40683 0.61224 0.15442 -0.14100
N 	N 	0.31641 0.56697 0.07889 -0.14000
C 	C 	0.16840 0.65363 0.89778 0.06400
H 	H 	0.15830 0.68380 0.87360 -0.00700
C 	C 	0.22630 0.65347 0.95118 -0.12100
H 	H 	0.25550 0.68300 0.96350 0.07600
C 	C 	0.24170 0.60960 0.98695 0.04900
C 	C 	0.19720 0.56755 0.96736 -0.12400
H 	H 	0.20600 0.53690 0.99050 0.08100
C 	C 	0.13990 0.57120 0.91361 0.07100
H 	H 	0.10890 0.54240 0.90080 -0.00800
C 	C 	0.46720 0.78302 0.10715 0.06800
H 	H 	0.46880 0.80930 0.07430 -0.00800
C 	C 	0.43380 0.73801 0.08676 -0.11800
H 	H 	0.41320 0.73360 0.04080 0.07500
C 	C 	0.43050 0.69950 0.13413 0.04900
C 	C 	0.46360 0.70740 0.20023 -0.11700
H 	H 	0.46430 0.68150 0.23360 0.07600
C 	C 	0.49530 0.75356 0.21615 0.06300
H 	H 	0.51690 0.75900 0.26160 -0.01200
C 	C 	0.45940 0.48040 0.26201 0.06200
H 	H 	0.49500 0.48120 0.30180 -0.00900
C 	C 	0.44030 0.52473 0.22968 -0.11900
H 	H 	0.46210 0.55510 0.24720 0.07700
C 	C 	0.38880 0.52432 0.17111 0.04900
C 	C 	0.35750 0.47915 0.14898 -0.11900
H 	H 	0.32110 0.47740 0.10970 0.07800
C 	C 	0.37950 0.43671 0.18420 0.05900
H 	H 	0.35760 0.40600 0.16810 -0.00600
C 	C 	0.30220 0.60946 0.04544 0.09900
C 	C 	0.39040 0.65189 0.11547 0.10200
C 	C 	0.36910 0.57044 0.13314 0.09900
Fe	Fe	0.95866 0.11800 0.71254 1.09700
Fe	Fe	0.46552 0.36668 0.29366 1.09900
S 	S 	0.68069 0.43774 0.44552 -0.06800
S 	S 	0.23516 0.27922 0.18332 -0.06000
S 	S 	0.71851 0.21602 0.78591 -0.07500
S 	S 	0.15471 0.06265 0.53818 -0.06400
C 	C 	0.79980 0.17970 0.77305 0.09100
C 	C 	0.09750 0.07499 0.60673 0.09300
C 	C 	0.60570 0.41670 0.39560 0.09200
C 	C 	0.31830 0.30842 0.21130 0.09300
N 	N 	0.85766 0.15427 0.76417 -0.26500
N 	N 	0.05626 0.08447 0.65467 -0.26700
N 	N 	0.55215 0.40183 0.35952 -0.27000
N 	N 	0.37712 0.32938 0.23150 -0.26700
N 	N 	0.37017 0.37181 0.37662 -0.23500
N 	N 	0.00077 0.19180 0.67658 -0.23800
N 	N 	0.07940 0.54540 0.74409 -0.24100
N 	N 	0.15602 0.32949 0.55959 -0.14200
N 	N 	0.18424 0.41449 0.58039 -0.14100
N 	N 	0.08741 0.37087 0.65229 -0.14100
C 	C 	0.32590 0.33113 0.39339 0.06200
H 	H 	0.33400 0.30190 0.36670 -0.00700
C 	C 	0.26910 0.32997 0.44774 -0.12100
H 	H 	0.23930 0.30030 0.45840 0.07600
C 	C 	0.25585 0.37242 0.48657 0.04800
C 	C 	0.30130 0.41487 0.46895 -0.12200
H 	H 	0.29350 0.44470 0.49430 0.07900
C 	C 	0.35760 0.41301 0.41431 0.06700
H 	H 	0.38880 0.44200 0.40290 -0.00800
C 	C 	0.03170 0.19882 0.61261 0.06800
H 	H 	0.03180 0.17150 0.58140 -0.00700
C 	C 	0.06340 0.24366 0.58937 -0.11700
H 	H 	0.08410 0.24710 0.54330 0.07600
C 	C 	0.06417 0.28336 0.63493 0.04900
C 	C 	0.03060 0.27695 0.70126 -0.11500
H 	H 	0.02890 0.30380 0.73310 0.07600
C 	C 	0.99990 0.23092 0.71989 0.05900
H 	H 	0.97720 0.22670 0.76520 -0.01400
C 	C 	0.02780 0.50625 0.74915 0.05800
H 	H 	0.97900 0.50900 0.77780 -0.00700
C 	C 	0.04170 0.46190 0.71496 -0.11800
H 	H 	0.00400 0.43480 0.72080 0.07700
C 	C 	0.11190 0.45796 0.67192 0.05000
C 	C 	0.16550 0.49832 0.66571 -0.12100
H 	H 	0.21380 0.49680 0.63630 0.07900
C 	C 	0.14750 0.54069 0.70288 0.06100
H 	H 	0.18530 0.56800 0.69910 -0.00900
C 	C 	0.19500 0.37226 0.54533 0.09800
C 	C 	0.10440 0.33072 0.61419 0.10100
C 	C 	0.12880 0.41180 0.63259 0.09900
N 	N 	0.87438 0.11303 0.62153 -0.23500
N 	N 	0.50269 0.29127 0.32922 -0.23700
N 	N 	0.56961 0.93654 0.25966 -0.24100
N 	N 	0.66070 0.15257 0.43948 -0.14200
N 	N 	0.59317 0.11224 0.34558 -0.14100
N 	N 	0.68359 0.06697 0.42111 -0.14000
C 	C 	0.83160 0.15363 0.60222 0.06400
H 	H 	0.84170 0.18380 0.62640 -0.00700
C 	C 	0.77370 0.15347 0.54882 -0.12200
H 	H 	0.74450 0.18300 0.53650 0.07600
C 	C 	0.75830 0.10960 0.51305 0.04900
C 	C 	0.80280 0.06755 0.53264 -0.12400
H 	H 	0.79400 0.03690 0.50950 0.08100
C 	C 	0.86010 0.07120 0.58639 0.07100
H 	H 	0.89110 0.04240 0.59920 -0.00800
C 	C 	0.53280 0.28302 0.39285 0.06900
H 	H 	0.53120 0.30930 0.42570 -0.00800
C 	C 	0.56620 0.23801 0.41324 -0.11800
H 	H 	0.58680 0.23360 0.45920 0.07500
C 	C 	0.56950 0.19950 0.36587 0.04900
C 	C 	0.53640 0.20740 0.29977 -0.11700
H 	H 	0.53570 0.18150 0.26640 0.07600
C 	C 	0.50470 0.25356 0.28385 0.06300
H 	H 	0.48310 0.25900 0.23840 -0.01200
C 	C 	0.54060 0.98040 0.23799 0.06200
H 	H 	0.50500 0.98120 0.19820 -0.00900
C 	C 	0.55970 0.02473 0.27032 -0.11800
H 	H 	0.53790 0.05510 0.25280 0.07600
C 	C 	0.61120 0.02432 0.32889 0.04800
C 	C 	0.64250 0.97915 0.35102 -0.11800
H 	H 	0.67890 0.97740 0.39030 0.07800
C 	C 	0.62050 0.93671 0.31580 0.05900
H 	H 	0.64240 0.90600 0.33190 -0.00600
C 	C 	0.69780 0.10946 0.45456 0.09900
C 	C 	0.60960 0.15189 0.38453 0.10200
C 	C 	0.63090 0.07044 0.36686 0.09900
Fe	Fe	0.95866 0.38200 0.21254 1.09700
Fe	Fe	0.46552 0.13332 0.79366 1.09900
S 	S 	0.68069 0.06226 0.94552 -0.06900
S 	S 	0.23516 0.22078 0.68332 -0.06000
S 	S 	0.71851 0.28398 0.28591 -0.07500
S 	S 	0.15471 0.43735 0.03818 -0.06500
C 	C 	0.79980 0.32030 0.27305 0.09100
C 	C 	0.09750 0.42501 0.10673 0.09300
C 	C 	0.60570 0.08330 0.89560 0.09200
C 	C 	0.31830 0.19158 0.71130 0.09300
N 	N 	0.85766 0.34573 0.26417 -0.26500
N 	N 	0.05626 0.41553 0.15467 -0.26700
N 	N 	0.55215 0.09817 0.85952 -0.27000
N 	N 	0.37712 0.17062 0.73150 -0.26700
N 	N 	0.37017 0.12819 0.87662 -0.23500
N 	N 	0.00077 0.30820 0.17658 -0.23800
N 	N 	0.07940 0.95460 0.24409 -0.24000
N 	N 	0.15602 0.17051 0.05959 -0.14200
N 	N 	0.18424 0.08551 0.08039 -0.14100
N 	N 	0.08741 0.12913 0.15229 -0.14100
C 	C 	0.32590 0.16887 0.89339 0.06200
H 	H 	0.33400 0.19810 0.86670 -0.00700
C 	C 	0.26910 0.17003 0.94774 -0.12000
H 	H 	0.23930 0.19970 0.95840 0.07500
C 	C 	0.25585 0.12758 0.98657 0.04700
C 	C 	0.30130 0.08513 0.96895 -0.12100
H 	H 	0.29350 0.05530 0.99430 0.07800
C 	C 	0.35760 0.08699 0.91431 0.06700
H 	H 	0.38880 0.05800 0.90290 -0.00800
C 	C 	0.03170 0.30118 0.11261 0.06700
H 	H 	0.03180 0.32850 0.08140 -0.00700
C 	C 	0.06340 0.25634 0.08937 -0.11700
H 	H 	0.08410 0.25290 0.04330 0.07500
C 	C 	0.06417 0.21664 0.13493 0.04900
C 	C 	0.03060 0.22305 0.20126 -0.11300
H 	H 	0.02890 0.19620 0.23310 0.07600
C 	C 	0.99990 0.26908 0.21989 0.05700
H 	H 	0.97720 0.27330 0.26520 -0.01400
C 	C 	0.02780 0.99375 0.24915 0.05300
H 	H 	0.97900 0.99100 0.27780 -0.00500
C 	C 	0.04170 0.03810 0.21496 -0.11300
H 	H 	0.00400 0.06520 0.22080 0.07600
C 	C 	0.11190 0.04204 0.17192 0.04700
C 	C 	0.16550 0.00168 0.16571 -0.11700
H 	H 	0.21380 0.00320 0.13630 0.07800
C 	C 	0.14750 0.95931 0.20288 0.05800
H 	H 	0.18530 0.93200 0.19910 -0.00800
C 	C 	0.19500 0.12774 0.04533 0.09900
C 	C 	0.10440 0.16928 0.11419 0.10200
C 	C 	0.12880 0.08820 0.13259 0.10000
N 	N 	0.87438 0.38697 0.12153 -0.23500
N 	N 	0.50269 0.20873 0.82922 -0.23700
N 	N 	0.56961 0.56346 0.75966 -0.24100
N 	N 	0.66070 0.34743 0.93948 -0.14200
N 	N 	0.59317 0.38776 0.84558 -0.14100
N 	N 	0.68359 0.43303 0.92111 -0.14000
C 	C 	0.83160 0.34637 0.10222 0.06400
H 	H 	0.84170 0.31620 0.12640 -0.00700
C 	C 	0.77370 0.34653 0.04882 -0.12100
H 	H 	0.74450 0.31700 0.03650 0.07600
C 	C 	0.75830 0.39040 0.01305 0.04900
C 	C 	0.80280 0.43245 0.03264 -0.12400
H 	H 	0.79400 0.46310 0.00950 0.08100
C 	C 	0.86010 0.42880 0.08639 0.07100
H 	H 	0.89110 0.45760 0.09920 -0.00800
C 	C 	0.53280 0.21698 0.89285 0.06800
H 	H 	0.53120 0.19070 0.92570 -0.00800
C 	C 	0.56620 0.26199 0.91324 -0.11800
H 	H 	0.58680 0.26640 0.95920 0.07500
C 	C 	0.56950 0.30050 0.86587 0.04900
C 	C 	0.53640 0.29260 0.79977 -0.11700
H 	H 	0.53570 0.31850 0.76640 0.07600
C 	C 	0.50470 0.24644 0.78385 0.06300
H 	H 	0.48310 0.24100 0.73840 -0.01200
C 	C 	0.54060 0.51960 0.73799 0.06200
H 	H 	0.50500 0.51880 0.69820 -0.00900
C 	C 	0.55970 0.47527 0.77032 -0.11900
H 	H 	0.53790 0.44490 0.75280 0.07700
C 	C 	0.61120 0.47568 0.82889 0.04900
C 	C 	0.64250 0.52085 0.85102 -0.11900
H 	H 	0.67890 0.52260 0.89030 0.07800
C 	C 	0.62050 0.56329 0.81580 0.05900
H 	H 	0.64240 0.59400 0.83190 -0.00600
C 	C 	0.69780 0.39054 0.95456 0.09900
C 	C 	0.60960 0.34811 0.88453 0.10200
C 	C 	0.63090 0.42956 0.86686 0.09900
Fe	Fe	0.04134 0.88200 0.28746 1.09700
Fe	Fe	0.53448 0.63332 0.70634 1.09900
S 	S 	0.31931 0.56226 0.55448 -0.06800
S 	S 	0.76484 0.72078 0.81668 -0.06000
S 	S 	0.28149 0.78398 0.21409 -0.07500
S 	S 	0.84529 0.93735 0.46182 -0.06400
C 	C 	0.20020 0.82030 0.22695 0.09100
C 	C 	0.90250 0.92501 0.39327 0.09300
C 	C 	0.39430 0.58330 0.60440 0.09200
C 	C 	0.68170 0.69158 0.78870 0.09300
N 	N 	0.14234 0.84573 0.23583 -0.26500
N 	N 	0.94374 0.91553 0.34533 -0.26700
N 	N 	0.44785 0.59817 0.64048 -0.27000
N 	N 	0.62288 0.67062 0.76850 -0.26700
N 	N 	0.62983 0.62819 0.62338 -0.23500
N 	N 	0.99923 0.80820 0.32342 -0.23800
N 	N 	0.92060 0.45460 0.25591 -0.24100
N 	N 	0.84398 0.67051 0.44041 -0.14200
N 	N 	0.81576 0.58551 0.41961 -0.14100
N 	N 	0.91259 0.62913 0.34771 -0.14100
C 	C 	0.67410 0.66887 0.60661 0.06200
H 	H 	0.66600 0.69810 0.63330 -0.00700
C 	C 	0.73090 0.67003 0.55226 -0.12100
H 	H 	0.76070 0.69970 0.54160 0.07600
C 	C 	0.74415 0.62758 0.51343 0.04800
C 	C 	0.69870 0.58513 0.53105 -0.12200
H 	H 	0.70650 0.55530 0.50570 0.07900
C 	C 	0.64240 0.58699 0.58569 0.06700
H 	H 	0.61120 0.55800 0.59710 -0.00800
C 	C 	0.96830 0.80118 0.38739 0.06800
H 	H 	0.96820 0.82850 0.41860 -0.00700
C 	C 	0.93660 0.75634 0.41063 -0.11700
H 	H 	0.91590 0.75290 0.45670 0.07600
C 	C 	0.93583 0.71664 0.36507 0.04900
C 	C 	0.96940 0.72305 0.29874 -0.11500
H 	H 	0.97110 0.69620 0.26690 0.07600
C 	C 	0.00010 0.76908 0.28011 0.05900
H 	H 	0.02280 0.77330 0.23480 -0.01400
C 	C 	0.97220 0.49375 0.25085 0.05800
H 	H 	0.02100 0.49100 0.22220 -0.00700
C 	C 	0.95830 0.53810 0.28504 -0.11800
H 	H 	0.99600 0.56520 0.27920 0.07700
C 	C 	0.88810 0.54204 0.32808 0.05000
C 	C 	0.83450 0.50168 0.33429 -0.12100
H 	H 	0.78620 0.50320 0.36370 0.07900
C 	C 	0.85250 0.45931 0.29712 0.06100
H 	H 	0.81470 0.43200 0.30090 -0.00900
C 	C 	0.80500 0.62774 0.45467 0.09800
C 	C 	0.89560 0.66928 0.38581 0.10100
C 	C 	0.87120 0.58820 0.36741 0.09900
N 	N 	0.12562 0.88697 0.37847 -0.23500
N 	N 	0.49731 0.70873 0.67078 -0.23700
N 	N 	0.43039 0.06346 0.74034 -0.24100
N 	N 	0.33930 0.84743 0.56052 -0.14200
N 	N 	0.40683 0.88776 0.65442 -0.14100
N 	N 	0.31641 0.93303 0.57889 -0.14000
C 	C 	0.16840 0.84637 0.39778 0.06400
H 	H 	0.15830 0.81620 0.37360 -0.00700
C 	C 	0.22630 0.84653 0.45118 -0.12200
H 	H 	0.25550 0.81700 0.46350 0.07600
C 	C 	0.24170 0.89040 0.48695 0.04900
C 	C 	0.19720 0.93245 0.46736 -0.12400
H 	H 	0.20600 0.96310 0.49050 0.08100
C 	C 	0.13990 0.92880 0.41361 0.07100
H 	H 	0.10890 0.95760 0.40080 -0.00800
C 	C 	0.46720 0.71698 0.60715 0.06900
H 	H 	0.46880 0.69070 0.57430 -0.00800
C 	C 	0.43380 0.76199 0.58676 -0.11800
H 	H 	0.41320 0.76640 0.54080 0.07500
C 	C 	0.43050 0.80050 0.63413 0.04900
C 	C 	0.46360 0.79260 0.70023 -0.11700
H 	H 	0.46430 0.81850 0.73360 0.07600
C 	C 	0.49530 0.74644 0.71615 0.06300
H 	H 	0.51690 0.74100 0.76160 -0.01200
C 	C 	0.45940 0.01960 0.76201 0.06200
H 	H 	0.49500 0.01880 0.80180 -0.00900
C 	C 	0.44030 0.97527 0.72968 -0.11800
H 	H 	0.46210 0.94490 0.74720 0.07600
C 	C 	0.38880 0.97568 0.67111 0.04800
C 	C 	0.35750 0.02085 0.64898 -0.11800
H 	H 	0.32110 0.02260 0.60970 0.07800
C 	C 	0.37950 0.06329 0.68420 0.05900
H 	H 	0.35760 0.09400 0.66810 -0.00600
C 	C 	0.30220 0.89054 0.54544 0.09900
C 	C 	0.39040 0.84811 0.61547 0.10200
C 	C 	0.36910 0.92956 0.63314 0.09900
