data_crystal

_cell_length_a 15.75400
_cell_length_b 26.87700
_cell_length_c 19.24400
_cell_angle_alpha 90.00000
_cell_angle_beta  90.06500
_cell_angle_gamma 90.00000

_symmetry_space_group_name_	'P 1'
_symmetry_space_group_name_H-M	'P 1'

loop_
_symmetry_equiv_pos_as_xyz
  x,y,z

loop_
_atom_site_label
_atom_site_type_symbol
_atom_site_fract_x
_atom_site_fract_y
_atom_site_fract_z
_atom_site_charge
Co	Co	0.04530 0.61869 0.78678 1.10000
Co	Co	0.53850 0.86352 0.20824 1.10200
S 	S 	0.32235 0.93535 0.05822 -0.06800
S 	S 	0.76762 0.77809 0.31864 -0.06100
S 	S 	0.28336 0.71589 0.71046 -0.07300
S 	S 	0.84811 0.56371 0.96009 -0.06400
C 	C 	0.20410 0.67926 0.72430 0.08900
C 	C 	0.90610 0.57626 0.89150 0.09500
C 	C 	0.39750 0.91329 0.10900 0.09600
C 	C 	0.68290 0.80605 0.29030 0.10100
N 	N 	0.14420 0.65441 0.73447 -0.26600
N 	N 	0.94710 0.58582 0.84346 -0.26800
N 	N 	0.45060 0.89823 0.14466 -0.27300
N 	N 	0.62530 0.82666 0.26924 -0.27600
N 	N 	0.63040 0.86925 0.12566 -0.23800
N 	N 	0.00281 0.69128 0.82236 -0.24200
N 	N 	0.91830 0.04704 0.75669 -0.24300
N 	N 	0.84525 0.82895 0.94075 -0.14100
N 	N 	0.81550 0.91404 0.92050 -0.14100
N 	N 	0.91270 0.87128 0.84735 -0.14000
C 	C 	0.67640 0.82893 0.10830 0.06000
H 	H 	0.66970 0.79950 0.13510 -0.00600
C 	C 	0.73280 0.82804 0.05360 -0.11800
H 	H 	0.76350 0.79860 0.04280 0.07500
C 	C 	0.74410 0.87118 0.01443 0.04500
C 	C 	0.69750 0.91313 0.03207 -0.11700
H 	H 	0.70400 0.94310 0.00650 0.07700
C 	C 	0.64100 0.91075 0.08760 0.06300
H 	H 	0.60890 0.93950 0.09900 -0.00600
C 	C 	0.97310 0.69835 0.88656 0.06900
H 	H 	0.97460 0.67110 0.91790 -0.00600
C 	C 	0.94030 0.74306 0.91014 -0.11600
H 	H 	0.91970 0.74620 0.95630 0.07500
C 	C 	0.93820 0.78340 0.86431 0.04800
C 	C 	0.97150 0.77718 0.79813 -0.11100
H 	H 	0.97310 0.80430 0.76650 0.07500
C 	C 	0.00240 0.73071 0.77868 0.05500
H 	H 	0.02400 0.72650 0.73300 -0.01200
C 	C 	0.97020 0.00815 0.75120 0.05400
H 	H 	0.01860 0.01110 0.72220 -0.00500
C 	C 	0.95700 0.96319 0.78600 -0.11300
H 	H 	0.99540 0.93620 0.78030 0.07500
C 	C 	0.88720 0.95871 0.82870 0.04700
C 	C 	0.83230 0.99901 0.83500 -0.11500
H 	H 	0.78360 0.99700 0.86390 0.07700
C 	C 	0.84990 0.04188 0.79840 0.05600
H 	H 	0.81200 0.06920 0.80270 -0.00500
C 	C 	0.80510 0.87171 0.95495 0.10000
C 	C 	0.89670 0.83071 0.88583 0.10100
C 	C 	0.87090 0.91197 0.86790 0.10000
N 	N 	0.12760 0.61296 0.87579 -0.23900
N 	N 	0.49990 0.78970 0.17174 -0.24000
N 	N 	0.42732 0.43326 0.24013 -0.24500
N 	N 	0.34040 0.65135 0.05977 -0.14100
N 	N 	0.40750 0.61001 0.15375 -0.14100
N 	N 	0.31630 0.56472 0.07799 -0.13900
C 	C 	0.17210 0.65344 0.89501 0.06000
H 	H 	0.16390 0.68360 0.87010 -0.00600
C 	C 	0.22900 0.65283 0.94952 -0.11800
H 	H 	0.25860 0.68220 0.96230 0.07500
C 	C 	0.24270 0.60847 0.98569 0.04700
C 	C 	0.19770 0.56636 0.96538 -0.12000
H 	H 	0.20600 0.53540 0.98830 0.07900
C 	C 	0.14080 0.57053 0.91135 0.06700
H 	H 	0.10920 0.54190 0.89840 -0.00600
C 	C 	0.46930 0.78204 0.10802 0.06800
H 	H 	0.47110 0.80870 0.07560 -0.00600
C 	C 	0.43490 0.73682 0.08695 -0.11800
H 	H 	0.41360 0.73270 0.04110 0.07500
C 	C 	0.43240 0.69791 0.13430 0.05200
C 	C 	0.46540 0.70526 0.19980 -0.11900
H 	H 	0.46550 0.67910 0.23300 0.07700
C 	C 	0.49810 0.75132 0.21620 0.06400
H 	H 	0.52070 0.75620 0.26150 -0.01200
C 	C 	0.46000 0.47693 0.26050 0.06200
H 	H 	0.49720 0.47720 0.29930 -0.00700
C 	C 	0.44240 0.52145 0.22790 -0.11900
H 	H 	0.46670 0.55160 0.24440 0.07700
C 	C 	0.38830 0.52148 0.17051 0.05100
C 	C 	0.35360 0.47684 0.15012 -0.12200
H 	H 	0.31560 0.47550 0.11180 0.08000
C 	C 	0.37470 0.43394 0.18609 0.06400
H 	H 	0.35030 0.40340 0.17140 -0.00800
C 	C 	0.30280 0.60760 0.04431 0.09700
C 	C 	0.39160 0.64991 0.11469 0.10100
C 	C 	0.36970 0.56842 0.13216 0.09900
Co	Co	0.95470 0.11869 0.71322 1.09900
Co	Co	0.46150 0.36352 0.29176 1.10100
S 	S 	0.67765 0.43535 0.44178 -0.06700
S 	S 	0.23238 0.27809 0.18136 -0.06100
S 	S 	0.71664 0.21589 0.78954 -0.07300
S 	S 	0.15189 0.06371 0.53991 -0.06400
C 	C 	0.79590 0.17926 0.77570 0.08900
C 	C 	0.09390 0.07626 0.60850 0.09500
C 	C 	0.60250 0.41329 0.39100 0.09600
C 	C 	0.31710 0.30605 0.20970 0.10100
N 	N 	0.85580 0.15441 0.76553 -0.26600
N 	N 	0.05290 0.08582 0.65654 -0.26800
N 	N 	0.54940 0.39823 0.35534 -0.27300
N 	N 	0.37470 0.32666 0.23076 -0.27600
N 	N 	0.36960 0.36925 0.37434 -0.23800
N 	N 	0.99719 0.19128 0.67764 -0.24200
N 	N 	0.08170 0.54704 0.74331 -0.24300
N 	N 	0.15475 0.32895 0.55925 -0.14100
N 	N 	0.18450 0.41404 0.57950 -0.14100
N 	N 	0.08730 0.37128 0.65265 -0.14000
C 	C 	0.32360 0.32893 0.39170 0.06100
H 	H 	0.33030 0.29950 0.36490 -0.00600
C 	C 	0.26720 0.32804 0.44640 -0.11800
H 	H 	0.23650 0.29860 0.45720 0.07500
C 	C 	0.25590 0.37118 0.48557 0.04600
C 	C 	0.30250 0.41313 0.46793 -0.11800
H 	H 	0.29600 0.44310 0.49350 0.07700
C 	C 	0.35900 0.41075 0.41240 0.06300
H 	H 	0.39110 0.43950 0.40100 -0.00600
C 	C 	0.02690 0.19835 0.61344 0.06900
H 	H 	0.02540 0.17110 0.58210 -0.00600
C 	C 	0.05970 0.24306 0.58986 -0.11600
H 	H 	0.08030 0.24620 0.54370 0.07500
C 	C 	0.06180 0.28340 0.63569 0.04800
C 	C 	0.02850 0.27718 0.70187 -0.11200
H 	H 	0.02690 0.30430 0.73350 0.07500
C 	C 	0.99760 0.23071 0.72132 0.05600
H 	H 	0.97600 0.22650 0.76700 -0.01200
C 	C 	0.02980 0.50815 0.74880 0.05700
H 	H 	0.98140 0.51110 0.77780 -0.00600
C 	C 	0.04300 0.46319 0.71400 -0.11600
H 	H 	0.00460 0.43620 0.71970 0.07600
C 	C 	0.11280 0.45871 0.67130 0.04800
C 	C 	0.16770 0.49901 0.66500 -0.11700
H 	H 	0.21640 0.49700 0.63610 0.07800
C 	C 	0.15010 0.54188 0.70160 0.05800
H 	H 	0.18800 0.56920 0.69730 -0.00500
C 	C 	0.19490 0.37171 0.54505 0.10000
C 	C 	0.10330 0.33071 0.61417 0.10000
C 	C 	0.12910 0.41197 0.63210 0.10000
N 	N 	0.87240 0.11296 0.62421 -0.23900
N 	N 	0.50010 0.28970 0.32826 -0.24000
N 	N 	0.57268 0.93326 0.25987 -0.24500
N 	N 	0.65960 0.15135 0.44023 -0.14100
N 	N 	0.59250 0.11001 0.34625 -0.14100
N 	N 	0.68370 0.06472 0.42201 -0.13900
C 	C 	0.82790 0.15344 0.60499 0.06000
H 	H 	0.83610 0.18360 0.62990 -0.00600
C 	C 	0.77100 0.15283 0.55048 -0.11800
H 	H 	0.74140 0.18220 0.53770 0.07500
C 	C 	0.75730 0.10847 0.51431 0.04800
C 	C 	0.80230 0.06636 0.53462 -0.12000
H 	H 	0.79400 0.03540 0.51170 0.08000
C 	C 	0.85920 0.07053 0.58865 0.06700
H 	H 	0.89080 0.04190 0.60160 -0.00600
C 	C 	0.53070 0.28204 0.39198 0.06800
H 	H 	0.52890 0.30870 0.42440 -0.00600
C 	C 	0.56510 0.23682 0.41305 -0.11800
H 	H 	0.58640 0.23270 0.45890 0.07500
C 	C 	0.56760 0.19791 0.36570 0.05200
C 	C 	0.53460 0.20526 0.30020 -0.11900
H 	H 	0.53450 0.17910 0.26700 0.07700
C 	C 	0.50190 0.25132 0.28380 0.06400
H 	H 	0.47930 0.25620 0.23850 -0.01200
C 	C 	0.54000 0.97693 0.23950 0.06100
H 	H 	0.50280 0.97720 0.20070 -0.00800
C 	C 	0.55760 0.02145 0.27210 -0.11900
H 	H 	0.53330 0.05160 0.25560 0.07700
C 	C 	0.61170 0.02148 0.32949 0.05100
C 	C 	0.64640 0.97684 0.34988 -0.12200
H 	H 	0.68440 0.97550 0.38820 0.08000
C 	C 	0.62530 0.93394 0.31391 0.06400
H 	H 	0.64970 0.90340 0.32860 -0.00800
C 	C 	0.69720 0.10760 0.45569 0.09700
C 	C 	0.60840 0.14991 0.38531 0.10100
C 	C 	0.63030 0.06842 0.36784 0.09900
Co	Co	0.95470 0.38131 0.21322 1.09900
Co	Co	0.46150 0.13648 0.79176 1.10100
S 	S 	0.67765 0.06465 0.94178 -0.06800
S 	S 	0.23238 0.22191 0.68136 -0.06100
S 	S 	0.71664 0.28411 0.28954 -0.07300
S 	S 	0.15189 0.43629 0.03991 -0.06400
C 	C 	0.79590 0.32074 0.27570 0.08900
C 	C 	0.09390 0.42374 0.10850 0.09500
C 	C 	0.60250 0.08671 0.89100 0.09600
C 	C 	0.31710 0.19395 0.70970 0.10100
N 	N 	0.85580 0.34559 0.26553 -0.26600
N 	N 	0.05290 0.41418 0.15654 -0.26800
N 	N 	0.54940 0.10177 0.85534 -0.27300
N 	N 	0.37470 0.17334 0.73076 -0.27600
N 	N 	0.36960 0.13075 0.87434 -0.23800
N 	N 	0.99719 0.30872 0.17764 -0.24200
N 	N 	0.08170 0.95296 0.24331 -0.24300
N 	N 	0.15475 0.17105 0.05925 -0.14100
N 	N 	0.18450 0.08596 0.07950 -0.14100
N 	N 	0.08730 0.12872 0.15265 -0.14000
C 	C 	0.32360 0.17107 0.89170 0.06000
H 	H 	0.33030 0.20050 0.86490 -0.00600
C 	C 	0.26720 0.17196 0.94640 -0.11800
H 	H 	0.23650 0.20140 0.95720 0.07500
C 	C 	0.25590 0.12882 0.98557 0.04500
C 	C 	0.30250 0.08687 0.96793 -0.11700
H 	H 	0.29600 0.05690 0.99350 0.07700
C 	C 	0.35900 0.08925 0.91240 0.06300
H 	H 	0.39110 0.06050 0.90100 -0.00600
C 	C 	0.02690 0.30165 0.11344 0.06900
H 	H 	0.02540 0.32890 0.08210 -0.00600
C 	C 	0.05970 0.25694 0.08986 -0.11600
H 	H 	0.08030 0.25380 0.04370 0.07500
C 	C 	0.06180 0.21660 0.13569 0.04800
C 	C 	0.02850 0.22282 0.20187 -0.11100
H 	H 	0.02690 0.19570 0.23350 0.07500
C 	C 	0.99760 0.26929 0.22132 0.05500
H 	H 	0.97600 0.27350 0.26700 -0.01200
C 	C 	0.02980 0.99185 0.24880 0.05400
H 	H 	0.98140 0.98890 0.27780 -0.00500
C 	C 	0.04300 0.03681 0.21400 -0.11300
H 	H 	0.00460 0.06380 0.21970 0.07500
C 	C 	0.11280 0.04129 0.17130 0.04700
C 	C 	0.16770 0.00099 0.16500 -0.11500
H 	H 	0.21640 0.00300 0.13610 0.07700
C 	C 	0.15010 0.95812 0.20160 0.05600
H 	H 	0.18800 0.93080 0.19730 -0.00500
C 	C 	0.19490 0.12829 0.04505 0.10000
C 	C 	0.10330 0.16929 0.11417 0.10100
C 	C 	0.12910 0.08803 0.13210 0.10000
N 	N 	0.87240 0.38704 0.12421 -0.23900
N 	N 	0.50010 0.21030 0.82826 -0.24000
N 	N 	0.57268 0.56674 0.75987 -0.24500
N 	N 	0.65960 0.34865 0.94023 -0.14100
N 	N 	0.59250 0.38999 0.84625 -0.14100
N 	N 	0.68370 0.43528 0.92201 -0.13900
C 	C 	0.82790 0.34656 0.10499 0.06000
H 	H 	0.83610 0.31640 0.12990 -0.00600
C 	C 	0.77100 0.34717 0.05048 -0.11800
H 	H 	0.74140 0.31780 0.03770 0.07500
C 	C 	0.75730 0.39153 0.01431 0.04700
C 	C 	0.80230 0.43364 0.03462 -0.12000
H 	H 	0.79400 0.46460 0.01170 0.07900
C 	C 	0.85920 0.42947 0.08865 0.06700
H 	H 	0.89080 0.45810 0.10160 -0.00600
C 	C 	0.53070 0.21796 0.89198 0.06800
H 	H 	0.52890 0.19130 0.92440 -0.00600
C 	C 	0.56510 0.26318 0.91305 -0.11800
H 	H 	0.58640 0.26730 0.95890 0.07500
C 	C 	0.56760 0.30209 0.86570 0.05200
C 	C 	0.53460 0.29474 0.80020 -0.11900
H 	H 	0.53450 0.32090 0.76700 0.07700
C 	C 	0.50190 0.24868 0.78380 0.06400
H 	H 	0.47930 0.24380 0.73850 -0.01200
C 	C 	0.54000 0.52307 0.73950 0.06200
H 	H 	0.50280 0.52280 0.70070 -0.00700
C 	C 	0.55760 0.47855 0.77210 -0.11900
H 	H 	0.53330 0.44840 0.75560 0.07700
C 	C 	0.61170 0.47852 0.82949 0.05100
C 	C 	0.64640 0.52316 0.84988 -0.12200
H 	H 	0.68440 0.52450 0.88820 0.08000
C 	C 	0.62530 0.56606 0.81391 0.06400
H 	H 	0.64970 0.59660 0.82860 -0.00800
C 	C 	0.69720 0.39240 0.95569 0.09700
C 	C 	0.60840 0.35009 0.88531 0.10100
C 	C 	0.63030 0.43158 0.86784 0.09900
Co	Co	0.04530 0.88131 0.28678 1.09900
Co	Co	0.53850 0.63648 0.70824 1.10100
S 	S 	0.32235 0.56465 0.55822 -0.06700
S 	S 	0.76762 0.72191 0.81864 -0.06100
S 	S 	0.28336 0.78411 0.21046 -0.07300
S 	S 	0.84811 0.93629 0.46009 -0.06400
C 	C 	0.20410 0.82074 0.22430 0.08900
C 	C 	0.90610 0.92374 0.39150 0.09500
C 	C 	0.39750 0.58671 0.60900 0.09600
C 	C 	0.68290 0.69395 0.79030 0.10100
N 	N 	0.14420 0.84559 0.23447 -0.26600
N 	N 	0.94710 0.91418 0.34346 -0.26800
N 	N 	0.45060 0.60177 0.64466 -0.27300
N 	N 	0.62530 0.67334 0.76924 -0.27600
N 	N 	0.63040 0.63075 0.62566 -0.23800
N 	N 	0.00281 0.80872 0.32236 -0.24200
N 	N 	0.91830 0.45296 0.25669 -0.24300
N 	N 	0.84525 0.67105 0.44075 -0.14100
N 	N 	0.81550 0.58596 0.42050 -0.14100
N 	N 	0.91270 0.62872 0.34735 -0.14000
C 	C 	0.67640 0.67107 0.60830 0.06100
H 	H 	0.66970 0.70050 0.63510 -0.00600
C 	C 	0.73280 0.67196 0.55360 -0.11800
H 	H 	0.76350 0.70140 0.54280 0.07500
C 	C 	0.74410 0.62882 0.51443 0.04600
C 	C 	0.69750 0.58687 0.53207 -0.11800
H 	H 	0.70400 0.55690 0.50650 0.07700
C 	C 	0.64100 0.58925 0.58760 0.06300
H 	H 	0.60890 0.56050 0.59900 -0.00600
C 	C 	0.97310 0.80165 0.38656 0.06900
H 	H 	0.97460 0.82890 0.41790 -0.00600
C 	C 	0.94030 0.75694 0.41014 -0.11600
H 	H 	0.91970 0.75380 0.45630 0.07500
C 	C 	0.93820 0.71660 0.36431 0.04800
C 	C 	0.97150 0.72282 0.29813 -0.11200
H 	H 	0.97310 0.69570 0.26650 0.07500
C 	C 	0.00240 0.76929 0.27868 0.05600
H 	H 	0.02400 0.77350 0.23300 -0.01200
C 	C 	0.97020 0.49185 0.25120 0.05700
H 	H 	0.01860 0.48890 0.22220 -0.00600
C 	C 	0.95700 0.53681 0.28600 -0.11600
H 	H 	0.99540 0.56380 0.28030 0.07600
C 	C 	0.88720 0.54129 0.32870 0.04800
C 	C 	0.83230 0.50099 0.33500 -0.11700
H 	H 	0.78360 0.50300 0.36390 0.07800
C 	C 	0.84990 0.45812 0.29840 0.05800
H 	H 	0.81200 0.43080 0.30270 -0.00500
C 	C 	0.80510 0.62829 0.45495 0.10000
C 	C 	0.89670 0.66929 0.38583 0.10000
C 	C 	0.87090 0.58803 0.36790 0.10000
N 	N 	0.12760 0.88704 0.37579 -0.23900
N 	N 	0.49990 0.71030 0.67174 -0.24000
N 	N 	0.42732 0.06674 0.74013 -0.24500
N 	N 	0.34040 0.84865 0.55977 -0.14100
N 	N 	0.40750 0.88999 0.65375 -0.14100
N 	N 	0.31630 0.93528 0.57799 -0.13900
C 	C 	0.17210 0.84656 0.39501 0.06000
H 	H 	0.16390 0.81640 0.37010 -0.00600
C 	C 	0.22900 0.84717 0.44952 -0.11800
H 	H 	0.25860 0.81780 0.46230 0.07500
C 	C 	0.24270 0.89153 0.48569 0.04800
C 	C 	0.19770 0.93364 0.46538 -0.12000
H 	H 	0.20600 0.96460 0.48830 0.08000
C 	C 	0.14080 0.92947 0.41135 0.06700
H 	H 	0.10920 0.95810 0.39840 -0.00600
C 	C 	0.46930 0.71796 0.60802 0.06800
H 	H 	0.47110 0.69130 0.57560 -0.00600
C 	C 	0.43490 0.76318 0.58695 -0.11800
H 	H 	0.41360 0.76730 0.54110 0.07500
C 	C 	0.43240 0.80209 0.63430 0.05200
C 	C 	0.46540 0.79474 0.69980 -0.11900
H 	H 	0.46550 0.82090 0.73300 0.07700
C 	C 	0.49810 0.74868 0.71620 0.06400
H 	H 	0.52070 0.74380 0.76150 -0.01200
C 	C 	0.46000 0.02307 0.76050 0.06100
H 	H 	0.49720 0.02280 0.79930 -0.00800
C 	C 	0.44240 0.97855 0.72790 -0.11900
H 	H 	0.46670 0.94840 0.74440 0.07700
C 	C 	0.38830 0.97852 0.67051 0.05100
C 	C 	0.35360 0.02316 0.65012 -0.12200
H 	H 	0.31560 0.02450 0.61180 0.08000
C 	C 	0.37470 0.06606 0.68609 0.06400
H 	H 	0.35030 0.09660 0.67140 -0.00800
C 	C 	0.30280 0.89240 0.54431 0.09700
C 	C 	0.39160 0.85009 0.61469 0.10100
C 	C 	0.36970 0.93158 0.63216 0.09900
