data_crystal

_cell_length_a 7.04720
_cell_length_b 13.49190
_cell_length_c 13.49190
_cell_angle_alpha 97.13640
_cell_angle_beta  98.65850
_cell_angle_gamma 98.65850

_symmetry_space_group_name_	'P 1'
_symmetry_space_group_name_H-M	'P 1'

loop_
_symmetry_equiv_pos_as_xyz
  x,y,z

loop_
_atom_site_label
_atom_site_type_symbol
_atom_site_fract_x
_atom_site_fract_y
_atom_site_fract_z
_atom_site_charge
Co	Co	-0.00000 0.00000 -0.00000 1.01500
Co	Co	0.50000 0.00000 0.50000 1.10800
Co	Co	0.50000 0.50000 -0.00000 1.10800
H 	H 	0.06140 0.00280 0.77460 -0.02700
H 	H 	0.58190 0.00610 0.88430 0.06300
H 	H 	0.41450 0.00720 0.72540 0.02500
H 	H 	0.93860 0.22540 0.99720 0.14000
H 	H 	0.41810 0.11570 0.99390 0.07200
H 	H 	0.58550 0.27460 0.99280 0.05700
H 	H 	0.93860 0.99720 0.22540 0.14000
H 	H 	0.41810 0.99390 0.11570 0.07200
H 	H 	0.58550 0.99280 0.27460 0.05700
H 	H 	0.06140 0.77460 0.00280 -0.02700
H 	H 	0.58190 0.88430 0.00610 0.06300
H 	H 	0.41450 0.72540 0.00720 0.02500
C 	C 	0.82770 0.00256 0.66966 0.01400
C 	C 	0.92810 0.00321 0.76587 0.10500
C 	C 	0.64890 0.00542 0.82996 0.00200
C 	C 	0.54730 0.00561 0.73365 0.03100
C 	C 	0.92130 0.00078 0.57988 0.05200
C 	C 	0.17230 0.33034 0.99744 0.06400
C 	C 	0.07190 0.23413 0.99679 -0.06600
C 	C 	0.35110 0.17004 0.99458 0.00400
C 	C 	0.45270 0.26635 0.99439 0.06400
C 	C 	0.07870 0.42012 0.99922 0.18800
C 	C 	0.17230 0.99744 0.33034 0.06400
C 	C 	0.07190 0.99679 0.23413 -0.06600
C 	C 	0.35110 0.99458 0.17004 0.00400
C 	C 	0.45270 0.99439 0.26635 0.06400
C 	C 	0.07870 0.99922 0.42012 0.18800
C 	C 	0.82770 0.66966 0.00256 0.01400
C 	C 	0.92810 0.76587 0.00321 0.10500
C 	C 	0.64890 0.82996 0.00542 0.00200
C 	C 	0.54730 0.73365 0.00561 0.03100
C 	C 	0.92130 0.57988 0.00078 0.05200
N 	N 	0.63380 0.00357 0.65287 -0.20800
N 	N 	0.83990 0.00436 0.84696 -0.18100
N 	N 	0.80670 0.99985 0.49081 -0.06500
N 	N 	0.11400 0.00020 0.59182 -0.10800
N 	N 	0.36620 0.34713 0.99643 -0.16900
N 	N 	0.16010 0.15304 0.99564 -0.15800
N 	N 	0.19330 0.50919 0.00015 -0.25000
N 	N 	0.88600 0.40818 0.99980 -0.04800
N 	N 	0.36620 0.99643 0.34713 -0.16900
N 	N 	0.16010 0.99564 0.15304 -0.15800
N 	N 	0.19330 0.00015 0.50919 -0.25000
N 	N 	0.88600 0.99980 0.40818 -0.04800
N 	N 	0.63380 0.65287 0.00357 -0.20800
N 	N 	0.83990 0.84696 0.00436 -0.18100
N 	N 	0.80670 0.49081 0.99985 -0.06500
N 	N 	0.11400 0.59182 0.00020 -0.10800
Cl	Cl	0.60430 0.17652 0.52468 -0.43800
Cl	Cl	0.39570 0.47532 0.82348 -0.32500
Cl	Cl	0.39570 0.82348 0.47532 -0.32500
Cl	Cl	0.60430 0.52468 0.17652 -0.43800
Cl	Cl	0.76422 0.07688 0.07688 -0.64500
Cl	Cl	0.23578 0.92312 0.92312 -0.26200
