data_crystal

_cell_length_a 21.74200
_cell_length_b 7.36700
_cell_length_c 14.41700
_cell_angle_alpha 90.00000
_cell_angle_beta  90.00000
_cell_angle_gamma 90.00000

_symmetry_space_group_name_	'P 1'
_symmetry_space_group_name_H-M	'P 1'

loop_
_symmetry_equiv_pos_as_xyz
  x,y,z

loop_
_atom_site_label
_atom_site_type_symbol
_atom_site_fract_x
_atom_site_fract_y
_atom_site_fract_z
_atom_site_charge
N 	N 	0.43520 0.34490 0.55970 -0.21900
C 	C 	0.38760 0.60150 0.39080 0.09000
H 	H 	0.37690 0.48140 0.37920 -0.03000
C 	C 	0.30050 0.85200 0.22390 -0.06500
C 	C 	0.25380 0.85000 0.33180 -0.06400
H 	H 	0.33470 0.92630 0.20610 0.04600
H 	H 	0.25580 0.91420 0.38970 0.05600
N 	N 	0.93520 0.84490 0.05970 -0.21600
C 	C 	0.88760 0.10150 0.89080 0.02800
H 	H 	0.87690 0.98140 0.87920 0.04900
C 	C 	0.80050 0.35200 0.72390 -0.06300
C 	C 	0.75380 0.35000 0.83180 -0.06300
H 	H 	0.83470 0.42630 0.70610 0.05400
H 	H 	0.75580 0.41420 0.88970 0.06500
N 	N 	0.56480 0.15510 0.55970 -0.21200
C 	C 	0.61240 0.89850 0.39080 0.17000
H 	H 	0.62310 0.01860 0.37920 -0.08600
C 	C 	0.69950 0.64800 0.22390 -0.06500
C 	C 	0.74620 0.65000 0.33180 -0.06700
H 	H 	0.66530 0.57370 0.20610 0.03300
H 	H 	0.74420 0.58580 0.38970 0.04900
N 	N 	0.06480 0.65510 0.05970 -0.24100
C 	C 	0.11240 0.39850 0.89080 0.09600
H 	H 	0.12310 0.51860 0.87920 -0.01200
C 	C 	0.19950 0.14800 0.72390 -0.06300
C 	C 	0.24620 0.15000 0.83180 -0.06700
H 	H 	0.16530 0.07370 0.70610 0.02900
H 	H 	0.24420 0.08580 0.88970 0.05500
N 	N 	0.56480 0.84490 0.44030 -0.22300
C 	C 	0.61240 0.10150 0.60920 0.01100
H 	H 	0.62310 0.98140 0.62080 0.03700
C 	C 	0.69950 0.35200 0.77610 -0.05300
C 	C 	0.74620 0.35000 0.66820 -0.05400
H 	H 	0.66530 0.42630 0.79390 0.05200
H 	H 	0.74420 0.41420 0.61030 0.04700
N 	N 	0.06480 0.34490 0.94030 -0.20300
C 	C 	0.11240 0.60150 0.10920 0.07600
H 	H 	0.12310 0.48140 0.12080 -0.04000
C 	C 	0.19950 0.85200 0.27610 -0.05600
C 	C 	0.24620 0.85000 0.16820 -0.05600
H 	H 	0.16530 0.92630 0.29390 0.04600
H 	H 	0.24420 0.91420 0.11030 0.03900
N 	N 	0.43520 0.65510 0.44030 -0.22000
C 	C 	0.38760 0.39850 0.60920 0.09000
H 	H 	0.37690 0.51860 0.62080 -0.01900
C 	C 	0.30050 0.14800 0.77610 -0.05700
C 	C 	0.25380 0.15000 0.66820 -0.06400
H 	H 	0.33470 0.07370 0.79390 0.04100
H 	H 	0.25580 0.08580 0.61030 0.03400
N 	N 	0.93520 0.15510 0.94030 -0.17000
C 	C 	0.88760 0.89850 0.10920 0.16600
H 	H 	0.87690 0.01860 0.12080 -0.08800
C 	C 	0.80050 0.64800 0.27610 -0.06100
C 	C 	0.75380 0.65000 0.16820 -0.06600
H 	H 	0.83470 0.57370 0.29390 0.04700
H 	H 	0.75580 0.58580 0.11030 0.03000
N 	N 	0.56480 0.65510 0.44030 -0.22000
C 	C 	0.61240 0.39850 0.60920 0.09000
H 	H 	0.62310 0.51860 0.62080 -0.01900
C 	C 	0.69950 0.14800 0.77610 -0.05500
C 	C 	0.74620 0.15000 0.66820 -0.06000
H 	H 	0.66530 0.07370 0.79390 0.04100
H 	H 	0.74420 0.08580 0.61030 0.03700
N 	N 	0.06480 0.15510 0.94030 -0.19500
C 	C 	0.11240 0.89850 0.10920 0.15900
H 	H 	0.12310 0.01860 0.12080 -0.09800
C 	C 	0.19950 0.64800 0.27610 -0.05800
C 	C 	0.24620 0.65000 0.16820 -0.06300
H 	H 	0.16530 0.57370 0.29390 0.03300
H 	H 	0.24420 0.58580 0.11030 0.02800
N 	N 	0.43520 0.84490 0.44030 -0.22300
C 	C 	0.38760 0.10150 0.60920 0.01100
H 	H 	0.37690 0.98140 0.62080 0.03700
C 	C 	0.30050 0.35200 0.77610 -0.05500
C 	C 	0.25380 0.35000 0.66820 -0.05700
H 	H 	0.33470 0.42630 0.79390 0.05300
H 	H 	0.25580 0.41420 0.61030 0.04400
N 	N 	0.93520 0.34490 0.94030 -0.17800
C 	C 	0.88760 0.60150 0.10920 0.08500
H 	H 	0.87690 0.48140 0.12080 -0.03100
C 	C 	0.80050 0.85200 0.27610 -0.05900
C 	C 	0.75380 0.85000 0.16820 -0.05900
H 	H 	0.83470 0.92630 0.29390 0.05900
H 	H 	0.75580 0.91420 0.11030 0.04000
N 	N 	0.43520 0.15510 0.55970 -0.21200
C 	C 	0.38760 0.89850 0.39080 0.17100
H 	H 	0.37690 0.01860 0.37920 -0.08700
C 	C 	0.30050 0.64800 0.22390 -0.06800
C 	C 	0.25380 0.65000 0.33180 -0.07100
H 	H 	0.33470 0.57370 0.20610 0.03400
H 	H 	0.25580 0.58580 0.38970 0.04600
N 	N 	0.93520 0.65510 0.05970 -0.21200
C 	C 	0.88760 0.39850 0.89080 0.10400
H 	H 	0.87690 0.51860 0.87920 -0.00400
C 	C 	0.80050 0.14800 0.72390 -0.06500
C 	C 	0.75380 0.15000 0.83180 -0.07000
H 	H 	0.83470 0.07370 0.70610 0.04300
H 	H 	0.75580 0.08580 0.88970 0.05600
N 	N 	0.56480 0.34490 0.55970 -0.21900
C 	C 	0.61240 0.60150 0.39080 0.08900
H 	H 	0.62310 0.48140 0.37920 -0.02900
C 	C 	0.69950 0.85200 0.22390 -0.06300
C 	C 	0.74620 0.85000 0.33180 -0.06000
H 	H 	0.66530 0.92630 0.20610 0.04500
H 	H 	0.74420 0.91420 0.38970 0.05900
N 	N 	0.06480 0.84490 0.05970 -0.24400
C 	C 	0.11240 0.10150 0.89080 0.01900
H 	H 	0.12310 0.98140 0.87920 0.04300
C 	C 	0.19950 0.35200 0.72390 -0.06100
C 	C 	0.24620 0.35000 0.83180 -0.06000
H 	H 	0.16530 0.42630 0.70610 0.04100
H 	H 	0.24420 0.41420 0.88970 0.06400
Cu	Cu	0.50000 0.50000 0.50000 0.83100
Cu	Cu	-0.00000 0.00000 -0.00000 0.74800
Cu	Cu	0.50000 -0.00000 0.50000 0.81200
Cu	Cu	-0.00000 0.50000 -0.00000 0.76700
N 	N 	0.35660 0.75000 0.35920 -0.17300
C 	C 	0.30200 0.75000 0.30290 0.13200
N 	N 	0.85660 0.25000 0.85920 -0.14500
C 	C 	0.80200 0.25000 0.80290 0.12600
N 	N 	0.64340 0.75000 0.35920 -0.17200
C 	C 	0.69800 0.75000 0.30290 0.12800
N 	N 	0.14340 0.25000 0.85920 -0.14600
C 	C 	0.19800 0.25000 0.80290 0.11900
N 	N 	0.64340 0.25000 0.64080 -0.14400
C 	C 	0.69800 0.25000 0.69710 0.10700
N 	N 	0.14340 0.75000 0.14080 -0.17200
C 	C 	0.19800 0.75000 0.19710 0.11500
N 	N 	0.35660 0.25000 0.64080 -0.14500
C 	C 	0.30200 0.25000 0.69710 0.11100
N 	N 	0.85660 0.75000 0.14080 -0.17100
C 	C 	0.80200 0.75000 0.19710 0.12300
