data_crystal

_cell_length_a 20.78000
_cell_length_b 7.23670
_cell_length_c 15.49500
_cell_angle_alpha 90.00000
_cell_angle_beta  90.00000
_cell_angle_gamma 90.00000

_symmetry_space_group_name_	'P 1'
_symmetry_space_group_name_H-M	'P 1'

loop_
_symmetry_equiv_pos_as_xyz
  x,y,z

loop_
_atom_site_label
_atom_site_type_symbol
_atom_site_fract_x
_atom_site_fract_y
_atom_site_fract_z
_atom_site_charge
N 	N 	0.43220 0.14780 0.44140 -0.19800
C 	C 	0.38680 0.09100 0.39260 0.07300
H 	H 	0.37500 0.96940 0.38230 0.01500
C 	C 	0.26670 0.12500 0.28400 -0.04500
H 	H 	0.28830 0.00820 0.28780 0.09300
C 	C 	0.30140 0.09900 0.23800 -0.32800
H 	H 	0.33010 0.99640 0.23080 0.13700
N 	N 	0.93220 0.64780 0.94140 -0.16300
C 	C 	0.88680 0.59100 0.89260 0.12700
H 	H 	0.87500 0.46940 0.88230 0.00600
C 	C 	0.76670 0.62500 0.78400 -0.01700
H 	H 	0.78830 0.50820 0.78780 0.08100
C 	C 	0.80140 0.59900 0.73800 -0.22700
H 	H 	0.83010 0.49640 0.73080 0.10600
N 	N 	0.56780 0.35220 0.44140 -0.20300
C 	C 	0.61320 0.40900 0.39260 0.12300
H 	H 	0.62500 0.53060 0.38230 -0.01600
C 	C 	0.73330 0.37500 0.28400 -0.40800
H 	H 	0.71170 0.49180 0.28780 0.19100
C 	C 	0.69860 0.40100 0.23800 -0.19300
H 	H 	0.66990 0.50360 0.23080 0.06200
N 	N 	0.06780 0.85220 0.94140 -0.18000
C 	C 	0.11320 0.90900 0.89260 0.16900
H 	H 	0.12500 0.03060 0.88230 -0.02900
C 	C 	0.23330 0.87500 0.78400 -0.35800
H 	H 	0.21170 0.99180 0.78780 0.17100
C 	C 	0.19860 0.90100 0.73800 -0.09300
H 	H 	0.16990 0.00360 0.73080 0.02500
N 	N 	0.56780 0.64780 0.55860 -0.19800
C 	C 	0.61320 0.59100 0.60740 0.11100
H 	H 	0.62500 0.46940 0.61770 -0.00200
C 	C 	0.73330 0.62500 0.71600 0.13300
H 	H 	0.71170 0.50820 0.71220 0.02500
C 	C 	0.69860 0.59900 0.76200 -0.18600
H 	H 	0.66990 0.49640 0.76920 0.10500
N 	N 	0.06780 0.14780 0.05860 -0.21100
C 	C 	0.11320 0.09100 0.10740 0.05200
H 	H 	0.12500 0.96940 0.11770 0.01900
C 	C 	0.23330 0.12500 0.21600 0.26500
H 	H 	0.21170 0.00820 0.21220 -0.01800
C 	C 	0.19860 0.09900 0.26200 -0.25500
H 	H 	0.16990 0.99640 0.26920 0.13800
N 	N 	0.43220 0.85220 0.55860 -0.19900
C 	C 	0.38680 0.90900 0.60740 0.14000
H 	H 	0.37500 0.03060 0.61770 -0.02100
C 	C 	0.26670 0.87500 0.71600 0.22200
H 	H 	0.28830 0.99180 0.71220 -0.03300
C 	C 	0.30140 0.90100 0.76200 0.03500
H 	H 	0.33010 0.00360 0.76920 0.02800
N 	N 	0.93220 0.35220 0.05860 -0.19700
C 	C 	0.88680 0.40900 0.10740 0.08700
H 	H 	0.87500 0.53060 0.11770 0.00600
C 	C 	0.76670 0.37500 0.21600 0.37300
H 	H 	0.78830 0.49180 0.21220 -0.08100
C 	C 	0.80140 0.40100 0.26200 -0.02600
H 	H 	0.83010 0.50360 0.26920 0.06800
N 	N 	0.56780 0.85220 0.55860 -0.20000
C 	C 	0.61320 0.90900 0.60740 0.14900
H 	H 	0.62500 0.03060 0.61770 -0.02700
C 	C 	0.73330 0.87500 0.71600 0.00900
H 	H 	0.71170 0.99180 0.71220 0.04100
C 	C 	0.69860 0.90100 0.76200 -0.01100
H 	H 	0.66990 0.00360 0.76920 0.03100
N 	N 	0.06780 0.35220 0.05860 -0.21500
C 	C 	0.11320 0.40900 0.10740 0.09100
H 	H 	0.12500 0.53060 0.11770 -0.00700
C 	C 	0.23330 0.37500 0.21600 0.13700
H 	H 	0.21170 0.49180 0.21220 -0.00100
C 	C 	0.19860 0.40100 0.26200 -0.07300
H 	H 	0.16990 0.50360 0.26920 0.06100
N 	N 	0.43220 0.64780 0.55860 -0.19700
C 	C 	0.38680 0.59100 0.60740 0.10200
H 	H 	0.37500 0.46940 0.61770 0.00400
C 	C 	0.26670 0.62500 0.71600 0.35000
H 	H 	0.28830 0.50820 0.71220 -0.05000
C 	C 	0.30140 0.59900 0.76200 -0.14600
H 	H 	0.33010 0.49640 0.76920 0.10400
N 	N 	0.93220 0.14780 0.05860 -0.19300
C 	C 	0.88680 0.09100 0.10740 0.05100
H 	H 	0.87500 0.96940 0.11770 0.03000
C 	C 	0.76670 0.12500 0.21600 0.49500
H 	H 	0.78830 0.00820 0.21220 -0.09700
C 	C 	0.80140 0.09900 0.26200 -0.20000
H 	H 	0.83010 0.99640 0.26920 0.14100
N 	N 	0.43220 0.35220 0.44140 -0.20100
C 	C 	0.38680 0.40900 0.39260 0.11300
H 	H 	0.37500 0.53060 0.38230 -0.00900
C 	C 	0.26670 0.37500 0.28400 -0.17300
H 	H 	0.28830 0.49180 0.28780 0.11000
C 	C 	0.30140 0.40100 0.23800 -0.14600
H 	H 	0.33010 0.50360 0.23080 0.06100
N 	N 	0.93220 0.85220 0.94140 -0.16500
C 	C 	0.88680 0.90900 0.89260 0.16300
H 	H 	0.87500 0.03060 0.88230 -0.01700
C 	C 	0.76670 0.87500 0.78400 -0.14000
H 	H 	0.78830 0.99180 0.78780 0.09700
C 	C 	0.80140 0.90100 0.73800 -0.05200
H 	H 	0.83010 0.00360 0.73080 0.03200
N 	N 	0.56780 0.14780 0.44140 -0.19800
C 	C 	0.61320 0.09100 0.39260 0.08500
H 	H 	0.62500 0.96940 0.38230 0.00900
C 	C 	0.73330 0.12500 0.28400 -0.28400
H 	H 	0.71170 0.00820 0.28780 0.17500
C 	C 	0.69860 0.09900 0.23800 -0.36900
H 	H 	0.66990 0.99640 0.23080 0.13600
N 	N 	0.06780 0.64780 0.94140 -0.17700
C 	C 	0.11320 0.59100 0.89260 0.13100
H 	H 	0.12500 0.46940 0.88230 -0.00400
C 	C 	0.23330 0.62500 0.78400 -0.23000
H 	H 	0.21170 0.50820 0.78780 0.15400
C 	C 	0.19860 0.59900 0.73800 -0.27500
H 	H 	0.16990 0.49640 0.73080 0.10100
Br	Br	0.50000 0.75000 0.36090 -0.41800
Br	Br	0.00000 0.25000 0.86090 -0.41000
Br	Br	0.50000 0.25000 0.63910 -0.40700
Br	Br	0.00000 0.75000 0.13910 -0.45000
Cu	Cu	0.50000 0.00000 0.50000 0.87700
Cu	Cu	0.00000 0.50000 -0.00000 0.83500
Cu	Cu	0.50000 0.50000 0.50000 0.88600
Cu	Cu	-0.00000 0.00000 -0.00000 0.82700
N 	N 	0.35840 0.25000 0.35740 -0.16400
C 	C 	0.30180 0.25000 0.30110 0.24600
N 	N 	0.85840 0.75000 0.85740 -0.16000
C 	C 	0.80180 0.75000 0.80110 0.19200
N 	N 	0.64160 0.25000 0.35740 -0.20400
C 	C 	0.69820 0.25000 0.30110 0.48200
N 	N 	0.14160 0.75000 0.85740 -0.19700
C 	C 	0.19820 0.75000 0.80110 0.40500
N 	N 	0.64160 0.75000 0.64260 -0.13600
C 	C 	0.69820 0.75000 0.69890 0.03300
N 	N 	0.14160 0.25000 0.14260 -0.11200
C 	C 	0.19820 0.25000 0.19890 -0.07300
N 	N 	0.35840 0.75000 0.64260 -0.10000
C 	C 	0.30180 0.75000 0.69890 -0.18300
N 	N 	0.85840 0.25000 0.14260 -0.07200
C 	C 	0.80180 0.25000 0.19890 -0.30400
