data_crystal

_cell_length_a 20.83800
_cell_length_b 7.24500
_cell_length_c 15.52000
_cell_angle_alpha 90.00000
_cell_angle_beta  90.00000
_cell_angle_gamma 90.00000

_symmetry_space_group_name_	'P 1'
_symmetry_space_group_name_H-M	'P 1'

loop_
_symmetry_equiv_pos_as_xyz
  x,y,z

loop_
_atom_site_label
_atom_site_type_symbol
_atom_site_fract_x
_atom_site_fract_y
_atom_site_fract_z
_atom_site_charge
N 	N 	0.06740 0.64660 0.44090 -0.21000
C 	C 	0.11250 0.40800 0.60350 0.11900
H 	H 	0.12390 0.52990 0.61330 -0.00600
C 	C 	0.26000 0.14400 0.67300 -0.02900
C 	C 	0.20400 0.39400 0.75500 -0.07500
H 	H 	0.25310 0.05170 0.62960 0.03100
H 	H 	0.17280 0.48950 0.76230 0.07100
N 	N 	0.56740 0.14660 0.94090 -0.16900
C 	C 	0.61250 0.90800 0.10350 0.19600
H 	H 	0.62390 0.02990 0.11330 -0.07600
C 	C 	0.76000 0.64400 0.17300 -0.03000
C 	C 	0.70400 0.89400 0.25500 -0.07700
H 	H 	0.75310 0.55170 0.12960 0.02700
H 	H 	0.67280 0.98950 0.26230 0.07600
N 	N 	0.93260 0.85340 0.44090 -0.19900
C 	C 	0.88750 0.09200 0.60350 0.04400
H 	H 	0.87610 0.97010 0.61330 0.05600
C 	C 	0.74000 0.35600 0.67300 -0.03600
C 	C 	0.79600 0.10600 0.75500 -0.08400
H 	H 	0.74690 0.44830 0.62960 0.04700
H 	H 	0.82720 0.01050 0.76230 0.06500
N 	N 	0.43260 0.35340 0.94090 -0.18000
C 	C 	0.38750 0.59200 0.10350 0.11400
H 	H 	0.37610 0.47010 0.11330 -0.02000
C 	C 	0.24000 0.85600 0.17300 -0.03900
C 	C 	0.29600 0.60600 0.25500 -0.08500
H 	H 	0.24690 0.94830 0.12960 0.04100
H 	H 	0.32720 0.51050 0.26230 0.06300
N 	N 	0.93260 0.14660 0.55910 -0.18200
C 	C 	0.88750 0.90800 0.39650 0.20500
H 	H 	0.87610 0.02990 0.38670 -0.06200
C 	C 	0.74000 0.64400 0.32700 -0.02900
C 	C 	0.79600 0.89400 0.24500 -0.08100
H 	H 	0.74690 0.55170 0.37040 0.04000
H 	H 	0.82720 0.98950 0.23770 0.07600
N 	N 	0.43260 0.64660 0.05910 -0.21900
C 	C 	0.38750 0.40800 0.89650 0.12800
H 	H 	0.37610 0.52990 0.88670 0.00500
C 	C 	0.24000 0.14400 0.82700 -0.02600
C 	C 	0.29600 0.39400 0.74500 -0.07700
H 	H 	0.24690 0.05170 0.87040 0.04400
H 	H 	0.32720 0.48950 0.73770 0.06800
N 	N 	0.06740 0.35340 0.55910 -0.20900
C 	C 	0.11250 0.59200 0.39650 0.12000
H 	H 	0.12390 0.47010 0.38670 -0.01200
C 	C 	0.26000 0.85600 0.32700 -0.03200
C 	C 	0.20400 0.60600 0.24500 -0.08500
H 	H 	0.25310 0.94830 0.37040 0.05500
H 	H 	0.17280 0.51050 0.23770 0.05400
N 	N 	0.56740 0.85340 0.05910 -0.22600
C 	C 	0.61250 0.09200 0.89650 0.04900
H 	H 	0.62390 0.97010 0.88670 0.06100
C 	C 	0.76000 0.35600 0.82700 -0.02700
C 	C 	0.70400 0.10600 0.74500 -0.08200
H 	H 	0.75310 0.44830 0.87040 0.06100
H 	H 	0.67280 0.01050 0.73770 0.05400
N 	N 	0.93260 0.35340 0.55910 -0.19300
C 	C 	0.88750 0.59200 0.39650 0.12500
H 	H 	0.87610 0.47010 0.38670 -0.00600
C 	C 	0.74000 0.85600 0.32700 -0.03400
C 	C 	0.79600 0.60600 0.24500 -0.08700
H 	H 	0.74690 0.94830 0.37040 0.05500
H 	H 	0.82720 0.51050 0.23770 0.06200
N 	N 	0.43260 0.85340 0.05910 -0.22600
C 	C 	0.38750 0.09200 0.89650 0.04800
H 	H 	0.37610 0.97010 0.88670 0.06100
C 	C 	0.24000 0.35600 0.82700 -0.03200
C 	C 	0.29600 0.10600 0.74500 -0.08400
H 	H 	0.24690 0.44830 0.87040 0.05900
H 	H 	0.32720 0.01050 0.73770 0.05400
N 	N 	0.06740 0.14660 0.55910 -0.19800
C 	C 	0.11250 0.90800 0.39650 0.20300
H 	H 	0.12390 0.02990 0.38670 -0.06900
C 	C 	0.26000 0.64400 0.32700 -0.02700
C 	C 	0.20400 0.89400 0.24500 -0.07800
H 	H 	0.25310 0.55170 0.37040 0.04000
H 	H 	0.17280 0.98950 0.23770 0.06900
N 	N 	0.56740 0.64660 0.05910 -0.21900
C 	C 	0.61250 0.40800 0.89650 0.12800
H 	H 	0.62390 0.52990 0.88670 0.00600
C 	C 	0.76000 0.14400 0.82700 -0.02200
C 	C 	0.70400 0.39400 0.74500 -0.07600
H 	H 	0.75310 0.05170 0.87040 0.04600
H 	H 	0.67280 0.48950 0.73770 0.06800
N 	N 	0.06740 0.85340 0.44090 -0.21600
C 	C 	0.11250 0.09200 0.60350 0.03800
H 	H 	0.12390 0.97010 0.61330 0.05200
C 	C 	0.26000 0.35600 0.67300 -0.03400
C 	C 	0.20400 0.10600 0.75500 -0.08200
H 	H 	0.25310 0.44830 0.62960 0.04600
H 	H 	0.17280 0.01050 0.76230 0.05700
N 	N 	0.56740 0.35340 0.94090 -0.18000
C 	C 	0.61250 0.59200 0.10350 0.11400
H 	H 	0.62390 0.47010 0.11330 -0.02000
C 	C 	0.76000 0.85600 0.17300 -0.03500
C 	C 	0.70400 0.60600 0.25500 -0.08300
H 	H 	0.75310 0.94830 0.12960 0.04300
H 	H 	0.67280 0.51050 0.26230 0.06200
N 	N 	0.93260 0.64660 0.44090 -0.19300
C 	C 	0.88750 0.40800 0.60350 0.12400
H 	H 	0.87610 0.52990 0.61330 -0.00000
C 	C 	0.74000 0.14400 0.67300 -0.03100
C 	C 	0.79600 0.39400 0.75500 -0.07800
H 	H 	0.74690 0.05170 0.62960 0.03200
H 	H 	0.82720 0.48950 0.76230 0.07900
N 	N 	0.43260 0.14660 0.94090 -0.16900
C 	C 	0.38750 0.90800 0.10350 0.19700
H 	H 	0.37610 0.02990 0.11330 -0.07700
C 	C 	0.24000 0.64400 0.17300 -0.03400
C 	C 	0.29600 0.89400 0.25500 -0.07900
H 	H 	0.24690 0.55170 0.12960 0.02500
H 	H 	0.32720 0.98950 0.26230 0.07700
Br	Br	-0.00000 0.75000 0.63890 -0.41100
Br	Br	0.50000 0.25000 0.13890 -0.45100
Br	Br	-0.00000 0.25000 0.36110 -0.47100
Br	Br	0.50000 0.75000 0.86110 -0.34900
Cu	Cu	-0.00000 0.50000 0.50000 0.87400
Cu	Cu	0.50000 0.00000 -0.00000 0.82900
Cu	Cu	-0.00000 0.00000 0.50000 0.85500
Cu	Cu	0.50000 0.50000 -0.00000 0.84800
N 	N 	0.14380 0.25000 0.63690 -0.13800
C 	C 	0.19720 0.25000 0.69900 0.10200
N 	N 	0.64380 0.75000 0.13690 -0.16300
C 	C 	0.69720 0.75000 0.19900 0.10900
N 	N 	0.85620 0.25000 0.63690 -0.13800
C 	C 	0.80280 0.25000 0.69900 0.10800
N 	N 	0.35620 0.75000 0.13690 -0.16400
C 	C 	0.30280 0.75000 0.19900 0.11200
N 	N 	0.85620 0.75000 0.36310 -0.16100
C 	C 	0.80280 0.75000 0.30100 0.11500
N 	N 	0.35620 0.25000 0.86310 -0.13700
C 	C 	0.30280 0.25000 0.80100 0.10400
N 	N 	0.14380 0.75000 0.36310 -0.16200
C 	C 	0.19720 0.75000 0.30100 0.10900
N 	N 	0.64380 0.25000 0.86310 -0.13600
C 	C 	0.69720 0.25000 0.80100 0.10200
