data_crystal

_cell_length_a 20.65600
_cell_length_b 7.25900
_cell_length_c 15.55000
_cell_angle_alpha 90.00000
_cell_angle_beta  90.00000
_cell_angle_gamma 90.00000

_symmetry_space_group_name_	'P 1'
_symmetry_space_group_name_H-M	'P 1'

loop_
_symmetry_equiv_pos_as_xyz
  x,y,z

loop_
_atom_site_label
_atom_site_type_symbol
_atom_site_fract_x
_atom_site_fract_y
_atom_site_fract_z
_atom_site_charge
N 	N 	0.43120 0.34610 0.44460 -0.19200
C 	C 	0.38590 0.59360 0.60800 0.10000
H 	H 	0.37540 0.47160 0.61930 -0.00200
C 	C 	0.25500 0.61500 0.68900 0.01000
C 	C 	0.29600 0.62200 0.75700 -0.15300
H 	H 	0.26890 0.50330 0.66170 0.02800
H 	H 	0.33130 0.54100 0.77170 0.09100
N 	N 	0.93120 0.84610 0.94460 -0.15900
C 	C 	0.88590 0.09360 0.10800 0.02300
H 	H 	0.87540 0.97160 0.11930 0.04800
C 	C 	0.75500 0.11500 0.18900 -0.00800
C 	C 	0.79600 0.12200 0.25700 -0.13600
H 	H 	0.76890 0.00330 0.16170 0.01600
H 	H 	0.83130 0.04100 0.27170 0.07600
N 	N 	0.56880 0.15390 0.44460 -0.18500
C 	C 	0.61410 0.90640 0.60800 0.16500
H 	H 	0.62460 0.02840 0.61930 -0.04700
C 	C 	0.74500 0.88500 0.68900 0.00700
C 	C 	0.70400 0.87800 0.75700 -0.14100
H 	H 	0.73110 0.99670 0.66170 0.04400
H 	H 	0.66870 0.95900 0.77170 0.09800
N 	N 	0.06880 0.65390 0.94460 -0.16800
C 	C 	0.11410 0.40640 0.10800 0.08200
H 	H 	0.12460 0.52840 0.11930 -0.00400
C 	C 	0.24500 0.38500 0.18900 -0.01600
C 	C 	0.20400 0.37800 0.25700 -0.11700
H 	H 	0.23110 0.49670 0.16170 0.03200
H 	H 	0.16870 0.45900 0.27170 0.07300
N 	N 	0.56880 0.84610 0.55540 -0.19300
C 	C 	0.61410 0.09360 0.39200 0.02600
H 	H 	0.62460 0.97160 0.38070 0.05000
C 	C 	0.74500 0.11500 0.31100 0.00800
C 	C 	0.70400 0.12200 0.24300 -0.12800
H 	H 	0.73110 0.00330 0.33830 0.02000
H 	H 	0.66870 0.04100 0.22830 0.06200
N 	N 	0.06880 0.34610 0.05540 -0.20800
C 	C 	0.11410 0.59360 0.89200 0.10600
H 	H 	0.12460 0.47160 0.88070 0.00700
C 	C 	0.24500 0.61500 0.81100 0.02300
C 	C 	0.20400 0.62200 0.74300 -0.14900
H 	H 	0.23110 0.50330 0.83830 0.03400
H 	H 	0.16870 0.54100 0.72830 0.08100
N 	N 	0.43120 0.65390 0.55540 -0.19100
C 	C 	0.38590 0.40640 0.39200 0.09200
H 	H 	0.37540 0.52840 0.38070 0.00200
C 	C 	0.25500 0.38500 0.31100 -0.00900
C 	C 	0.29600 0.37800 0.24300 -0.12000
H 	H 	0.26890 0.49670 0.33830 0.03800
H 	H 	0.33130 0.45900 0.22830 0.06900
N 	N 	0.93120 0.15390 0.05540 -0.18600
C 	C 	0.88590 0.90640 0.89200 0.17300
H 	H 	0.87540 0.02840 0.88070 -0.03300
C 	C 	0.75500 0.88500 0.81100 0.01100
C 	C 	0.79600 0.87800 0.74300 -0.14700
H 	H 	0.76890 0.99670 0.83830 0.05100
H 	H 	0.83130 0.95900 0.72830 0.09700
N 	N 	0.56880 0.65390 0.55540 -0.19100
C 	C 	0.61410 0.40640 0.39200 0.09200
H 	H 	0.62460 0.52840 0.38070 0.00300
C 	C 	0.74500 0.38500 0.31100 -0.00100
C 	C 	0.70400 0.37800 0.24300 -0.11800
H 	H 	0.73110 0.49670 0.33830 0.03700
H 	H 	0.66870 0.45900 0.22830 0.06900
N 	N 	0.06880 0.15390 0.05540 -0.20100
C 	C 	0.11410 0.90640 0.89200 0.17000
H 	H 	0.12460 0.02840 0.88070 -0.03800
C 	C 	0.24500 0.88500 0.81100 0.01300
C 	C 	0.20400 0.87800 0.74300 -0.13900
H 	H 	0.23110 0.99670 0.83830 0.05000
H 	H 	0.16870 0.95900 0.72830 0.08800
N 	N 	0.43120 0.84610 0.55540 -0.19300
C 	C 	0.38590 0.09360 0.39200 0.02500
H 	H 	0.37540 0.97160 0.38070 0.05000
C 	C 	0.25500 0.11500 0.31100 0.00000
C 	C 	0.29600 0.12200 0.24300 -0.13000
H 	H 	0.26890 0.00330 0.33830 0.02100
H 	H 	0.33130 0.04100 0.22830 0.06200
N 	N 	0.93120 0.34610 0.05540 -0.19200
C 	C 	0.88590 0.59360 0.89200 0.11100
H 	H 	0.87540 0.47160 0.88070 0.01100
C 	C 	0.75500 0.61500 0.81100 0.02000
C 	C 	0.79600 0.62200 0.74300 -0.15600
H 	H 	0.76890 0.50330 0.83830 0.03500
H 	H 	0.83130 0.54100 0.72830 0.09000
N 	N 	0.43120 0.15390 0.44460 -0.18500
C 	C 	0.38590 0.90640 0.60800 0.16600
H 	H 	0.37540 0.02840 0.61930 -0.04800
C 	C 	0.25500 0.88500 0.68900 0.00000
C 	C 	0.29600 0.87800 0.75700 -0.14300
H 	H 	0.26890 0.99670 0.66170 0.04500
H 	H 	0.33130 0.95900 0.77170 0.09800
N 	N 	0.93120 0.65390 0.94460 -0.15600
C 	C 	0.88590 0.40640 0.10800 0.08900
H 	H 	0.87540 0.52840 0.11930 0.00100
C 	C 	0.75500 0.38500 0.18900 -0.01800
C 	C 	0.79600 0.37800 0.25700 -0.12600
H 	H 	0.76890 0.49670 0.16170 0.03300
H 	H 	0.83130 0.45900 0.27170 0.08300
N 	N 	0.56880 0.34610 0.44460 -0.19200
C 	C 	0.61410 0.59360 0.60800 0.10000
H 	H 	0.62460 0.47160 0.61930 -0.00100
C 	C 	0.74500 0.61500 0.68900 0.01700
C 	C 	0.70400 0.62200 0.75700 -0.15100
H 	H 	0.73110 0.50330 0.66170 0.02800
H 	H 	0.66870 0.54100 0.77170 0.09100
N 	N 	0.06880 0.84610 0.94460 -0.17100
C 	C 	0.11410 0.09360 0.10800 0.01400
H 	H 	0.12460 0.97160 0.11930 0.04500
C 	C 	0.24500 0.11500 0.18900 -0.00600
C 	C 	0.20400 0.12200 0.25700 -0.12700
H 	H 	0.23110 0.00330 0.16170 0.01400
H 	H 	0.16870 0.04100 0.27170 0.06600
Br	Br	0.50000 0.25000 0.63830 -0.42500
Br	Br	0.00000 0.75000 0.13830 -0.44900
Br	Br	0.50000 0.75000 0.36170 -0.40800
Br	Br	0.00000 0.25000 0.86170 -0.42200
Cu	Cu	0.50000 0.50000 0.50000 0.88200
Cu	Cu	-0.00000 0.00000 -0.00000 0.81900
Cu	Cu	0.50000 0.00000 0.50000 0.86700
Cu	Cu	0.00000 0.50000 -0.00000 0.83500
N 	N 	0.35710 0.75000 0.64200 -0.16300
C 	C 	0.30460 0.75000 0.70700 0.16600
N 	N 	0.85710 0.25000 0.14200 -0.14300
C 	C 	0.80460 0.25000 0.20700 0.14900
N 	N 	0.64290 0.75000 0.64200 -0.16200
C 	C 	0.69540 0.75000 0.70700 0.16200
N 	N 	0.14290 0.25000 0.14200 -0.14200
C 	C 	0.19540 0.25000 0.20700 0.13700
N 	N 	0.64290 0.25000 0.35800 -0.14000
C 	C 	0.69540 0.25000 0.29300 0.13300
N 	N 	0.14290 0.75000 0.85800 -0.16100
C 	C 	0.19540 0.75000 0.79300 0.15700
N 	N 	0.35710 0.25000 0.35800 -0.14100
C 	C 	0.30460 0.25000 0.29300 0.13800
N 	N 	0.85710 0.75000 0.85800 -0.16100
C 	C 	0.80460 0.75000 0.79300 0.16700
