data_crystal

_cell_length_a 20.89600
_cell_length_b 7.24760
_cell_length_c 15.50300
_cell_angle_alpha 90.00000
_cell_angle_beta  90.00000
_cell_angle_gamma 90.00000

_symmetry_space_group_name_	'P 1'
_symmetry_space_group_name_H-M	'P 1'

loop_
_symmetry_equiv_pos_as_xyz
  x,y,z

loop_
_atom_site_label
_atom_site_type_symbol
_atom_site_fract_x
_atom_site_fract_y
_atom_site_fract_z
_atom_site_charge
N 	N 	0.43240 0.35010 0.55780 -0.20100
C 	C 	0.38490 0.59960 0.39390 0.12100
H 	H 	0.37180 0.47880 0.38430 -0.01200
C 	C 	0.24600 0.84500 0.31700 -0.03300
C 	C 	0.29820 0.89100 0.23900 -0.07800
H 	H 	0.24150 0.90140 0.37270 0.05000
H 	H 	0.32650 0.99470 0.23370 0.07000
N 	N 	0.93240 0.85010 0.05780 -0.20400
C 	C 	0.88490 0.09960 0.89390 0.05200
H 	H 	0.87180 0.97880 0.88430 0.06400
C 	C 	0.74600 0.34500 0.81700 -0.03500
C 	C 	0.79820 0.39100 0.73900 -0.07300
H 	H 	0.74150 0.40140 0.87270 0.05800
H 	H 	0.82650 0.49470 0.73370 0.07000
N 	N 	0.56760 0.14990 0.55780 -0.19100
C 	C 	0.61510 0.90040 0.39390 0.20200
H 	H 	0.62820 0.02120 0.38430 -0.06700
C 	C 	0.75400 0.65500 0.31700 -0.04900
C 	C 	0.70180 0.60900 0.23900 -0.06900
H 	H 	0.75850 0.59860 0.37270 0.04900
H 	H 	0.67350 0.50530 0.23370 0.05000
N 	N 	0.06760 0.64990 0.05780 -0.21700
C 	C 	0.11510 0.40040 0.89390 0.12500
H 	H 	0.12820 0.52120 0.88430 0.00700
C 	C 	0.25400 0.15500 0.81700 -0.05100
C 	C 	0.20180 0.10900 0.73900 -0.06600
H 	H 	0.25850 0.09860 0.87270 0.05400
H 	H 	0.17350 0.00530 0.73370 0.04500
N 	N 	0.56760 0.85010 0.44220 -0.20400
C 	C 	0.61510 0.09960 0.60610 0.04000
H 	H 	0.62820 0.97880 0.61570 0.05300
C 	C 	0.75400 0.34500 0.68300 -0.02800
C 	C 	0.70180 0.39100 0.76100 -0.06300
H 	H 	0.75850 0.40140 0.62730 0.04300
H 	H 	0.67350 0.49470 0.76630 0.06900
N 	N 	0.06760 0.35010 0.94220 -0.17600
C 	C 	0.11510 0.59960 0.10610 0.11200
H 	H 	0.12820 0.47880 0.11570 -0.01900
C 	C 	0.25400 0.84500 0.18300 -0.02700
C 	C 	0.20180 0.89100 0.26100 -0.06900
H 	H 	0.25850 0.90140 0.12730 0.03400
H 	H 	0.17350 0.99470 0.26630 0.07100
N 	N 	0.43240 0.64990 0.44220 -0.20000
C 	C 	0.38490 0.40040 0.60610 0.11900
H 	H 	0.37180 0.52120 0.61570 -0.00400
C 	C 	0.24600 0.15500 0.68300 -0.04500
C 	C 	0.29820 0.10900 0.76100 -0.05500
H 	H 	0.24150 0.09860 0.62730 0.03500
H 	H 	0.32650 0.00530 0.76630 0.04900
N 	N 	0.93240 0.14990 0.94220 -0.15500
C 	C 	0.88490 0.90040 0.10610 0.19600
H 	H 	0.87180 0.02120 0.11570 -0.06900
C 	C 	0.74600 0.65500 0.18300 -0.04500
C 	C 	0.79820 0.60900 0.26100 -0.05900
H 	H 	0.74150 0.59860 0.12730 0.03100
H 	H 	0.82650 0.50530 0.26630 0.05700
N 	N 	0.56760 0.64990 0.44220 -0.20000
C 	C 	0.61510 0.40040 0.60610 0.11900
H 	H 	0.62820 0.52120 0.61570 -0.00300
C 	C 	0.75400 0.15500 0.68300 -0.04400
C 	C 	0.70180 0.10900 0.76100 -0.05500
H 	H 	0.75850 0.09860 0.62730 0.03800
H 	H 	0.67350 0.00530 0.76630 0.04900
N 	N 	0.06760 0.14990 0.94220 -0.16800
C 	C 	0.11510 0.90040 0.10610 0.19300
H 	H 	0.12820 0.02120 0.11570 -0.07500
C 	C 	0.25400 0.65500 0.18300 -0.04400
C 	C 	0.20180 0.60900 0.26100 -0.06000
H 	H 	0.25850 0.59860 0.12730 0.03000
H 	H 	0.17350 0.50530 0.26630 0.05100
N 	N 	0.43240 0.85010 0.44220 -0.20400
C 	C 	0.38490 0.09960 0.60610 0.03900
H 	H 	0.37180 0.97880 0.61570 0.05300
C 	C 	0.24600 0.34500 0.68300 -0.02800
C 	C 	0.29820 0.39100 0.76100 -0.06400
H 	H 	0.24150 0.40140 0.62730 0.04000
H 	H 	0.32650 0.49470 0.76630 0.06900
N 	N 	0.93240 0.35010 0.94220 -0.16300
C 	C 	0.88490 0.59960 0.10610 0.11700
H 	H 	0.87180 0.47880 0.11570 -0.01400
C 	C 	0.74600 0.84500 0.18300 -0.02900
C 	C 	0.79820 0.89100 0.26100 -0.06800
H 	H 	0.74150 0.90140 0.12730 0.03500
H 	H 	0.82650 0.99470 0.26630 0.07700
N 	N 	0.43240 0.14990 0.55780 -0.19100
C 	C 	0.38490 0.90040 0.39390 0.20200
H 	H 	0.37180 0.02120 0.38430 -0.06700
C 	C 	0.24600 0.65500 0.31700 -0.05000
C 	C 	0.29820 0.60900 0.23900 -0.07000
H 	H 	0.24150 0.59860 0.37270 0.04500
H 	H 	0.32650 0.50530 0.23370 0.05000
N 	N 	0.93240 0.64990 0.05780 -0.20100
C 	C 	0.88490 0.40040 0.89390 0.12900
H 	H 	0.87180 0.52120 0.88430 0.01000
C 	C 	0.74600 0.15500 0.81700 -0.05200
C 	C 	0.79820 0.10900 0.73900 -0.06500
H 	H 	0.74150 0.09860 0.87270 0.05400
H 	H 	0.82650 0.00530 0.73370 0.05100
N 	N 	0.56760 0.35010 0.55780 -0.20000
C 	C 	0.61510 0.59960 0.39390 0.12200
H 	H 	0.62820 0.47880 0.38430 -0.01100
C 	C 	0.75400 0.84500 0.31700 -0.03300
C 	C 	0.70180 0.89100 0.23900 -0.07700
H 	H 	0.75850 0.90140 0.37270 0.05300
H 	H 	0.67350 0.99470 0.23370 0.07000
N 	N 	0.06760 0.85010 0.05780 -0.22000
C 	C 	0.11510 0.09960 0.89390 0.04700
H 	H 	0.12820 0.97880 0.88430 0.06200
C 	C 	0.25400 0.34500 0.81700 -0.03400
C 	C 	0.20180 0.39100 0.73900 -0.07400
H 	H 	0.25850 0.40140 0.87270 0.05800
H 	H 	0.17350 0.49470 0.73370 0.06500
Br	Br	0.50000 0.25000 0.36140 -0.44200
Br	Br	-0.00000 0.75000 0.86140 -0.37600
Br	Br	0.50000 0.75000 0.63860 -0.38100
Br	Br	0.00000 0.25000 0.13860 -0.48300
Cu	Cu	0.50000 0.50000 0.50000 0.88500
Cu	Cu	-0.00000 0.00000 -0.00000 0.81700
Cu	Cu	0.50000 0.00000 0.50000 0.86700
Cu	Cu	-0.00000 0.50000 -0.00000 0.83500
N 	N 	0.35810 0.75000 0.36030 -0.17500
C 	C 	0.30240 0.75000 0.30380 0.11300
N 	N 	0.85810 0.25000 0.86030 -0.14500
C 	C 	0.80240 0.25000 0.80380 0.10700
N 	N 	0.64190 0.75000 0.36030 -0.17500
C 	C 	0.69760 0.75000 0.30380 0.11300
N 	N 	0.14190 0.25000 0.86030 -0.14600
C 	C 	0.19760 0.25000 0.80380 0.10400
N 	N 	0.64190 0.25000 0.63970 -0.14400
C 	C 	0.69760 0.25000 0.69620 0.09200
N 	N 	0.14190 0.75000 0.13970 -0.17400
C 	C 	0.19760 0.75000 0.19620 0.10100
N 	N 	0.35810 0.25000 0.63970 -0.14400
C 	C 	0.30240 0.25000 0.69620 0.09300
N 	N 	0.85810 0.75000 0.13970 -0.17200
C 	C 	0.80240 0.75000 0.19620 0.10400
