data_crystal

_cell_length_a 21.90200
_cell_length_b 7.34710
_cell_length_c 14.14200
_cell_angle_alpha 90.00000
_cell_angle_beta  90.00000
_cell_angle_gamma 90.00000

_symmetry_space_group_name_	'P 1'
_symmetry_space_group_name_H-M	'P 1'

loop_
_symmetry_equiv_pos_as_xyz
  x,y,z

loop_
_atom_site_label
_atom_site_type_symbol
_atom_site_fract_x
_atom_site_fract_y
_atom_site_fract_z
_atom_site_charge
N 	N 	0.43550 0.15550 0.43890 -0.18600
C 	C 	0.38800 0.10270 0.39000 0.03500
H 	H 	0.37710 0.98210 0.37920 0.04800
C 	C 	0.30070 0.14700 0.22000 -0.05800
H 	H 	0.33050 0.05370 0.20870 0.04000
C 	C 	0.24630 0.14300 0.16690 -0.06300
H 	H 	0.24230 0.07040 0.11080 0.02500
N 	N 	0.93550 0.65550 0.93890 -0.15900
C 	C 	0.88800 0.60270 0.89000 0.11900
H 	H 	0.87710 0.48210 0.87920 0.00900
C 	C 	0.80070 0.64700 0.72000 -0.05600
H 	H 	0.83050 0.55370 0.70870 0.06100
C 	C 	0.74630 0.64300 0.66690 -0.06300
H 	H 	0.74230 0.57040 0.61080 0.05400
N 	N 	0.56450 0.34450 0.43890 -0.19400
C 	C 	0.61200 0.39730 0.39000 0.10300
H 	H 	0.62290 0.51790 0.37920 -0.00200
C 	C 	0.69930 0.35300 0.22000 -0.06000
H 	H 	0.66950 0.44630 0.20870 0.05200
C 	C 	0.75370 0.35700 0.16690 -0.05700
H 	H 	0.75770 0.42960 0.11080 0.03500
N 	N 	0.06450 0.84450 0.93890 -0.17400
C 	C 	0.11200 0.89730 0.89000 0.18100
H 	H 	0.12290 0.01790 0.87920 -0.04100
C 	C 	0.19930 0.85300 0.72000 -0.05900
H 	H 	0.16950 0.94630 0.70870 0.06700
C 	C 	0.25370 0.85700 0.66690 -0.05800
H 	H 	0.25770 0.92960 0.61080 0.06100
N 	N 	0.56450 0.65550 0.56110 -0.19200
C 	C 	0.61200 0.60270 0.61000 0.10900
H 	H 	0.62290 0.48210 0.62080 -0.00300
C 	C 	0.69930 0.64700 0.78000 -0.04800
H 	H 	0.66950 0.55370 0.79130 0.06200
C 	C 	0.75370 0.64300 0.83310 -0.06900
H 	H 	0.75770 0.57040 0.88920 0.07100
N 	N 	0.06450 0.15550 0.06110 -0.20100
C 	C 	0.11200 0.10270 0.11000 0.02300
H 	H 	0.12290 0.98210 0.12080 0.04100
C 	C 	0.19930 0.14700 0.28000 -0.05000
H 	H 	0.16950 0.05370 0.29130 0.04300
C 	C 	0.25370 0.14300 0.33310 -0.06800
H 	H 	0.25770 0.07040 0.38920 0.04300
N 	N 	0.43550 0.84450 0.56110 -0.19500
C 	C 	0.38800 0.89730 0.61000 0.17600
H 	H 	0.37710 0.01790 0.62080 -0.05100
C 	C 	0.30070 0.85300 0.78000 -0.05000
H 	H 	0.33050 0.94630 0.79130 0.07400
C 	C 	0.24630 0.85700 0.83310 -0.06200
H 	H 	0.24230 0.92960 0.88920 0.08000
N 	N 	0.93550 0.34450 0.06110 -0.19300
C 	C 	0.88800 0.39730 0.11000 0.09700
H 	H 	0.87710 0.51790 0.12080 -0.00400
C 	C 	0.80070 0.35300 0.28000 -0.05300
H 	H 	0.83050 0.44630 0.29130 0.06200
C 	C 	0.74630 0.35700 0.33310 -0.06000
H 	H 	0.74230 0.42960 0.38920 0.05300
N 	N 	0.56450 0.84450 0.56110 -0.19500
C 	C 	0.61200 0.89730 0.61000 0.17500
H 	H 	0.62290 0.01790 0.62080 -0.05000
C 	C 	0.69930 0.85300 0.78000 -0.05000
H 	H 	0.66950 0.94630 0.79130 0.07400
C 	C 	0.75370 0.85700 0.83310 -0.06300
H 	H 	0.75770 0.92960 0.88920 0.07900
N 	N 	0.06450 0.34450 0.06110 -0.20900
C 	C 	0.11200 0.39730 0.11000 0.09200
H 	H 	0.12290 0.51790 0.12080 -0.00900
C 	C 	0.19930 0.35300 0.28000 -0.05300
H 	H 	0.16950 0.44630 0.29130 0.05600
C 	C 	0.25370 0.35700 0.33310 -0.06100
H 	H 	0.25770 0.42960 0.38920 0.05200
N 	N 	0.43550 0.65550 0.56110 -0.19200
C 	C 	0.38800 0.60270 0.61000 0.10900
H 	H 	0.37710 0.48210 0.62080 -0.00400
C 	C 	0.30070 0.64700 0.78000 -0.04800
H 	H 	0.33050 0.55370 0.79130 0.06200
C 	C 	0.24630 0.64300 0.83310 -0.06900
H 	H 	0.24230 0.57040 0.88920 0.07200
N 	N 	0.93550 0.15550 0.06110 -0.18600
C 	C 	0.88800 0.10270 0.11000 0.03000
H 	H 	0.87710 0.98210 0.12080 0.04400
C 	C 	0.80070 0.14700 0.28000 -0.05100
H 	H 	0.83050 0.05370 0.29130 0.05000
C 	C 	0.74630 0.14300 0.33310 -0.06700
H 	H 	0.74230 0.07040 0.38920 0.04500
N 	N 	0.43550 0.34450 0.43890 -0.19400
C 	C 	0.38800 0.39730 0.39000 0.10200
H 	H 	0.37710 0.51790 0.37920 -0.00200
C 	C 	0.30070 0.35300 0.22000 -0.06100
H 	H 	0.33050 0.44630 0.20870 0.05200
C 	C 	0.24630 0.35700 0.16690 -0.05600
H 	H 	0.24230 0.42960 0.11080 0.03400
N 	N 	0.93550 0.84450 0.93890 -0.16200
C 	C 	0.88800 0.89730 0.89000 0.18300
H 	H 	0.87710 0.01790 0.87920 -0.03600
C 	C 	0.80070 0.85300 0.72000 -0.05800
H 	H 	0.83050 0.94630 0.70870 0.07300
C 	C 	0.74630 0.85700 0.66690 -0.05700
H 	H 	0.74230 0.92960 0.61080 0.06200
N 	N 	0.56450 0.15550 0.43890 -0.18700
C 	C 	0.61200 0.10270 0.39000 0.03400
H 	H 	0.62290 0.98210 0.37920 0.04600
C 	C 	0.69930 0.14700 0.22000 -0.05800
H 	H 	0.66950 0.05370 0.20870 0.04000
C 	C 	0.75370 0.14300 0.16690 -0.06400
H 	H 	0.75770 0.07040 0.11080 0.02700
N 	N 	0.06450 0.65550 0.93890 -0.17100
C 	C 	0.11200 0.60270 0.89000 0.11600
H 	H 	0.12290 0.48210 0.87920 0.00500
C 	C 	0.19930 0.64700 0.72000 -0.05700
H 	H 	0.16950 0.55370 0.70870 0.05500
C 	C 	0.25370 0.64300 0.66690 -0.06400
H 	H 	0.25770 0.57040 0.61080 0.05200
Br	Br	0.50000 0.25000 0.65104 -0.41500
Br	Br	0.00000 0.75000 0.15104 -0.44200
Br	Br	0.50000 0.75000 0.34896 -0.40500
Br	Br	-0.00000 0.25000 0.84896 -0.41300
Cu	Cu	0.50000 0.00000 0.50000 0.86700
Cu	Cu	-0.00000 0.50000 -0.00000 0.83600
Cu	Cu	0.50000 0.50000 0.50000 0.88300
Cu	Cu	-0.00000 0.00000 -0.00000 0.82000
N 	N 	0.35710 0.25000 0.35720 -0.14800
C 	C 	0.30220 0.25000 0.30370 0.11600
N 	N 	0.85710 0.75000 0.85720 -0.16700
C 	C 	0.80220 0.75000 0.80370 0.13300
N 	N 	0.64290 0.25000 0.35720 -0.14700
C 	C 	0.69780 0.25000 0.30370 0.11500
N 	N 	0.14290 0.75000 0.85720 -0.16800
C 	C 	0.19780 0.75000 0.80370 0.13100
N 	N 	0.64290 0.75000 0.64280 -0.16700
C 	C 	0.69780 0.75000 0.69630 0.11900
N 	N 	0.14290 0.25000 0.14280 -0.14600
C 	C 	0.19780 0.25000 0.19630 0.10300
N 	N 	0.35710 0.75000 0.64280 -0.16700
C 	C 	0.30220 0.75000 0.69630 0.12000
N 	N 	0.85710 0.25000 0.14280 -0.14600
C 	C 	0.80220 0.25000 0.19630 0.10600
