data_crystal

_cell_length_a 21.85000
_cell_length_b 7.35510
_cell_length_c 14.22300
_cell_angle_alpha 90.00000
_cell_angle_beta  90.00000
_cell_angle_gamma 90.00000

_symmetry_space_group_name_	'P 1'
_symmetry_space_group_name_H-M	'P 1'

loop_
_symmetry_equiv_pos_as_xyz
  x,y,z

loop_
_atom_site_label
_atom_site_type_symbol
_atom_site_fract_x
_atom_site_fract_y
_atom_site_fract_z
_atom_site_charge
N 	N 	0.43530 0.34480 0.56060 -0.19200
C 	C 	0.38830 0.60190 0.38970 0.10400
H 	H 	0.37800 0.48140 0.37770 -0.00500
C 	C 	0.25420 0.85500 0.33190 -0.06300
C 	C 	0.29990 0.85400 0.22320 -0.06300
H 	H 	0.25690 0.92030 0.39010 0.06400
H 	H 	0.33440 0.92580 0.20430 0.06100
N 	N 	0.93530 0.84480 0.06060 -0.19800
C 	C 	0.88830 0.10190 0.88970 0.03600
H 	H 	0.87800 0.98140 0.87770 0.07100
C 	C 	0.75420 0.35500 0.83190 -0.06200
C 	C 	0.79990 0.35400 0.72320 -0.06100
H 	H 	0.75690 0.42030 0.89010 0.07200
H 	H 	0.83440 0.42580 0.70430 0.06500
N 	N 	0.56470 0.15520 0.56060 -0.18400
C 	C 	0.61170 0.89810 0.38970 0.18600
H 	H 	0.62200 0.01860 0.37770 -0.06300
C 	C 	0.74580 0.64500 0.33190 -0.06700
C 	C 	0.70010 0.64600 0.22320 -0.06500
H 	H 	0.74310 0.57970 0.39010 0.05500
H 	H 	0.66560 0.57420 0.20430 0.04900
N 	N 	0.06470 0.65520 0.06060 -0.20900
C 	C 	0.11170 0.39810 0.88970 0.11100
H 	H 	0.12200 0.51860 0.87770 0.01200
C 	C 	0.24580 0.14500 0.83190 -0.06700
C 	C 	0.20010 0.14600 0.72320 -0.06300
H 	H 	0.24310 0.07970 0.89010 0.06200
H 	H 	0.16560 0.07420 0.70430 0.04700
N 	N 	0.56470 0.84480 0.43940 -0.19700
C 	C 	0.61170 0.10190 0.61030 0.02200
H 	H 	0.62200 0.98140 0.62230 0.06000
C 	C 	0.74580 0.35500 0.66810 -0.05500
C 	C 	0.70010 0.35400 0.77680 -0.05200
H 	H 	0.74310 0.42030 0.60990 0.05300
H 	H 	0.66560 0.42580 0.79570 0.06700
N 	N 	0.06470 0.34480 0.93940 -0.16900
C 	C 	0.11170 0.60190 0.11030 0.09200
H 	H 	0.12200 0.48140 0.12230 -0.01200
C 	C 	0.24580 0.85500 0.16810 -0.05700
C 	C 	0.20010 0.85400 0.27680 -0.05500
H 	H 	0.24310 0.92030 0.10990 0.04500
H 	H 	0.16560 0.92580 0.29570 0.06600
N 	N 	0.43530 0.65520 0.43940 -0.19300
C 	C 	0.38830 0.39810 0.61030 0.10400
H 	H 	0.37800 0.51860 0.62230 0.00200
C 	C 	0.25420 0.14500 0.66810 -0.06300
C 	C 	0.29990 0.14600 0.77680 -0.05600
H 	H 	0.25690 0.07970 0.60990 0.04100
H 	H 	0.33440 0.07420 0.79570 0.05600
N 	N 	0.93530 0.15520 0.93940 -0.14900
C 	C 	0.88830 0.89810 0.11030 0.18000
H 	H 	0.87800 0.01860 0.12230 -0.06500
C 	C 	0.75420 0.64500 0.16810 -0.06400
C 	C 	0.79990 0.64600 0.27680 -0.06000
H 	H 	0.75690 0.57970 0.10990 0.03500
H 	H 	0.83440 0.57420 0.29570 0.06100
N 	N 	0.56470 0.65520 0.43940 -0.19300
C 	C 	0.61170 0.39810 0.61030 0.10400
H 	H 	0.62200 0.51860 0.62230 0.00300
C 	C 	0.74580 0.14500 0.66810 -0.06100
C 	C 	0.70010 0.14600 0.77680 -0.05500
H 	H 	0.74310 0.07970 0.60990 0.04200
H 	H 	0.66560 0.07420 0.79570 0.05600
N 	N 	0.06470 0.15520 0.93940 -0.16100
C 	C 	0.11170 0.89810 0.11030 0.17700
H 	H 	0.12200 0.01860 0.12230 -0.07100
C 	C 	0.24580 0.64500 0.16810 -0.06300
C 	C 	0.20010 0.64600 0.27680 -0.05800
H 	H 	0.24310 0.57970 0.10990 0.03400
H 	H 	0.16560 0.57420 0.29570 0.05400
N 	N 	0.43530 0.84480 0.43940 -0.19700
C 	C 	0.38830 0.10190 0.61030 0.02100
H 	H 	0.37800 0.98140 0.62230 0.06000
C 	C 	0.25420 0.35500 0.66810 -0.05700
C 	C 	0.29990 0.35400 0.77680 -0.05300
H 	H 	0.25690 0.42030 0.60990 0.05100
H 	H 	0.33440 0.42580 0.79570 0.06800
N 	N 	0.93530 0.34480 0.93940 -0.15700
C 	C 	0.88830 0.60190 0.11030 0.09700
H 	H 	0.87800 0.48140 0.12230 -0.00700
C 	C 	0.75420 0.85500 0.16810 -0.05800
C 	C 	0.79990 0.85400 0.27680 -0.05600
H 	H 	0.75690 0.92030 0.10990 0.04600
H 	H 	0.83440 0.92580 0.29570 0.07300
N 	N 	0.43530 0.15520 0.56060 -0.18400
C 	C 	0.38830 0.89810 0.38970 0.18700
H 	H 	0.37800 0.01860 0.37770 -0.06300
C 	C 	0.25420 0.64500 0.33190 -0.06900
C 	C 	0.29990 0.64600 0.22320 -0.06700
H 	H 	0.25690 0.57970 0.39010 0.05300
H 	H 	0.33440 0.57420 0.20430 0.04900
N 	N 	0.93530 0.65520 0.06060 -0.19400
C 	C 	0.88830 0.39810 0.88970 0.11500
H 	H 	0.87800 0.51860 0.87770 0.01600
C 	C 	0.75420 0.14500 0.83190 -0.06800
C 	C 	0.79990 0.14600 0.72320 -0.06400
H 	H 	0.75690 0.07970 0.89010 0.06200
H 	H 	0.83440 0.07420 0.70430 0.05400
N 	N 	0.56470 0.34480 0.56060 -0.19200
C 	C 	0.61170 0.60190 0.38970 0.10300
H 	H 	0.62200 0.48140 0.37770 -0.00500
C 	C 	0.74580 0.85500 0.33190 -0.06100
C 	C 	0.70010 0.85400 0.22320 -0.06200
H 	H 	0.74310 0.92030 0.39010 0.06500
H 	H 	0.66560 0.92580 0.20430 0.06100
N 	N 	0.06470 0.84480 0.06060 -0.21300
C 	C 	0.11170 0.10190 0.88970 0.03000
H 	H 	0.12200 0.98140 0.87770 0.06900
C 	C 	0.24580 0.35500 0.83190 -0.06100
C 	C 	0.20010 0.35400 0.72320 -0.06000
H 	H 	0.24310 0.42030 0.89010 0.07200
H 	H 	0.16560 0.42580 0.70430 0.05800
Br	Br	0.50000 0.25000 0.34974 -0.44400
Br	Br	-0.00000 0.75000 0.84974 -0.37400
Br	Br	0.50000 0.75000 0.65026 -0.37800
Br	Br	0.00000 0.25000 0.15026 -0.48200
Cu	Cu	0.50000 0.50000 0.50000 0.88300
Cu	Cu	-0.00000 0.00000 -0.00000 0.81400
Cu	Cu	0.50000 0.00000 0.50000 0.86300
Cu	Cu	-0.00000 0.50000 -0.00000 0.83300
N 	N 	0.35670 0.75000 0.35800 -0.17200
C 	C 	0.30200 0.75000 0.30370 0.13600
N 	N 	0.85670 0.25000 0.85800 -0.14400
C 	C 	0.80200 0.25000 0.80370 0.12900
N 	N 	0.64330 0.75000 0.35800 -0.17100
C 	C 	0.69800 0.75000 0.30370 0.13400
N 	N 	0.14330 0.25000 0.85800 -0.14400
C 	C 	0.19800 0.25000 0.80370 0.12600
N 	N 	0.64330 0.25000 0.64200 -0.14300
C 	C 	0.69800 0.25000 0.69630 0.11300
N 	N 	0.14330 0.75000 0.14200 -0.17100
C 	C 	0.19800 0.75000 0.19630 0.12300
N 	N 	0.35670 0.25000 0.64200 -0.14300
C 	C 	0.30200 0.25000 0.69630 0.11500
N 	N 	0.85670 0.75000 0.14200 -0.17000
C 	C 	0.80200 0.75000 0.19630 0.12700
