data_crystal

_cell_length_a 20.77300
_cell_length_b 7.31370
_cell_length_c 15.79300
_cell_angle_alpha 90.00000
_cell_angle_beta  90.00000
_cell_angle_gamma 90.00000

_symmetry_space_group_name_	'P 1'
_symmetry_space_group_name_H-M	'P 1'

loop_
_symmetry_equiv_pos_as_xyz
  x,y,z

loop_
_atom_site_label
_atom_site_type_symbol
_atom_site_fract_x
_atom_site_fract_y
_atom_site_fract_z
_atom_site_charge
N 	N 	0.43210 0.34230 0.55730 -0.19200
C 	C 	0.38540 0.60260 0.39500 0.10800
H 	H 	0.37480 0.48110 0.38460 -0.01000
C 	C 	0.29920 0.88400 0.24200 -0.06300
C 	C 	0.25730 0.88700 0.32000 -0.07100
H 	H 	0.33010 0.98200 0.24210 0.06500
H 	H 	0.26080 0.97220 0.36610 0.06800
N 	N 	0.93210 0.84230 0.05730 -0.19600
C 	C 	0.88540 0.10260 0.89500 0.04400
H 	H 	0.87480 0.98110 0.88460 0.06400
C 	C 	0.79920 0.38400 0.74200 -0.05700
C 	C 	0.75730 0.38700 0.82000 -0.06800
H 	H 	0.83010 0.48200 0.74210 0.06600
H 	H 	0.76080 0.47220 0.86610 0.07200
N 	N 	0.56790 0.15770 0.55730 -0.18200
C 	C 	0.61460 0.89740 0.39500 0.18700
H 	H 	0.62520 0.01890 0.38460 -0.06400
C 	C 	0.70080 0.61600 0.24200 -0.06100
C 	C 	0.74270 0.61300 0.32000 -0.07200
H 	H 	0.66990 0.51800 0.24210 0.05000
H 	H 	0.73920 0.52780 0.36610 0.05700
N 	N 	0.06790 0.65770 0.05730 -0.20700
C 	C 	0.11460 0.39740 0.89500 0.11500
H 	H 	0.12520 0.51890 0.88460 0.00700
C 	C 	0.20080 0.11600 0.74200 -0.05800
C 	C 	0.24270 0.11300 0.82000 -0.07000
H 	H 	0.16990 0.01800 0.74210 0.04500
H 	H 	0.23920 0.02780 0.86610 0.05900
N 	N 	0.56790 0.84230 0.44270 -0.19600
C 	C 	0.61460 0.10260 0.60500 0.03000
H 	H 	0.62520 0.98110 0.61540 0.05400
C 	C 	0.70080 0.38400 0.75800 -0.04900
C 	C 	0.74270 0.38700 0.68000 -0.06600
H 	H 	0.66990 0.48200 0.75790 0.06500
H 	H 	0.73920 0.47220 0.63390 0.06000
N 	N 	0.06790 0.34230 0.94270 -0.16900
C 	C 	0.11460 0.60260 0.10500 0.09800
H 	H 	0.12520 0.48110 0.11540 -0.01500
C 	C 	0.20080 0.88400 0.25800 -0.05500
C 	C 	0.24270 0.88700 0.18000 -0.06900
H 	H 	0.16990 0.98200 0.25790 0.06800
H 	H 	0.23920 0.97220 0.13390 0.05600
N 	N 	0.43210 0.65770 0.44270 -0.19100
C 	C 	0.38540 0.39740 0.60500 0.10800
H 	H 	0.37480 0.51890 0.61540 -0.00200
C 	C 	0.29920 0.11600 0.75800 -0.04900
C 	C 	0.25730 0.11300 0.68000 -0.07200
H 	H 	0.33010 0.01800 0.75790 0.05000
H 	H 	0.26080 0.02780 0.63390 0.04400
N 	N 	0.93210 0.15770 0.94270 -0.14900
C 	C 	0.88540 0.89740 0.10500 0.18200
H 	H 	0.87480 0.01890 0.11540 -0.06500
C 	C 	0.79920 0.61600 0.25800 -0.05300
C 	C 	0.75730 0.61300 0.18000 -0.07500
H 	H 	0.83010 0.51800 0.25790 0.05800
H 	H 	0.76080 0.52780 0.13390 0.04300
N 	N 	0.56790 0.65770 0.44270 -0.19100
C 	C 	0.61460 0.39740 0.60500 0.10800
H 	H 	0.62520 0.51890 0.61540 -0.00200
C 	C 	0.70080 0.11600 0.75800 -0.04900
C 	C 	0.74270 0.11300 0.68000 -0.07000
H 	H 	0.66990 0.01800 0.75790 0.05000
H 	H 	0.73920 0.02780 0.63390 0.04600
N 	N 	0.06790 0.15770 0.94270 -0.16100
C 	C 	0.11460 0.89740 0.10500 0.17800
H 	H 	0.12520 0.01890 0.11540 -0.07200
C 	C 	0.20080 0.61600 0.25800 -0.05400
C 	C 	0.24270 0.61300 0.18000 -0.07300
H 	H 	0.16990 0.51800 0.25790 0.05200
H 	H 	0.23920 0.52780 0.13390 0.04200
N 	N 	0.43210 0.84230 0.44270 -0.19600
C 	C 	0.38540 0.10260 0.60500 0.03000
H 	H 	0.37480 0.98110 0.61540 0.05400
C 	C 	0.29920 0.38400 0.75800 -0.04900
C 	C 	0.25730 0.38700 0.68000 -0.06800
H 	H 	0.33010 0.48200 0.75790 0.06500
H 	H 	0.26080 0.47220 0.63390 0.05800
N 	N 	0.93210 0.34230 0.94270 -0.15700
C 	C 	0.88540 0.60260 0.10500 0.10400
H 	H 	0.87480 0.48110 0.11540 -0.01000
C 	C 	0.79920 0.88400 0.25800 -0.05300
C 	C 	0.75730 0.88700 0.18000 -0.07100
H 	H 	0.83010 0.98200 0.25790 0.07300
H 	H 	0.76080 0.97220 0.13390 0.05700
N 	N 	0.43210 0.15770 0.55730 -0.18200
C 	C 	0.38540 0.89740 0.39500 0.18800
H 	H 	0.37480 0.01890 0.38460 -0.06400
C 	C 	0.29920 0.61600 0.24200 -0.06100
C 	C 	0.25730 0.61300 0.32000 -0.07400
H 	H 	0.33010 0.51800 0.24210 0.05000
H 	H 	0.26080 0.52780 0.36610 0.05400
N 	N 	0.93210 0.65770 0.05730 -0.19100
C 	C 	0.88540 0.39740 0.89500 0.11900
H 	H 	0.87480 0.51890 0.88460 0.01100
C 	C 	0.79920 0.11600 0.74200 -0.05600
C 	C 	0.75730 0.11300 0.82000 -0.07200
H 	H 	0.83010 0.01800 0.74210 0.05100
H 	H 	0.76080 0.02780 0.86610 0.05900
N 	N 	0.56790 0.34230 0.55730 -0.19100
C 	C 	0.61460 0.60260 0.39500 0.10900
H 	H 	0.62520 0.48110 0.38460 -0.00800
C 	C 	0.70080 0.88400 0.24200 -0.06100
C 	C 	0.74270 0.88700 0.32000 -0.06800
H 	H 	0.66990 0.98200 0.24210 0.06600
H 	H 	0.73920 0.97220 0.36610 0.07000
N 	N 	0.06790 0.84230 0.05730 -0.21100
C 	C 	0.11460 0.10260 0.89500 0.03800
H 	H 	0.12520 0.98110 0.88460 0.06200
C 	C 	0.20080 0.38400 0.74200 -0.05800
C 	C 	0.24270 0.38700 0.82000 -0.06700
H 	H 	0.16990 0.48200 0.74210 0.06000
H 	H 	0.23920 0.47220 0.86610 0.07200
Br	Br	0.50000 0.25000 0.36410 -0.44500
Br	Br	-0.00000 0.75000 0.86410 -0.38100
Br	Br	0.50000 0.75000 0.63590 -0.38700
Br	Br	-0.00000 0.25000 0.13590 -0.48600
Cu	Cu	0.50000 0.50000 0.50000 0.87800
Cu	Cu	-0.00000 0.00000 -0.00000 0.81100
Cu	Cu	0.50000 -0.00000 0.50000 0.86000
Cu	Cu	-0.00000 0.50000 -0.00000 0.82900
N 	N 	0.35440 0.75000 0.36230 -0.17400
C 	C 	0.30190 0.75000 0.30560 0.13800
N 	N 	0.85440 0.25000 0.86230 -0.14600
C 	C 	0.80190 0.25000 0.80560 0.13000
N 	N 	0.64560 0.75000 0.36230 -0.17300
C 	C 	0.69810 0.75000 0.30560 0.13700
N 	N 	0.14560 0.25000 0.86230 -0.14700
C 	C 	0.19810 0.25000 0.80560 0.12700
N 	N 	0.64560 0.25000 0.63770 -0.14600
C 	C 	0.69810 0.25000 0.69440 0.12000
N 	N 	0.14560 0.75000 0.13770 -0.17400
C 	C 	0.19810 0.75000 0.19440 0.13000
N 	N 	0.35440 0.25000 0.63770 -0.14600
C 	C 	0.30190 0.25000 0.69440 0.12100
N 	N 	0.85440 0.75000 0.13770 -0.17200
C 	C 	0.80190 0.75000 0.19440 0.13300
