data_crystal

_cell_length_a 21.52600
_cell_length_b 7.34730
_cell_length_c 14.68000
_cell_angle_alpha 90.00000
_cell_angle_beta  90.00000
_cell_angle_gamma 90.00000

_symmetry_space_group_name_	'P 1'
_symmetry_space_group_name_H-M	'P 1'

loop_
_symmetry_equiv_pos_as_xyz
  x,y,z

loop_
_atom_site_label
_atom_site_type_symbol
_atom_site_fract_x
_atom_site_fract_y
_atom_site_fract_z
_atom_site_charge
N 	N 	0.06589 0.34360 0.44020 -0.19700
C 	C 	0.11310 0.60350 0.60860 0.11000
H 	H 	0.12400 0.48310 0.61950 -0.00500
C 	C 	0.24760 0.64510 0.67090 -0.05900
C 	C 	0.19840 0.85300 0.77350 -0.05700
H 	H 	0.24600 0.57530 0.61560 0.05200
H 	H 	0.16250 0.92310 0.78970 0.07300
N 	N 	0.56589 0.84360 0.94020 -0.17200
C 	C 	0.61310 0.10350 0.10860 0.02800
H 	H 	0.62400 0.98310 0.11950 0.04000
C 	C 	0.74760 0.14510 0.17090 -0.05700
C 	C 	0.69840 0.35300 0.27350 -0.05700
H 	H 	0.74600 0.07530 0.11560 0.02700
H 	H 	0.66250 0.42310 0.28970 0.05900
N 	N 	0.93411 0.15640 0.44020 -0.17400
C 	C 	0.88690 0.89650 0.60860 0.18100
H 	H 	0.87600 0.01690 0.61950 -0.04600
C 	C 	0.75240 0.85490 0.67090 -0.05700
C 	C 	0.80160 0.64700 0.77350 -0.06200
H 	H 	0.75400 0.92470 0.61560 0.06200
H 	H 	0.83750 0.57690 0.78970 0.07200
N 	N 	0.43411 0.65640 0.94020 -0.16800
C 	C 	0.38690 0.39650 0.10860 0.09700
H 	H 	0.37600 0.51690 0.11950 -0.00900
C 	C 	0.25240 0.35490 0.17090 -0.05600
C 	C 	0.30160 0.14700 0.27350 -0.06200
H 	H 	0.25400 0.42470 0.11560 0.03500
H 	H 	0.33750 0.07690 0.28970 0.05000
N 	N 	0.93411 0.84360 0.55980 -0.18200
C 	C 	0.88690 0.10350 0.39140 0.04100
H 	H 	0.87600 0.98310 0.38050 0.05000
C 	C 	0.75240 0.14510 0.32910 -0.06500
C 	C 	0.80160 0.35300 0.22650 -0.06600
H 	H 	0.75400 0.07530 0.38440 0.04400
H 	H 	0.83750 0.42310 0.21030 0.05800
N 	N 	0.43411 0.34360 0.05980 -0.20500
C 	C 	0.38690 0.60350 0.89140 0.11900
H 	H 	0.37600 0.48310 0.88050 0.00400
C 	C 	0.25240 0.64510 0.82910 -0.06500
C 	C 	0.30160 0.85300 0.72650 -0.06400
H 	H 	0.25400 0.57530 0.88440 0.06900
H 	H 	0.33750 0.92310 0.71030 0.06900
N 	N 	0.06589 0.65640 0.55980 -0.19400
C 	C 	0.11310 0.39650 0.39140 0.10400
H 	H 	0.12400 0.51690 0.38050 -0.00300
C 	C 	0.24760 0.35490 0.32910 -0.05900
C 	C 	0.19840 0.14700 0.22650 -0.06800
H 	H 	0.24600 0.42470 0.38440 0.05300
H 	H 	0.16250 0.07690 0.21030 0.04100
N 	N 	0.56589 0.15640 0.05980 -0.19800
C 	C 	0.61310 0.89650 0.89140 0.18500
H 	H 	0.62400 0.01690 0.88050 -0.04100
C 	C 	0.74760 0.85490 0.82910 -0.05900
C 	C 	0.69840 0.64700 0.72650 -0.06700
H 	H 	0.74600 0.92470 0.88440 0.07900
H 	H 	0.66250 0.57690 0.71030 0.06000
N 	N 	0.93411 0.65640 0.55980 -0.17900
C 	C 	0.88690 0.39650 0.39140 0.10800
H 	H 	0.87600 0.51690 0.38050 0.00200
C 	C 	0.75240 0.35490 0.32910 -0.06100
C 	C 	0.80160 0.14700 0.22650 -0.07000
H 	H 	0.75400 0.42470 0.38440 0.05300
H 	H 	0.83750 0.07690 0.21030 0.04900
N 	N 	0.43411 0.15640 0.05980 -0.19800
C 	C 	0.38690 0.89650 0.89140 0.18500
H 	H 	0.37600 0.01690 0.88050 -0.04200
C 	C 	0.25240 0.85490 0.82910 -0.06100
C 	C 	0.30160 0.64700 0.72650 -0.06800
H 	H 	0.25400 0.92470 0.88440 0.07800
H 	H 	0.33750 0.57690 0.71030 0.06100
N 	N 	0.06589 0.84360 0.55980 -0.19800
C 	C 	0.11310 0.10350 0.39140 0.03400
H 	H 	0.12400 0.98310 0.38050 0.04600
C 	C 	0.24760 0.14510 0.32910 -0.06300
C 	C 	0.19840 0.35300 0.22650 -0.06400
H 	H 	0.24600 0.07530 0.38440 0.04300
H 	H 	0.16250 0.42310 0.21030 0.05000
N 	N 	0.56589 0.34360 0.05980 -0.20500
C 	C 	0.61310 0.60350 0.89140 0.11900
H 	H 	0.62400 0.48310 0.88050 0.00500
C 	C 	0.74760 0.64510 0.82910 -0.06300
C 	C 	0.69840 0.85300 0.72650 -0.06300
H 	H 	0.74600 0.57530 0.88440 0.07100
H 	H 	0.66250 0.92310 0.71030 0.06900
N 	N 	0.06589 0.15640 0.44020 -0.18900
C 	C 	0.11310 0.89650 0.60860 0.17800
H 	H 	0.12400 0.01690 0.61950 -0.05200
C 	C 	0.24760 0.85490 0.67090 -0.05600
C 	C 	0.19840 0.64700 0.77350 -0.06000
H 	H 	0.24600 0.92470 0.61560 0.06100
H 	H 	0.16250 0.57690 0.78970 0.06400
N 	N 	0.56589 0.65640 0.94020 -0.16800
C 	C 	0.61310 0.39650 0.10860 0.09700
H 	H 	0.62400 0.51690 0.11950 -0.00900
C 	C 	0.74760 0.35490 0.17090 -0.05400
C 	C 	0.69840 0.14700 0.27350 -0.06100
H 	H 	0.74600 0.42470 0.11560 0.03600
H 	H 	0.66250 0.07690 0.28970 0.05000
N 	N 	0.93411 0.34360 0.44020 -0.18100
C 	C 	0.88690 0.60350 0.60860 0.11400
H 	H 	0.87600 0.48310 0.61950 0.00000
C 	C 	0.75240 0.64510 0.67090 -0.06100
C 	C 	0.80160 0.85300 0.77350 -0.05800
H 	H 	0.75400 0.57530 0.61560 0.05300
H 	H 	0.83750 0.92310 0.78970 0.08000
N 	N 	0.43411 0.84360 0.94020 -0.17200
C 	C 	0.38690 0.10350 0.10860 0.02700
H 	H 	0.37600 0.98310 0.11950 0.04000
C 	C 	0.25240 0.14510 0.17090 -0.06000
C 	C 	0.30160 0.35300 0.27350 -0.05900
H 	H 	0.25400 0.07530 0.11560 0.02500
H 	H 	0.33750 0.42310 0.28970 0.05900
Br	Br	0.00000 0.25000 0.64568 -0.45000
Br	Br	0.50000 0.75000 0.14568 -0.41800
Br	Br	0.00000 0.75000 0.35432 -0.43700
Br	Br	0.50000 0.25000 0.85432 -0.39000
Cu	Cu	0.00000 0.50000 0.50000 0.86800
Cu	Cu	0.50000 0.00000 -0.00000 0.82900
Cu	Cu	0.00000 0.00000 0.50000 0.85200
Cu	Cu	0.50000 0.50000 -0.00000 0.84500
N 	N 	0.14370 0.75000 0.64070 -0.17100
C 	C 	0.19830 0.75000 0.69710 0.12800
N 	N 	0.64370 0.25000 0.14070 -0.14900
C 	C 	0.69830 0.25000 0.19710 0.11100
N 	N 	0.85630 0.75000 0.64070 -0.17000
C 	C 	0.80170 0.75000 0.69710 0.13200
N 	N 	0.35630 0.25000 0.14070 -0.14900
C 	C 	0.30170 0.25000 0.19710 0.11300
N 	N 	0.85630 0.25000 0.35930 -0.15000
C 	C 	0.80170 0.25000 0.30290 0.12700
N 	N 	0.35630 0.75000 0.85930 -0.17100
C 	C 	0.30170 0.75000 0.80290 0.14000
N 	N 	0.14370 0.25000 0.35930 -0.15000
C 	C 	0.19830 0.25000 0.30290 0.12200
N 	N 	0.64370 0.75000 0.85930 -0.17000
C 	C 	0.69830 0.75000 0.80290 0.13800
