data_crystal

_cell_length_a 10.62600
_cell_length_b 10.62600
_cell_length_c 25.71800
_cell_angle_alpha 90.00000
_cell_angle_beta  90.00000
_cell_angle_gamma 90.00000

_symmetry_space_group_name_	'P 1'
_symmetry_space_group_name_H-M	'P 1'

loop_
_symmetry_equiv_pos_as_xyz
  x,y,z

loop_
_atom_site_label
_atom_site_type_symbol
_atom_site_fract_x
_atom_site_fract_y
_atom_site_fract_z
_atom_site_charge
N 	N 	0.03950 0.08830 0.16680 -0.27100
C 	C 	0.13300 0.01130 0.15410 0.11300
C 	C 	0.17370 0.91170 0.18110 -0.20000
C 	C 	0.11800 0.88710 0.22800 0.14100
C 	C 	0.02200 0.96620 0.24540 -0.27900
C 	C 	0.98280 0.06180 0.21350 0.19800
C 	C 	0.88220 0.14370 0.22900 -0.11900
C 	C 	0.79760 0.21040 0.24240 0.02800
H 	H 	0.17550 0.02870 0.12250 -0.02500
H 	H 	0.23920 0.85960 0.16810 0.09200
H 	H 	0.14460 0.81750 0.24840 -0.02600
H 	H 	0.98460 0.95410 0.27860 0.13900
N 	N 	0.53950 0.58830 0.66680 -0.24100
C 	C 	0.63300 0.51130 0.65410 0.09300
C 	C 	0.67370 0.41170 0.68110 -0.15500
C 	C 	0.61800 0.38710 0.72800 0.07200
C 	C 	0.52200 0.46620 0.74540 -0.15600
C 	C 	0.48280 0.56180 0.71350 0.11600
C 	C 	0.38220 0.64370 0.72900 -0.09800
C 	C 	0.29760 0.71040 0.74240 0.01500
H 	H 	0.67550 0.52870 0.62250 -0.01500
H 	H 	0.73920 0.35960 0.66810 0.07800
H 	H 	0.64460 0.31750 0.74840 0.00200
H 	H 	0.48460 0.45410 0.77860 0.08200
N 	N 	0.46050 0.91170 0.66680 -0.24200
C 	C 	0.36700 0.98870 0.65410 0.10000
C 	C 	0.32630 0.08830 0.68110 -0.16300
C 	C 	0.38200 0.11290 0.72800 0.07600
C 	C 	0.47800 0.03380 0.74540 -0.16100
C 	C 	0.51720 0.93820 0.71350 0.11600
C 	C 	0.61780 0.85630 0.72900 -0.08600
C 	C 	0.70240 0.78960 0.74240 -0.00300
H 	H 	0.32450 0.97130 0.62250 -0.01900
H 	H 	0.26080 0.14040 0.66810 0.07800
H 	H 	0.35540 0.18250 0.74840 -0.00000
H 	H 	0.51540 0.04590 0.77860 0.08200
N 	N 	0.96050 0.41170 0.16680 -0.20500
C 	C 	0.86700 0.48870 0.15410 0.06000
C 	C 	0.82630 0.58830 0.18110 -0.09200
C 	C 	0.88200 0.61290 0.22800 -0.01200
C 	C 	0.97800 0.53380 0.24540 -0.01600
C 	C 	0.01720 0.43820 0.21350 0.02000
C 	C 	0.11780 0.35630 0.22900 -0.06000
C 	C 	0.20240 0.28960 0.24240 -0.01800
H 	H 	0.82450 0.47130 0.12250 -0.00300
H 	H 	0.76080 0.64040 0.16810 0.05800
H 	H 	0.85540 0.68250 0.24840 0.03500
H 	H 	0.01540 0.54590 0.27860 0.01900
N 	N 	0.66170 0.28950 0.41680 -0.24000
C 	C 	0.73870 0.38300 0.40410 0.09400
C 	C 	0.83830 0.42370 0.43110 -0.15100
C 	C 	0.86290 0.36800 0.47800 0.07100
C 	C 	0.78380 0.27200 0.49540 -0.15100
C 	C 	0.68820 0.23280 0.46350 0.11200
C 	C 	0.60630 0.13220 0.47900 -0.08800
C 	C 	0.53960 0.04760 0.49240 -0.00100
H 	H 	0.72130 0.42550 0.37250 -0.01400
H 	H 	0.89040 0.48920 0.41810 0.08200
H 	H 	0.93250 0.39460 0.49840 0.01000
H 	H 	0.79590 0.23460 0.52860 0.08200
N 	N 	0.16170 0.78950 0.91680 -0.24100
C 	C 	0.23870 0.88300 0.90410 0.08900
C 	C 	0.33830 0.92370 0.93110 -0.14900
C 	C 	0.36290 0.86800 0.97800 0.06500
C 	C 	0.28380 0.77200 0.99540 -0.14700
C 	C 	0.18820 0.73280 0.96350 0.09900
C 	C 	0.10630 0.63220 0.97900 -0.07200
C 	C 	0.03960 0.54760 0.99240 -0.04400
H 	H 	0.22130 0.92550 0.87250 -0.01600
H 	H 	0.39040 0.98920 0.91810 0.07600
H 	H 	0.43250 0.89460 0.99840 0.00500
H 	H 	0.29590 0.73460 0.02860 0.07700
N 	N 	0.83830 0.71050 0.91680 -0.23800
C 	C 	0.76130 0.61700 0.90410 0.09700
C 	C 	0.66170 0.57630 0.93110 -0.15800
C 	C 	0.63710 0.63200 0.97800 0.07700
C 	C 	0.71620 0.72800 0.99540 -0.16400
C 	C 	0.81180 0.76720 0.96350 0.12900
C 	C 	0.89370 0.86780 0.97900 -0.11100
C 	C 	0.96040 0.95240 0.99240 0.06100
H 	H 	0.77870 0.57450 0.87250 -0.01400
H 	H 	0.60960 0.51080 0.91810 0.07800
H 	H 	0.56750 0.60540 0.99840 0.00000
H 	H 	0.70410 0.76540 0.02860 0.08600
N 	N 	0.33830 0.21050 0.41680 -0.24100
C 	C 	0.26130 0.11700 0.40410 0.09100
C 	C 	0.16170 0.07630 0.43110 -0.15500
C 	C 	0.13710 0.13200 0.47800 0.06800
C 	C 	0.21620 0.22800 0.49540 -0.15700
C 	C 	0.31180 0.26720 0.46350 0.11200
C 	C 	0.39370 0.36780 0.47900 -0.09200
C 	C 	0.46040 0.45240 0.49240 0.00600
H 	H 	0.27870 0.07450 0.37250 -0.01700
H 	H 	0.10960 0.01080 0.41810 0.07000
H 	H 	0.06750 0.10540 0.49840 -0.00600
H 	H 	0.20410 0.26540 0.52860 0.07900
N 	N 	0.96050 0.91170 0.83320 -0.20800
C 	C 	0.86700 0.98870 0.84590 0.06800
C 	C 	0.82630 0.08830 0.81890 -0.10300
C 	C 	0.88200 0.11290 0.77200 -0.00400
C 	C 	0.97800 0.03380 0.75460 -0.02600
C 	C 	0.01720 0.93820 0.78650 0.02700
C 	C 	0.11780 0.85630 0.77100 -0.06200
C 	C 	0.20240 0.78960 0.75760 -0.01700
H 	H 	0.82450 0.97130 0.87750 -0.00500
H 	H 	0.76080 0.14040 0.83190 0.06100
H 	H 	0.85540 0.18250 0.75160 0.03200
H 	H 	0.01540 0.04590 0.72140 0.02200
N 	N 	0.46050 0.41170 0.33320 -0.24000
C 	C 	0.36700 0.48870 0.34590 0.09200
C 	C 	0.32630 0.58830 0.31890 -0.15200
C 	C 	0.38200 0.61290 0.27200 0.06900
C 	C 	0.47800 0.53380 0.25460 -0.15200
C 	C 	0.51720 0.43820 0.28650 0.11000
C 	C 	0.61780 0.35630 0.27100 -0.08500
C 	C 	0.70240 0.28960 0.25760 -0.00400
H 	H 	0.32450 0.47130 0.37750 -0.01700
H 	H 	0.26080 0.64040 0.33190 0.07500
H 	H 	0.35540 0.68250 0.25160 0.00200
H 	H 	0.51540 0.54590 0.22140 0.08000
N 	N 	0.53950 0.08830 0.33320 -0.23900
C 	C 	0.63300 0.01130 0.34590 0.08300
C 	C 	0.67370 0.91170 0.31890 -0.14100
C 	C 	0.61800 0.88710 0.27200 0.06200
C 	C 	0.52200 0.96620 0.25460 -0.14500
C 	C 	0.48280 0.06180 0.28650 0.10800
C 	C 	0.38220 0.14370 0.27100 -0.09600
C 	C 	0.29760 0.21040 0.25760 0.01400
H 	H 	0.67550 0.02870 0.37750 -0.01200
H 	H 	0.73920 0.85960 0.33190 0.07500
H 	H 	0.64460 0.81750 0.25160 0.00600
H 	H 	0.48460 0.95410 0.22140 0.07900
N 	N 	0.03950 0.58830 0.83320 -0.27300
C 	C 	0.13300 0.51130 0.84590 0.12400
C 	C 	0.17370 0.41170 0.81890 -0.21400
C 	C 	0.11800 0.38710 0.77200 0.15200
C 	C 	0.02200 0.46620 0.75460 -0.29200
C 	C 	0.98280 0.56180 0.78650 0.20600
C 	C 	0.88220 0.64370 0.77100 -0.12100
C 	C 	0.79760 0.71040 0.75760 0.03000
H 	H 	0.17550 0.52870 0.87750 -0.02800
H 	H 	0.23920 0.35960 0.83190 0.09600
H 	H 	0.14460 0.31750 0.75160 -0.03000
H 	H 	0.98460 0.45410 0.72140 0.14300
N 	N 	0.33830 0.71050 0.58320 -0.24100
C 	C 	0.26130 0.61700 0.59590 0.09100
C 	C 	0.16170 0.57630 0.56890 -0.15600
C 	C 	0.13710 0.63200 0.52200 0.06900
C 	C 	0.21620 0.72800 0.50460 -0.15800
C 	C 	0.31180 0.76720 0.53650 0.11400
C 	C 	0.39370 0.86780 0.52100 -0.09500
C 	C 	0.46040 0.95240 0.50760 0.01200
H 	H 	0.27870 0.57450 0.62750 -0.01700
H 	H 	0.10960 0.51080 0.58190 0.07100
H 	H 	0.06750 0.60540 0.50160 -0.00500
H 	H 	0.20410 0.76540 0.47140 0.08000
N 	N 	0.83830 0.21050 0.08320 -0.23800
C 	C 	0.76130 0.11700 0.09590 0.09600
C 	C 	0.66170 0.07630 0.06890 -0.15700
C 	C 	0.63710 0.13200 0.02200 0.07500
C 	C 	0.71620 0.22800 0.00460 -0.16200
C 	C 	0.81180 0.26720 0.03650 0.12700
C 	C 	0.89370 0.36780 0.02100 -0.10900
C 	C 	0.96040 0.45240 0.00760 0.05600
H 	H 	0.77870 0.07450 0.12750 -0.01400
H 	H 	0.60960 0.01080 0.08190 0.07700
H 	H 	0.56750 0.10540 0.00160 -0.00000
H 	H 	0.70410 0.26540 0.97140 0.08400
N 	N 	0.16170 0.28950 0.08320 -0.24100
C 	C 	0.23870 0.38300 0.09590 0.08800
C 	C 	0.33830 0.42370 0.06890 -0.14900
C 	C 	0.36290 0.36800 0.02200 0.06300
C 	C 	0.28380 0.27200 0.00460 -0.14500
C 	C 	0.18820 0.23280 0.03650 0.09700
C 	C 	0.10630 0.13220 0.02100 -0.07000
C 	C 	0.03960 0.04760 0.00760 -0.05000
H 	H 	0.22130 0.42550 0.12750 -0.01600
H 	H 	0.39040 0.48920 0.08190 0.07500
H 	H 	0.43250 0.39460 0.00160 0.00400
H 	H 	0.29590 0.23460 0.97140 0.07600
N 	N 	0.66170 0.78950 0.58320 -0.24000
C 	C 	0.73870 0.88300 0.59590 0.09400
C 	C 	0.83830 0.92370 0.56890 -0.15100
C 	C 	0.86290 0.86800 0.52200 0.07200
C 	C 	0.78380 0.77200 0.50460 -0.15200
C 	C 	0.68820 0.73280 0.53650 0.11400
C 	C 	0.60630 0.63220 0.52100 -0.09000
C 	C 	0.53960 0.54760 0.50760 0.00600
H 	H 	0.72130 0.92550 0.62750 -0.01400
H 	H 	0.89040 0.98920 0.58190 0.08300
H 	H 	0.93250 0.89460 0.50160 0.01000
H 	H 	0.79590 0.73460 0.47140 0.08300
Cu	Cu	0.50000 0.25000 0.37500 0.85700
Cu	Cu	-0.00000 0.75000 0.87500 0.84600
Cu	Cu	0.50000 0.75000 0.62500 0.85700
Cu	Cu	0.00000 0.25000 0.12500 0.84600
