data_crystal

_cell_length_a 21.36700
_cell_length_b 7.11800
_cell_length_c 15.13400
_cell_angle_alpha 90.00000
_cell_angle_beta  90.00000
_cell_angle_gamma 90.00000

_symmetry_space_group_name_	'P 1'
_symmetry_space_group_name_H-M	'P 1'

loop_
_symmetry_equiv_pos_as_xyz
  x,y,z

loop_
_atom_site_label
_atom_site_type_symbol
_atom_site_fract_x
_atom_site_fract_y
_atom_site_fract_z
_atom_site_charge
N 	N 	0.43370 0.15280 0.56140 -0.21400
C 	C 	0.38780 0.09870 0.61020 0.02800
H 	H 	0.37730 0.97410 0.62110 0.02900
C 	C 	0.24090 0.11300 0.81330 -0.05800
H 	H 	0.23320 0.01290 0.85470 0.04600
C 	C 	0.29560 0.11000 0.76270 -0.04700
H 	H 	0.32770 0.01830 0.77230 0.03500
N 	N 	0.93370 0.65280 0.06140 -0.21600
C 	C 	0.88780 0.59870 0.11020 0.09800
H 	H 	0.87730 0.47410 0.12110 -0.03600
C 	C 	0.74090 0.61300 0.31330 -0.06300
H 	H 	0.73320 0.51290 0.35470 0.04500
C 	C 	0.79560 0.61000 0.26270 -0.04900
H 	H 	0.82770 0.51830 0.27230 0.04100
N 	N 	0.56630 0.34720 0.56140 -0.22400
C 	C 	0.61220 0.40130 0.61020 0.10400
H 	H 	0.62270 0.52590 0.62110 -0.02600
C 	C 	0.75910 0.38700 0.81330 -0.06500
H 	H 	0.76680 0.48710 0.85470 0.06300
C 	C 	0.70440 0.39000 0.76270 -0.04200
H 	H 	0.67230 0.48170 0.77230 0.04700
N 	N 	0.06630 0.84720 0.06140 -0.24800
C 	C 	0.11220 0.90130 0.11020 0.16900
H 	H 	0.12270 0.02590 0.12110 -0.10100
C 	C 	0.25910 0.88700 0.31330 -0.07100
H 	H 	0.26680 0.98710 0.35470 0.05900
C 	C 	0.20440 0.89000 0.26270 -0.04300
H 	H 	0.17230 0.98170 0.27230 0.04200
N 	N 	0.56630 0.65280 0.43860 -0.22400
C 	C 	0.61220 0.59870 0.38980 0.10200
H 	H 	0.62270 0.47410 0.37890 -0.03600
C 	C 	0.75910 0.61300 0.18670 -0.06900
H 	H 	0.76680 0.51290 0.14530 0.03400
C 	C 	0.70440 0.61000 0.23730 -0.05500
H 	H 	0.67230 0.51830 0.22770 0.02900
N 	N 	0.06630 0.15280 0.93860 -0.19900
C 	C 	0.11220 0.09870 0.88980 0.03300
H 	H 	0.12270 0.97410 0.87890 0.03300
C 	C 	0.25910 0.11300 0.68670 -0.06300
H 	H 	0.26680 0.01290 0.64530 0.03300
C 	C 	0.20440 0.11000 0.73730 -0.05500
H 	H 	0.17230 0.01830 0.72770 0.02500
N 	N 	0.43370 0.84720 0.43860 -0.22800
C 	C 	0.38780 0.90130 0.38980 0.18000
H 	H 	0.37730 0.02590 0.37890 -0.09100
C 	C 	0.24090 0.88700 0.18670 -0.06900
H 	H 	0.23320 0.98710 0.14530 0.04900
C 	C 	0.29560 0.89000 0.23730 -0.05100
H 	H 	0.32770 0.98170 0.22770 0.04300
N 	N 	0.93370 0.34720 0.93860 -0.18200
C 	C 	0.88780 0.40130 0.88980 0.11600
H 	H 	0.87730 0.52590 0.87890 -0.01100
C 	C 	0.74090 0.38700 0.68670 -0.06200
H 	H 	0.73320 0.48710 0.64530 0.05100
C 	C 	0.79560 0.39000 0.73730 -0.05000
H 	H 	0.82770 0.48170 0.72770 0.05000
N 	N 	0.56630 0.84720 0.43860 -0.22800
C 	C 	0.61220 0.90130 0.38980 0.18000
H 	H 	0.62270 0.02590 0.37890 -0.09000
C 	C 	0.75910 0.88700 0.18670 -0.07200
H 	H 	0.76680 0.98710 0.14530 0.05000
C 	C 	0.70440 0.89000 0.23730 -0.05000
H 	H 	0.67230 0.98170 0.22770 0.04300
N 	N 	0.06630 0.34720 0.93860 -0.20700
C 	C 	0.11220 0.40130 0.88980 0.10800
H 	H 	0.12270 0.52590 0.87890 -0.01900
C 	C 	0.25910 0.38700 0.68670 -0.06700
H 	H 	0.26680 0.48710 0.64530 0.04900
C 	C 	0.20440 0.39000 0.73730 -0.05000
H 	H 	0.17230 0.48170 0.72770 0.03800
N 	N 	0.43370 0.65280 0.43860 -0.22400
C 	C 	0.38780 0.59870 0.38980 0.10200
H 	H 	0.37730 0.47410 0.37890 -0.03600
C 	C 	0.24090 0.61300 0.18670 -0.06500
H 	H 	0.23320 0.51290 0.14530 0.03200
C 	C 	0.29560 0.61000 0.23730 -0.05600
H 	H 	0.32770 0.51830 0.22770 0.02900
N 	N 	0.93370 0.15280 0.93860 -0.17400
C 	C 	0.88780 0.09870 0.88980 0.04300
H 	H 	0.87730 0.97410 0.87890 0.04000
C 	C 	0.74090 0.11300 0.68670 -0.05900
H 	H 	0.73320 0.01290 0.64530 0.03500
C 	C 	0.79560 0.11000 0.73730 -0.05500
H 	H 	0.82770 0.01830 0.72770 0.03700
N 	N 	0.43370 0.34720 0.56140 -0.22400
C 	C 	0.38780 0.40130 0.61020 0.10400
H 	H 	0.37730 0.52590 0.62110 -0.02700
C 	C 	0.24090 0.38700 0.81330 -0.06200
H 	H 	0.23320 0.48710 0.85470 0.06100
C 	C 	0.29560 0.39000 0.76270 -0.04300
H 	H 	0.32770 0.48170 0.77230 0.04800
N 	N 	0.93370 0.84720 0.06140 -0.22000
C 	C 	0.88780 0.90130 0.11020 0.17700
H 	H 	0.87730 0.02590 0.12110 -0.09100
C 	C 	0.74090 0.88700 0.31330 -0.06600
H 	H 	0.73320 0.98710 0.35470 0.06200
C 	C 	0.79560 0.89000 0.26270 -0.04400
H 	H 	0.82770 0.98170 0.27230 0.05400
N 	N 	0.56630 0.15280 0.56140 -0.21500
C 	C 	0.61220 0.09870 0.61020 0.02800
H 	H 	0.62270 0.97410 0.62110 0.02800
C 	C 	0.75910 0.11300 0.81330 -0.06200
H 	H 	0.76680 0.01290 0.85470 0.04700
C 	C 	0.70440 0.11000 0.76270 -0.04700
H 	H 	0.67230 0.01830 0.77230 0.03500
N 	N 	0.06630 0.65280 0.06140 -0.24400
C 	C 	0.11220 0.59870 0.11020 0.08900
H 	H 	0.12270 0.47410 0.12110 -0.04600
C 	C 	0.25910 0.61300 0.31330 -0.06800
H 	H 	0.26680 0.51290 0.35470 0.04300
C 	C 	0.20440 0.61000 0.26270 -0.04800
H 	H 	0.17230 0.51830 0.27230 0.02800
Cu	Cu	0.50000 -0.00000 0.50000 0.80900
Cu	Cu	-0.00000 0.50000 -0.00000 0.76300
Cu	Cu	0.50000 0.50000 0.50000 0.82700
Cu	Cu	-0.00000 0.00000 -0.00000 0.74500
N 	N 	0.35690 0.25000 0.64340 -0.15000
C 	C 	0.30210 0.25000 0.69620 0.10500
N 	N 	0.85690 0.75000 0.14340 -0.17500
C 	C 	0.80210 0.75000 0.19620 0.11600
N 	N 	0.64310 0.25000 0.64340 -0.14900
C 	C 	0.69790 0.25000 0.69620 0.10200
N 	N 	0.14310 0.75000 0.14340 -0.17700
C 	C 	0.19790 0.75000 0.19620 0.10900
N 	N 	0.64310 0.75000 0.35660 -0.17600
C 	C 	0.69790 0.75000 0.30380 0.11700
N 	N 	0.14310 0.25000 0.85660 -0.15000
C 	C 	0.19790 0.25000 0.80380 0.10800
N 	N 	0.35690 0.75000 0.35660 -0.17700
C 	C 	0.30210 0.75000 0.30380 0.12000
N 	N 	0.85690 0.25000 0.85660 -0.14900
C 	C 	0.80210 0.25000 0.80380 0.11500
