data_crystal

_cell_length_a 21.24010
_cell_length_b 7.21640
_cell_length_c 15.24930
_cell_angle_alpha 90.00000
_cell_angle_beta  90.00000
_cell_angle_gamma 90.00000

_symmetry_space_group_name_	'P 1'
_symmetry_space_group_name_H-M	'P 1'

loop_
_symmetry_equiv_pos_as_xyz
  x,y,z

loop_
_atom_site_label
_atom_site_type_symbol
_atom_site_fract_x
_atom_site_fract_y
_atom_site_fract_z
_atom_site_charge
N 	N 	0.06639 0.15490 0.56002 -0.22000
C 	C 	0.11341 0.89980 0.39095 0.17200
H 	H 	0.12400 0.02250 0.37960 -0.09100
C 	C 	0.24760 0.63820 0.32310 -0.06200
C 	C 	0.19950 0.63600 0.23210 -0.06800
H 	H 	0.24450 0.55590 0.37240 0.04600
H 	H 	0.16370 0.56020 0.21850 0.02800
N 	N 	0.56639 0.65490 0.06002 -0.23200
C 	C 	0.61341 0.39980 0.89095 0.10600
H 	H 	0.62400 0.52250 0.87960 -0.01200
C 	C 	0.74760 0.13820 0.82310 -0.06000
C 	C 	0.69950 0.13600 0.73210 -0.06700
H 	H 	0.74450 0.05590 0.87240 0.05300
H 	H 	0.66370 0.06020 0.71850 0.03700
N 	N 	0.93361 0.34510 0.56002 -0.20000
C 	C 	0.88659 0.60020 0.39095 0.10000
H 	H 	0.87600 0.47750 0.37960 -0.02700
C 	C 	0.75240 0.86180 0.32310 -0.06700
C 	C 	0.80050 0.86400 0.23210 -0.06600
H 	H 	0.75550 0.94410 0.37240 0.06000
H 	H 	0.83630 0.93980 0.21850 0.05400
N 	N 	0.43361 0.84510 0.06002 -0.23600
C 	C 	0.38659 0.10020 0.89095 0.03000
H 	H 	0.37600 0.97750 0.87960 0.04000
C 	C 	0.25240 0.36180 0.82310 -0.06500
C 	C 	0.30050 0.36400 0.73210 -0.06400
H 	H 	0.25550 0.44410 0.87240 0.06300
H 	H 	0.33630 0.43980 0.71850 0.04800
N 	N 	0.93361 0.65490 0.43998 -0.20000
C 	C 	0.88659 0.39980 0.60905 0.10100
H 	H 	0.87600 0.52250 0.62040 -0.01700
C 	C 	0.75240 0.13820 0.67690 -0.06100
C 	C 	0.80050 0.13600 0.76790 -0.06300
H 	H 	0.75550 0.05590 0.62760 0.03600
H 	H 	0.83630 0.06020 0.78150 0.05000
N 	N 	0.43361 0.15490 0.93998 -0.18700
C 	C 	0.38659 0.89980 0.10905 0.16700
H 	H 	0.37600 0.02250 0.12040 -0.09700
C 	C 	0.25240 0.63820 0.17690 -0.06500
C 	C 	0.30050 0.63600 0.26790 -0.06500
H 	H 	0.25550 0.55590 0.12760 0.02800
H 	H 	0.33630 0.56020 0.28150 0.04100
N 	N 	0.06639 0.84510 0.43998 -0.23300
C 	C 	0.11341 0.10020 0.60905 0.01300
H 	H 	0.12400 0.97750 0.62040 0.02900
C 	C 	0.24760 0.36180 0.67690 -0.05700
C 	C 	0.19950 0.36400 0.76790 -0.05300
H 	H 	0.24450 0.44410 0.62760 0.04700
H 	H 	0.16370 0.43980 0.78150 0.04500
N 	N 	0.56639 0.34510 0.93998 -0.19500
C 	C 	0.61341 0.60020 0.10905 0.08600
H 	H 	0.62400 0.47750 0.12040 -0.03900
C 	C 	0.74760 0.86180 0.17690 -0.05900
C 	C 	0.69950 0.86400 0.26790 -0.05600
H 	H 	0.74450 0.94410 0.12760 0.04500
H 	H 	0.66370 0.93980 0.28150 0.05200
N 	N 	0.93361 0.84510 0.43998 -0.20400
C 	C 	0.88659 0.10020 0.60905 0.02400
H 	H 	0.87600 0.97750 0.62040 0.03700
C 	C 	0.75240 0.36180 0.67690 -0.06100
C 	C 	0.80050 0.36400 0.76790 -0.05700
H 	H 	0.75550 0.44410 0.62760 0.04900
H 	H 	0.83630 0.43980 0.78150 0.06000
N 	N 	0.43361 0.34510 0.93998 -0.19500
C 	C 	0.38659 0.60020 0.10905 0.08600
H 	H 	0.37600 0.47750 0.12040 -0.04000
C 	C 	0.25240 0.86180 0.17690 -0.06400
C 	C 	0.30050 0.86400 0.26790 -0.05900
H 	H 	0.25550 0.94410 0.12760 0.04200
H 	H 	0.33630 0.93980 0.28150 0.05200
N 	N 	0.06639 0.65490 0.43998 -0.22900
C 	C 	0.11341 0.39980 0.60905 0.09100
H 	H 	0.12400 0.52250 0.62040 -0.02600
C 	C 	0.24760 0.13820 0.67690 -0.05700
C 	C 	0.19950 0.13600 0.76790 -0.05900
H 	H 	0.24450 0.05590 0.62760 0.03400
H 	H 	0.16370 0.06020 0.78150 0.03400
N 	N 	0.56639 0.15490 0.93998 -0.18700
C 	C 	0.61341 0.89980 0.10905 0.16700
H 	H 	0.62400 0.02250 0.12040 -0.09500
C 	C 	0.74760 0.63820 0.17690 -0.05900
C 	C 	0.69950 0.63600 0.26790 -0.06200
H 	H 	0.74450 0.55590 0.12760 0.03200
H 	H 	0.66370 0.56020 0.28150 0.04100
N 	N 	0.06639 0.34510 0.56002 -0.22900
C 	C 	0.11341 0.60020 0.39095 0.09100
H 	H 	0.12400 0.47750 0.37960 -0.03600
C 	C 	0.24760 0.86180 0.32310 -0.06300
C 	C 	0.19950 0.86400 0.23210 -0.06300
H 	H 	0.24450 0.94410 0.37240 0.05900
H 	H 	0.16370 0.93980 0.21850 0.03900
N 	N 	0.56639 0.84510 0.06002 -0.23600
C 	C 	0.61341 0.10020 0.89095 0.03000
H 	H 	0.62400 0.97750 0.87960 0.04100
C 	C 	0.74760 0.36180 0.82310 -0.05900
C 	C 	0.69950 0.36400 0.73210 -0.06100
H 	H 	0.74450 0.44410 0.87240 0.06600
H 	H 	0.66370 0.43980 0.71850 0.04700
N 	N 	0.93361 0.15490 0.56002 -0.19200
C 	C 	0.88659 0.89980 0.39095 0.17800
H 	H 	0.87600 0.02250 0.37960 -0.08100
C 	C 	0.75240 0.63820 0.32310 -0.06700
C 	C 	0.80050 0.63600 0.23210 -0.07200
H 	H 	0.75550 0.55590 0.37240 0.04700
H 	H 	0.83630 0.56020 0.21850 0.04400
N 	N 	0.43361 0.65490 0.06002 -0.23200
C 	C 	0.38659 0.39980 0.89095 0.10500
H 	H 	0.37600 0.52250 0.87960 -0.01300
C 	C 	0.25240 0.13820 0.82310 -0.06600
C 	C 	0.30050 0.13600 0.73210 -0.07000
H 	H 	0.25550 0.05590 0.87240 0.05000
H 	H 	0.33630 0.06020 0.71850 0.03700
Cu	Cu	0.00000 0.00000 0.50000 0.77800
Cu	Cu	0.50000 0.50000 -0.00000 0.79000
Cu	Cu	-0.00000 0.50000 0.50000 0.79600
Cu	Cu	0.50000 0.00000 -0.00000 0.77100
N 	N 	0.14410 0.75000 0.35950 -0.17600
C 	C 	0.19893 0.75000 0.30260 0.12700
N 	N 	0.64410 0.25000 0.85950 -0.14800
C 	C 	0.69893 0.25000 0.80260 0.12000
N 	N 	0.85590 0.75000 0.35950 -0.17500
C 	C 	0.80107 0.75000 0.30260 0.13600
N 	N 	0.35590 0.25000 0.85950 -0.14900
C 	C 	0.30107 0.25000 0.80260 0.12600
N 	N 	0.85590 0.25000 0.64050 -0.14700
C 	C 	0.80107 0.25000 0.69740 0.11700
N 	N 	0.35590 0.75000 0.14050 -0.17600
C 	C 	0.30107 0.75000 0.19740 0.12400
N 	N 	0.14410 0.25000 0.64050 -0.14700
C 	C 	0.19893 0.25000 0.69740 0.10700
N 	N 	0.64410 0.75000 0.14050 -0.17400
C 	C 	0.69893 0.75000 0.19740 0.11800
