data_crystal

_cell_length_a 21.65800
_cell_length_b 7.26220
_cell_length_c 14.70000
_cell_angle_alpha 90.00000
_cell_angle_beta  90.00000
_cell_angle_gamma 90.00000

_symmetry_space_group_name_	'P 1'
_symmetry_space_group_name_H-M	'P 1'

loop_
_symmetry_equiv_pos_as_xyz
  x,y,z

loop_
_atom_site_label
_atom_site_type_symbol
_atom_site_fract_x
_atom_site_fract_y
_atom_site_fract_z
_atom_site_charge
N 	N 	0.06500 0.15470 0.06160 -0.23300
C 	C 	0.11140 0.10140 0.10990 0.02100
H 	H 	0.12160 0.97920 0.12120 0.01700
C 	C 	0.24690 0.35300 0.16670 -0.02600
C 	C 	0.19860 0.14800 0.27530 -0.03500
N 	N 	0.56500 0.65470 0.56160 -0.21900
C 	C 	0.61140 0.60140 0.60990 0.10600
H 	H 	0.62160 0.47920 0.62120 -0.02000
C 	C 	0.74690 0.85300 0.66670 -0.00100
C 	C 	0.69860 0.64800 0.77530 -0.01500
N 	N 	0.93500 0.34530 0.06160 -0.21200
C 	C 	0.88860 0.39860 0.10990 0.09800
H 	H 	0.87840 0.52080 0.12120 -0.02000
C 	C 	0.75310 0.14700 0.16670 -0.03600
C 	C 	0.80140 0.35200 0.27530 -0.01000
N 	N 	0.43500 0.84530 0.56160 -0.22300
C 	C 	0.38860 0.89860 0.60990 0.17300
H 	H 	0.37840 0.02080 0.62120 -0.06700
C 	C 	0.25310 0.64700 0.66670 -0.01700
C 	C 	0.30140 0.85200 0.77530 -0.00400
N 	N 	0.93500 0.65470 0.93840 -0.17900
C 	C 	0.88860 0.60140 0.89010 0.11600
H 	H 	0.87840 0.47920 0.87880 -0.00400
C 	C 	0.75310 0.85300 0.83330 0.01100
C 	C 	0.80140 0.64800 0.72470 -0.01300
N 	N 	0.43500 0.15470 0.43840 -0.21300
C 	C 	0.38860 0.10140 0.39010 0.03200
H 	H 	0.37840 0.97920 0.37880 0.02700
C 	C 	0.25310 0.35300 0.33330 -0.01300
C 	C 	0.30140 0.14800 0.22470 -0.03400
N 	N 	0.06500 0.84530 0.93840 -0.20800
C 	C 	0.11140 0.89860 0.89010 0.17600
H 	H 	0.12160 0.02080 0.87880 -0.06000
C 	C 	0.24690 0.64700 0.83330 -0.00100
C 	C 	0.19860 0.85200 0.72470 -0.01400
N 	N 	0.56500 0.34530 0.43840 -0.22100
C 	C 	0.61140 0.39860 0.39010 0.10100
H 	H 	0.62160 0.52080 0.37880 -0.01900
C 	C 	0.74690 0.14700 0.33330 -0.02100
C 	C 	0.69860 0.35200 0.22470 -0.02200
N 	N 	0.93500 0.84530 0.93840 -0.18300
C 	C 	0.88860 0.89860 0.89010 0.18200
H 	H 	0.87840 0.02080 0.87880 -0.04900
C 	C 	0.75310 0.64700 0.83330 -0.00000
C 	C 	0.80140 0.85200 0.72470 -0.00200
N 	N 	0.43500 0.34530 0.43840 -0.22100
C 	C 	0.38860 0.39860 0.39010 0.10000
H 	H 	0.37840 0.52080 0.37880 -0.02000
C 	C 	0.25310 0.14700 0.33330 -0.02500
C 	C 	0.30140 0.35200 0.22470 -0.02300
N 	N 	0.06500 0.65470 0.93840 -0.20400
C 	C 	0.11140 0.60140 0.89010 0.10900
H 	H 	0.12160 0.47920 0.87880 -0.01400
C 	C 	0.24690 0.85300 0.83330 0.01100
C 	C 	0.19860 0.64800 0.72470 -0.02500
N 	N 	0.56500 0.15470 0.43840 -0.21300
C 	C 	0.61140 0.10140 0.39010 0.03300
H 	H 	0.62160 0.97920 0.37880 0.02700
C 	C 	0.74690 0.35300 0.33330 -0.00900
C 	C 	0.69860 0.14800 0.22470 -0.03400
N 	N 	0.06500 0.34530 0.06160 -0.24100
C 	C 	0.11140 0.39860 0.10990 0.08900
H 	H 	0.12160 0.52080 0.12120 -0.03000
C 	C 	0.24690 0.14700 0.16670 -0.03800
C 	C 	0.19860 0.35200 0.27530 -0.02300
N 	N 	0.56500 0.84530 0.56160 -0.22200
C 	C 	0.61140 0.89860 0.60990 0.17300
H 	H 	0.62160 0.02080 0.62120 -0.06600
C 	C 	0.74690 0.64700 0.66670 -0.01300
C 	C 	0.69860 0.85200 0.77530 -0.00400
N 	N 	0.93500 0.15470 0.06160 -0.20500
C 	C 	0.88860 0.10140 0.10990 0.03200
H 	H 	0.87840 0.97920 0.12120 0.02600
C 	C 	0.75310 0.35300 0.16670 -0.02400
C 	C 	0.80140 0.14800 0.27530 -0.02200
N 	N 	0.43500 0.65470 0.56160 -0.21900
C 	C 	0.38860 0.60140 0.60990 0.10500
H 	H 	0.37840 0.47920 0.62120 -0.02100
C 	C 	0.25310 0.85300 0.66670 -0.00500
C 	C 	0.30140 0.64800 0.77530 -0.01500
Cu	Cu	-0.00000 0.00000 -0.00000 0.75500
Cu	Cu	0.50000 0.50000 0.50000 0.83000
Cu	Cu	-0.00000 0.50000 -0.00000 0.77000
Cu	Cu	0.50000 0.00000 0.50000 0.81500
N 	N 	0.14340 0.25000 0.14190 -0.14100
C 	C 	0.19730 0.25000 0.19810 0.07600
N 	N 	0.64340 0.75000 0.64190 -0.15300
C 	C 	0.69730 0.75000 0.69810 0.06800
N 	N 	0.85660 0.25000 0.14190 -0.13700
C 	C 	0.80270 0.25000 0.19810 0.07100
N 	N 	0.35660 0.75000 0.64190 -0.15400
C 	C 	0.30270 0.75000 0.69810 0.07000
N 	N 	0.85660 0.75000 0.85810 -0.14900
C 	C 	0.80270 0.75000 0.80190 0.06300
N 	N 	0.35660 0.25000 0.35810 -0.13800
C 	C 	0.30270 0.25000 0.30190 0.07200
N 	N 	0.14340 0.75000 0.85810 -0.15300
C 	C 	0.19730 0.75000 0.80190 0.06700
N 	N 	0.64340 0.25000 0.35810 -0.13700
C 	C 	0.69730 0.25000 0.30190 0.07000
