data_crystal

_cell_length_a 21.34800
_cell_length_b 7.13200
_cell_length_c 15.17500
_cell_angle_alpha 90.00000
_cell_angle_beta  90.00000
_cell_angle_gamma 90.00000

_symmetry_space_group_name_	'P 1'
_symmetry_space_group_name_H-M	'P 1'

loop_
_symmetry_equiv_pos_as_xyz
  x,y,z

loop_
_atom_site_label
_atom_site_type_symbol
_atom_site_fract_x
_atom_site_fract_y
_atom_site_fract_z
_atom_site_charge
N 	N 	0.43360 0.15250 0.43820 -0.21700
C 	C 	0.38740 0.90130 0.60960 0.17000
H 	H 	0.37640 0.02560 0.61990 -0.07500
C 	C 	0.25730 0.61140 0.68430 -0.06500
C 	C 	0.29510 0.61150 0.75910 -0.04900
H 	H 	0.26200 0.51970 0.63850 0.04300
H 	H 	0.32660 0.51630 0.76510 0.04300
N 	N 	0.93360 0.65250 0.93820 -0.18400
C 	C 	0.88740 0.40130 0.10960 0.09800
H 	H 	0.87640 0.52560 0.11990 -0.03000
C 	C 	0.75730 0.11140 0.18430 -0.06400
C 	C 	0.79510 0.11150 0.25910 -0.05000
H 	H 	0.76200 0.01970 0.13850 0.02500
H 	H 	0.82660 0.01630 0.26510 0.03600
N 	N 	0.56640 0.34750 0.43820 -0.22500
C 	C 	0.61260 0.59870 0.60960 0.10700
H 	H 	0.62360 0.47440 0.61990 -0.03200
C 	C 	0.74270 0.88860 0.68430 -0.05900
C 	C 	0.70490 0.88850 0.75910 -0.04900
H 	H 	0.73800 0.98030 0.63850 0.05700
H 	H 	0.67340 0.98370 0.76510 0.05500
N 	N 	0.06640 0.84750 0.93820 -0.21300
C 	C 	0.11260 0.09870 0.10960 0.02700
H 	H 	0.12360 0.97440 0.11990 0.00500
C 	C 	0.24270 0.38860 0.18430 -0.06000
C 	C 	0.20490 0.38850 0.25910 -0.05000
H 	H 	0.23800 0.48030 0.13850 0.03500
H 	H 	0.17340 0.48370 0.26510 0.03600
N 	N 	0.56640 0.65250 0.56180 -0.22300
C 	C 	0.61260 0.40130 0.39040 0.10200
H 	H 	0.62360 0.52560 0.38010 -0.02900
C 	C 	0.74270 0.11140 0.31570 -0.06000
C 	C 	0.70490 0.11150 0.24090 -0.05700
H 	H 	0.73800 0.01970 0.36150 0.03700
H 	H 	0.67340 0.01630 0.23490 0.02700
N 	N 	0.06640 0.15250 0.06180 -0.23700
C 	C 	0.11260 0.90130 0.89040 0.17100
H 	H 	0.12360 0.02560 0.88010 -0.06900
C 	C 	0.24270 0.61140 0.81570 -0.06200
C 	C 	0.20490 0.61150 0.74090 -0.05700
H 	H 	0.23800 0.51970 0.86150 0.05600
H 	H 	0.17340 0.51630 0.73490 0.03500
N 	N 	0.43360 0.84750 0.56180 -0.22700
C 	C 	0.38740 0.09870 0.39040 0.03900
H 	H 	0.37640 0.97440 0.38010 0.01400
C 	C 	0.25730 0.38860 0.31570 -0.06300
C 	C 	0.29510 0.38850 0.24090 -0.05700
H 	H 	0.26200 0.48030 0.36150 0.04600
H 	H 	0.32660 0.48370 0.23490 0.03800
N 	N 	0.93360 0.34750 0.06180 -0.21600
C 	C 	0.88740 0.59870 0.89040 0.11800
H 	H 	0.87640 0.47440 0.88010 -0.01800
C 	C 	0.75730 0.88860 0.81570 -0.06300
C 	C 	0.79510 0.88850 0.74090 -0.05600
H 	H 	0.76200 0.98030 0.86150 0.06800
H 	H 	0.82660 0.98370 0.73490 0.05800
N 	N 	0.56640 0.84750 0.56180 -0.22700
C 	C 	0.61260 0.09870 0.39040 0.04000
H 	H 	0.62360 0.97440 0.38010 0.01400
C 	C 	0.74270 0.38860 0.31570 -0.05800
C 	C 	0.70490 0.38850 0.24090 -0.05700
H 	H 	0.73800 0.48030 0.36150 0.04900
H 	H 	0.67340 0.48370 0.23490 0.03800
N 	N 	0.06640 0.34750 0.06180 -0.24400
C 	C 	0.11260 0.59870 0.89040 0.11000
H 	H 	0.12360 0.47440 0.88010 -0.02600
C 	C 	0.24270 0.88860 0.81570 -0.06000
C 	C 	0.20490 0.88850 0.74090 -0.05700
H 	H 	0.23800 0.98030 0.86150 0.06700
H 	H 	0.17340 0.98370 0.73490 0.04700
N 	N 	0.43360 0.65250 0.56180 -0.22300
C 	C 	0.38740 0.40130 0.39040 0.10100
H 	H 	0.37640 0.52560 0.38010 -0.03000
C 	C 	0.25730 0.11140 0.31570 -0.06400
C 	C 	0.29510 0.11150 0.24090 -0.05800
H 	H 	0.26200 0.01970 0.36150 0.03400
H 	H 	0.32660 0.01630 0.23490 0.02700
N 	N 	0.93360 0.15250 0.06180 -0.20900
C 	C 	0.88740 0.90130 0.89040 0.17700
H 	H 	0.87640 0.02560 0.88010 -0.06000
C 	C 	0.75730 0.61140 0.81570 -0.06400
C 	C 	0.79510 0.61150 0.74090 -0.05700
H 	H 	0.76200 0.51970 0.86150 0.05700
H 	H 	0.82660 0.51630 0.73490 0.04700
N 	N 	0.43360 0.34750 0.43820 -0.22500
C 	C 	0.38740 0.59870 0.60960 0.10700
H 	H 	0.37640 0.47440 0.61990 -0.03300
C 	C 	0.25730 0.88860 0.68430 -0.06300
C 	C 	0.29510 0.88850 0.75910 -0.04900
H 	H 	0.26200 0.98030 0.63850 0.05400
H 	H 	0.32660 0.98370 0.76510 0.05500
N 	N 	0.93360 0.84750 0.93820 -0.18800
C 	C 	0.88740 0.09870 0.10960 0.03800
H 	H 	0.87640 0.97440 0.11990 0.01300
C 	C 	0.75730 0.38860 0.18430 -0.06200
C 	C 	0.79510 0.38850 0.25910 -0.05000
H 	H 	0.76200 0.48030 0.13850 0.03600
H 	H 	0.82660 0.48370 0.26510 0.04800
N 	N 	0.56640 0.15250 0.43820 -0.21800
C 	C 	0.61260 0.90130 0.60960 0.16900
H 	H 	0.62360 0.02560 0.61990 -0.07600
C 	C 	0.74270 0.61140 0.68430 -0.06100
C 	C 	0.70490 0.61150 0.75910 -0.04900
H 	H 	0.73800 0.51970 0.63850 0.04600
H 	H 	0.67340 0.51630 0.76510 0.04300
N 	N 	0.06640 0.65250 0.93820 -0.20900
C 	C 	0.11260 0.40130 0.10960 0.08900
H 	H 	0.12360 0.52560 0.11990 -0.03900
C 	C 	0.24270 0.11140 0.18430 -0.06100
C 	C 	0.20490 0.11150 0.25910 -0.05000
H 	H 	0.23800 0.01970 0.13850 0.02300
H 	H 	0.17340 0.01630 0.26510 0.02400
Cu	Cu	0.50000 0.00000 0.50000 0.81100
Cu	Cu	-0.00000 0.50000 -0.00000 0.76600
Cu	Cu	0.50000 0.50000 0.50000 0.82600
Cu	Cu	-0.00000 0.00000 -0.00000 0.75200
N 	N 	0.35710 0.75000 0.64350 -0.17200
C 	C 	0.30170 0.75000 0.69670 0.11600
N 	N 	0.85710 0.25000 0.14350 -0.15200
C 	C 	0.80170 0.25000 0.19670 0.10300
N 	N 	0.64290 0.75000 0.64350 -0.17100
C 	C 	0.69830 0.75000 0.69670 0.11400
N 	N 	0.14290 0.25000 0.14350 -0.15300
C 	C 	0.19830 0.25000 0.19670 0.09600
N 	N 	0.64290 0.25000 0.35650 -0.15300
C 	C 	0.69830 0.25000 0.30330 0.10500
N 	N 	0.14290 0.75000 0.85650 -0.17300
C 	C 	0.19830 0.75000 0.80330 0.12000
N 	N 	0.35710 0.25000 0.35650 -0.15400
C 	C 	0.30170 0.25000 0.30330 0.10800
N 	N 	0.85710 0.75000 0.85650 -0.17100
C 	C 	0.80170 0.75000 0.80330 0.12600
