data_crystal

_cell_length_a 21.32300
_cell_length_b 7.14000
_cell_length_c 15.23000
_cell_angle_alpha 90.00000
_cell_angle_beta  90.00000
_cell_angle_gamma 90.00000

_symmetry_space_group_name_	'P 1'
_symmetry_space_group_name_H-M	'P 1'

loop_
_symmetry_equiv_pos_as_xyz
  x,y,z

loop_
_atom_site_label
_atom_site_type_symbol
_atom_site_fract_x
_atom_site_fract_y
_atom_site_fract_z
_atom_site_charge
N 	N 	0.56640 0.15310 0.06110 -0.22700
C 	C 	0.61260 0.90100 0.89090 0.17200
H 	H 	0.62360 0.02530 0.88110 -0.06400
C 	C 	0.70340 0.88700 0.73810 -0.04800
C 	C 	0.73980 0.88800 0.80960 -0.06700
H 	H 	0.67090 0.97770 0.72890 0.04800
H 	H 	0.73370 0.98250 0.85340 0.07100
N 	N 	0.06640 0.65310 0.56110 -0.23100
C 	C 	0.11260 0.40100 0.39090 0.09400
H 	H 	0.12360 0.52530 0.38110 -0.03200
C 	C 	0.20340 0.38700 0.23810 -0.05300
C 	C 	0.23980 0.38800 0.30960 -0.06300
H 	H 	0.17090 0.47770 0.22890 0.02900
H 	H 	0.23370 0.48250 0.35340 0.04800
N 	N 	0.43360 0.34690 0.06110 -0.23500
C 	C 	0.38740 0.59900 0.89090 0.11200
H 	H 	0.37640 0.47470 0.88110 -0.02200
C 	C 	0.29660 0.61300 0.73810 -0.05200
C 	C 	0.26020 0.61200 0.80960 -0.07000
H 	H 	0.32910 0.52230 0.72890 0.03800
H 	H 	0.26630 0.51750 0.85340 0.05600
N 	N 	0.93360 0.84690 0.56110 -0.20600
C 	C 	0.88740 0.09900 0.39090 0.04300
H 	H 	0.87640 0.97470 0.38110 0.02000
C 	C 	0.79660 0.11300 0.23810 -0.05600
C 	C 	0.76020 0.11200 0.30960 -0.06500
H 	H 	0.82910 0.02230 0.22890 0.03200
H 	H 	0.76630 0.01750 0.35340 0.03700
N 	N 	0.43360 0.65310 0.93890 -0.20000
C 	C 	0.38740 0.40100 0.10910 0.09100
H 	H 	0.37640 0.52530 0.11890 -0.03600
C 	C 	0.29660 0.38700 0.26190 -0.04600
C 	C 	0.26020 0.38800 0.19040 -0.06600
H 	H 	0.32910 0.47770 0.27110 0.03900
H 	H 	0.26630 0.48250 0.14660 0.03600
N 	N 	0.93360 0.15310 0.43890 -0.19800
C 	C 	0.88740 0.90100 0.60910 0.16900
H 	H 	0.87640 0.02530 0.61890 -0.06800
C 	C 	0.79660 0.88700 0.76190 -0.04100
C 	C 	0.76020 0.88800 0.69040 -0.07000
H 	H 	0.82910 0.97770 0.77110 0.05800
H 	H 	0.76630 0.98250 0.64660 0.05900
N 	N 	0.56640 0.84690 0.93890 -0.20300
C 	C 	0.61260 0.09900 0.10910 0.03000
H 	H 	0.62360 0.97470 0.11890 0.00800
C 	C 	0.70340 0.11300 0.26190 -0.04800
C 	C 	0.73980 0.11200 0.19040 -0.06000
H 	H 	0.67090 0.02230 0.27110 0.02900
H 	H 	0.73370 0.01750 0.14660 0.02700
N 	N 	0.06640 0.34690 0.43890 -0.23300
C 	C 	0.11260 0.59900 0.60910 0.09900
H 	H 	0.12360 0.47470 0.61890 -0.03500
C 	C 	0.20340 0.61300 0.76190 -0.04400
C 	C 	0.23980 0.61200 0.69040 -0.06500
H 	H 	0.17090 0.52230 0.77110 0.03600
H 	H 	0.23370 0.51750 0.64660 0.04500
N 	N 	0.43360 0.84690 0.93890 -0.20300
C 	C 	0.38740 0.09900 0.10910 0.02900
H 	H 	0.37640 0.97470 0.11890 0.00800
C 	C 	0.29660 0.11300 0.26190 -0.04900
C 	C 	0.26020 0.11200 0.19040 -0.06400
H 	H 	0.32910 0.02230 0.27110 0.02900
H 	H 	0.26630 0.01750 0.14660 0.02400
N 	N 	0.93360 0.34690 0.43890 -0.20400
C 	C 	0.88740 0.59900 0.60910 0.10900
H 	H 	0.87640 0.47470 0.61890 -0.02600
C 	C 	0.79660 0.61300 0.76190 -0.04400
C 	C 	0.76020 0.61200 0.69040 -0.06900
H 	H 	0.82910 0.52230 0.77110 0.04800
H 	H 	0.76630 0.51750 0.64660 0.04700
N 	N 	0.56640 0.65310 0.93890 -0.20000
C 	C 	0.61260 0.40100 0.10910 0.09100
H 	H 	0.62360 0.52530 0.11890 -0.03500
C 	C 	0.70340 0.38700 0.26190 -0.04500
C 	C 	0.73980 0.38800 0.19040 -0.06200
H 	H 	0.67090 0.47770 0.27110 0.03900
H 	H 	0.73370 0.48250 0.14660 0.03900
N 	N 	0.06640 0.15310 0.43890 -0.22600
C 	C 	0.11260 0.90100 0.60910 0.16200
H 	H 	0.12360 0.02530 0.61890 -0.07900
C 	C 	0.20340 0.88700 0.76190 -0.04100
C 	C 	0.23980 0.88800 0.69040 -0.06700
H 	H 	0.17090 0.97770 0.77110 0.04600
H 	H 	0.23370 0.98250 0.64660 0.05800
N 	N 	0.56640 0.34690 0.06110 -0.23500
C 	C 	0.61260 0.59900 0.89090 0.11200
H 	H 	0.62360 0.47470 0.88110 -0.02200
C 	C 	0.70340 0.61300 0.73810 -0.05200
C 	C 	0.73980 0.61200 0.80960 -0.06600
H 	H 	0.67090 0.52230 0.72890 0.03800
H 	H 	0.73370 0.51750 0.85340 0.05900
N 	N 	0.06640 0.84690 0.56110 -0.23500
C 	C 	0.11260 0.09900 0.39090 0.03200
H 	H 	0.12360 0.97470 0.38110 0.01200
C 	C 	0.20340 0.11300 0.23810 -0.05700
C 	C 	0.23980 0.11200 0.30960 -0.06100
H 	H 	0.17090 0.02230 0.22890 0.01900
H 	H 	0.23370 0.01750 0.35340 0.03500
N 	N 	0.43360 0.15310 0.06110 -0.22800
C 	C 	0.38740 0.90100 0.89090 0.17200
H 	H 	0.37640 0.02530 0.88110 -0.06500
C 	C 	0.29660 0.88700 0.73810 -0.04900
C 	C 	0.26020 0.88800 0.80960 -0.07100
H 	H 	0.32910 0.97770 0.72890 0.04800
H 	H 	0.26630 0.98250 0.85340 0.06900
N 	N 	0.93360 0.65310 0.56110 -0.20300
C 	C 	0.88740 0.40100 0.39090 0.10400
H 	H 	0.87640 0.52530 0.38110 -0.02300
C 	C 	0.79660 0.38700 0.23810 -0.05300
C 	C 	0.76020 0.38800 0.30960 -0.06600
H 	H 	0.82910 0.47770 0.22890 0.04200
H 	H 	0.76630 0.48250 0.35340 0.05000
Cu	Cu	0.50000 0.00000 -0.00000 0.77900
Cu	Cu	-0.00000 0.50000 0.50000 0.79600
Cu	Cu	0.50000 0.50000 -0.00000 0.79300
Cu	Cu	0.00000 0.00000 0.50000 0.78200
N 	N 	0.64320 0.75000 0.85650 -0.17100
C 	C 	0.69800 0.75000 0.80370 0.12500
N 	N 	0.14320 0.25000 0.35650 -0.15400
C 	C 	0.19800 0.25000 0.30370 0.10500
N 	N 	0.35680 0.75000 0.85650 -0.17200
C 	C 	0.30200 0.75000 0.80370 0.12700
N 	N 	0.85680 0.25000 0.35650 -0.15300
C 	C 	0.80200 0.25000 0.30370 0.11300
N 	N 	0.35680 0.25000 0.14350 -0.15300
C 	C 	0.30200 0.25000 0.19630 0.10100
N 	N 	0.85680 0.75000 0.64350 -0.17000
C 	C 	0.80200 0.75000 0.69630 0.12100
N 	N 	0.64320 0.25000 0.14350 -0.15300
C 	C 	0.69800 0.25000 0.19630 0.09900
N 	N 	0.14320 0.75000 0.64350 -0.17200
C 	C 	0.19800 0.75000 0.69630 0.11400
