data_crystal

_cell_length_a 22.12660
_cell_length_b 7.25660
_cell_length_c 13.86630
_cell_angle_alpha 90.00000
_cell_angle_beta  90.00000
_cell_angle_gamma 90.00000

_symmetry_space_group_name_	'P 1'
_symmetry_space_group_name_H-M	'P 1'

loop_
_symmetry_equiv_pos_as_xyz
  x,y,z

loop_
_atom_site_label
_atom_site_type_symbol
_atom_site_fract_x
_atom_site_fract_y
_atom_site_fract_z
_atom_site_charge
N 	N 	0.56389 0.34500 0.93550 -0.19500
C 	C 	0.61088 0.60050 0.11240 0.08600
H 	H 	0.62160 0.47830 0.12310 -0.04000
C 	C 	0.69990 0.64610 0.28120 -0.05700
C 	C 	0.74470 0.64770 0.16460 -0.06300
H 	H 	0.66630 0.57010 0.29970 0.04000
H 	H 	0.74180 0.58580 0.10350 0.02800
N 	N 	0.06389 0.84500 0.43550 -0.23500
C 	C 	0.11088 0.10050 0.61240 0.01200
H 	H 	0.12160 0.97830 0.62310 0.03200
C 	C 	0.19990 0.14610 0.78120 -0.05400
C 	C 	0.24470 0.14770 0.66460 -0.06200
H 	H 	0.16630 0.07010 0.79970 0.03500
H 	H 	0.24180 0.08580 0.60350 0.03500
N 	N 	0.43611 0.15500 0.93550 -0.18800
C 	C 	0.38912 0.89950 0.11240 0.17100
H 	H 	0.37840 0.02170 0.12310 -0.09900
C 	C 	0.30010 0.85390 0.28120 -0.05700
C 	C 	0.25530 0.85230 0.16460 -0.05800
H 	H 	0.33370 0.92990 0.29970 0.05300
H 	H 	0.25820 0.91420 0.10350 0.03600
N 	N 	0.93611 0.65500 0.43550 -0.20200
C 	C 	0.88912 0.39950 0.61240 0.10200
H 	H 	0.87840 0.52170 0.62310 -0.01600
C 	C 	0.80010 0.35390 0.78120 -0.05400
C 	C 	0.75530 0.35230 0.66460 -0.05600
H 	H 	0.83370 0.42990 0.79970 0.06000
H 	H 	0.75820 0.41420 0.60350 0.04600
N 	N 	0.43611 0.84500 0.06450 -0.23800
C 	C 	0.38912 0.10050 0.88760 0.02800
H 	H 	0.37840 0.97830 0.87690 0.04400
C 	C 	0.30010 0.14610 0.71880 -0.06500
C 	C 	0.25530 0.14770 0.83540 -0.07100
H 	H 	0.33370 0.07010 0.70030 0.03500
H 	H 	0.25820 0.08580 0.89650 0.05600
N 	N 	0.93611 0.34500 0.56450 -0.20200
C 	C 	0.88912 0.60050 0.38760 0.09900
H 	H 	0.87840 0.47830 0.37690 -0.02700
C 	C 	0.80010 0.64610 0.21880 -0.06800
C 	C 	0.75530 0.64770 0.33540 -0.07100
H 	H 	0.83370 0.57010 0.20030 0.04000
H 	H 	0.75820 0.58580 0.39650 0.04900
N 	N 	0.56389 0.65500 0.06450 -0.23300
C 	C 	0.61088 0.39950 0.88760 0.10700
H 	H 	0.62160 0.52170 0.87690 -0.01100
C 	C 	0.69990 0.35390 0.71880 -0.06100
C 	C 	0.74470 0.35230 0.83540 -0.06000
H 	H 	0.66630 0.42990 0.70030 0.04700
H 	H 	0.74180 0.41420 0.89650 0.06800
N 	N 	0.06389 0.15500 0.56450 -0.22100
C 	C 	0.11088 0.89950 0.38760 0.17500
H 	H 	0.12160 0.02170 0.37690 -0.09300
C 	C 	0.19990 0.85390 0.21880 -0.06400
C 	C 	0.24470 0.85230 0.33540 -0.06100
H 	H 	0.16630 0.92990 0.20030 0.03900
H 	H 	0.24180 0.91420 0.39650 0.05700
N 	N 	0.43611 0.65500 0.06450 -0.23300
C 	C 	0.38912 0.39950 0.88760 0.10700
H 	H 	0.37840 0.52170 0.87690 -0.01100
C 	C 	0.30010 0.35390 0.71880 -0.06300
C 	C 	0.25530 0.35230 0.83540 -0.06300
H 	H 	0.33370 0.42990 0.70030 0.04700
H 	H 	0.25820 0.41420 0.89650 0.06500
N 	N 	0.93611 0.15500 0.56450 -0.19300
C 	C 	0.88912 0.89950 0.38760 0.18100
H 	H 	0.87840 0.02170 0.37690 -0.08300
C 	C 	0.80010 0.85390 0.21880 -0.06600
C 	C 	0.75530 0.85230 0.33540 -0.06300
H 	H 	0.83370 0.92990 0.20030 0.05200
H 	H 	0.75820 0.91420 0.39650 0.05800
N 	N 	0.56389 0.84500 0.06450 -0.23800
C 	C 	0.61088 0.10050 0.88760 0.02900
H 	H 	0.62160 0.97830 0.87690 0.04400
C 	C 	0.69990 0.14610 0.71880 -0.06300
C 	C 	0.74470 0.14770 0.83540 -0.06800
H 	H 	0.66630 0.07010 0.70030 0.03500
H 	H 	0.74180 0.08580 0.89650 0.05900
N 	N 	0.06389 0.34500 0.56450 -0.23000
C 	C 	0.11088 0.60050 0.38760 0.09100
H 	H 	0.12160 0.47830 0.37690 -0.03600
C 	C 	0.19990 0.64610 0.21880 -0.06600
C 	C 	0.24470 0.64770 0.33540 -0.06900
H 	H 	0.16630 0.57010 0.20030 0.02600
H 	H 	0.24180 0.58580 0.39650 0.04800
N 	N 	0.56389 0.15500 0.93550 -0.18800
C 	C 	0.61088 0.89950 0.11240 0.17000
H 	H 	0.62160 0.02170 0.12310 -0.09800
C 	C 	0.69990 0.85390 0.28120 -0.05600
C 	C 	0.74470 0.85230 0.16460 -0.05400
H 	H 	0.66630 0.92990 0.29970 0.05200
H 	H 	0.74180 0.91420 0.10350 0.03800
N 	N 	0.06389 0.65500 0.43550 -0.23100
C 	C 	0.11088 0.39950 0.61240 0.09300
H 	H 	0.12160 0.52170 0.62310 -0.02500
C 	C 	0.19990 0.35390 0.78120 -0.05200
C 	C 	0.24470 0.35230 0.66460 -0.05400
H 	H 	0.16630 0.42990 0.79970 0.04700
H 	H 	0.24180 0.41420 0.60350 0.04500
N 	N 	0.43611 0.34500 0.93550 -0.19600
C 	C 	0.38912 0.60050 0.11240 0.08600
H 	H 	0.37840 0.47830 0.12310 -0.04000
C 	C 	0.30010 0.64610 0.28120 -0.05900
C 	C 	0.25530 0.64770 0.16460 -0.06600
H 	H 	0.33370 0.57010 0.29970 0.04000
H 	H 	0.25820 0.58580 0.10350 0.02600
N 	N 	0.93611 0.84500 0.43550 -0.20700
C 	C 	0.88912 0.10050 0.61240 0.02200
H 	H 	0.87840 0.97830 0.62310 0.04000
C 	C 	0.80010 0.14610 0.78120 -0.05600
C 	C 	0.75530 0.14770 0.66460 -0.06400
H 	H 	0.83370 0.07010 0.79970 0.04900
H 	H 	0.75820 0.08580 0.60350 0.03600
Cu	Cu	0.50000 0.50000 -0.00000 0.79100
Cu	Cu	0.00000 0.00000 0.50000 0.78000
Cu	Cu	0.50000 0.00000 -0.00000 0.77100
Cu	Cu	-0.00000 0.50000 0.50000 0.79900
N 	N 	0.64220 0.75000 0.14450 -0.17400
C 	C 	0.69770 0.75000 0.19810 0.11500
N 	N 	0.14220 0.25000 0.64450 -0.14700
C 	C 	0.19770 0.25000 0.69810 0.10500
N 	N 	0.35780 0.75000 0.14450 -0.17500
C 	C 	0.30230 0.75000 0.19810 0.11900
N 	N 	0.85780 0.25000 0.64450 -0.14600
C 	C 	0.80230 0.25000 0.69810 0.11100
N 	N 	0.35780 0.25000 0.85550 -0.14800
C 	C 	0.30230 0.25000 0.80190 0.12400
N 	N 	0.85780 0.75000 0.35550 -0.17400
C 	C 	0.80230 0.75000 0.30190 0.13300
N 	N 	0.64220 0.25000 0.85550 -0.14800
C 	C 	0.69770 0.25000 0.80190 0.12000
N 	N 	0.14220 0.75000 0.35550 -0.17600
C 	C 	0.19770 0.75000 0.30190 0.12700
