data_crystal

_cell_length_a 21.29400
_cell_length_b 7.17890
_cell_length_c 15.25600
_cell_angle_alpha 90.00000
_cell_angle_beta  90.00000
_cell_angle_gamma 90.00000

_symmetry_space_group_name_	'P 1'
_symmetry_space_group_name_H-M	'P 1'

loop_
_symmetry_equiv_pos_as_xyz
  x,y,z

loop_
_atom_site_label
_atom_site_type_symbol
_atom_site_fract_x
_atom_site_fract_y
_atom_site_fract_z
_atom_site_charge
N 	N 	0.56640 0.34640 0.06080 -0.23500
C 	C 	0.61260 0.59940 0.89150 0.11400
H 	H 	0.62330 0.47590 0.88080 -0.02300
C 	C 	0.74240 0.62200 0.82190 -0.07000
C 	C 	0.70370 0.61900 0.73680 -0.05500
H 	H 	0.73720 0.53080 0.86720 0.06400
H 	H 	0.67230 0.52380 0.73100 0.04100
N 	N 	0.06640 0.84640 0.56080 -0.23500
C 	C 	0.11260 0.09940 0.39150 0.03300
H 	H 	0.12330 0.97590 0.38080 0.01100
C 	C 	0.24240 0.12200 0.32190 -0.07000
C 	C 	0.20370 0.11900 0.23680 -0.05700
H 	H 	0.23720 0.03080 0.36720 0.04000
H 	H 	0.17230 0.02380 0.23100 0.02100
N 	N 	0.43360 0.15360 0.06080 -0.22800
C 	C 	0.38740 0.90060 0.89150 0.17400
H 	H 	0.37670 0.02410 0.88080 -0.06600
C 	C 	0.25760 0.87800 0.82190 -0.07300
C 	C 	0.29630 0.88100 0.73680 -0.05500
H 	H 	0.26280 0.96920 0.86720 0.07100
H 	H 	0.32770 0.97620 0.73100 0.05200
N 	N 	0.93360 0.65360 0.56080 -0.20300
C 	C 	0.88740 0.40060 0.39150 0.10500
H 	H 	0.87670 0.52410 0.38080 -0.02400
C 	C 	0.75760 0.37800 0.32190 -0.07300
C 	C 	0.79630 0.38100 0.23680 -0.05600
H 	H 	0.76280 0.46920 0.36720 0.05200
H 	H 	0.82770 0.47620 0.23100 0.04400
N 	N 	0.43360 0.84640 0.93920 -0.20400
C 	C 	0.38740 0.09940 0.10850 0.03100
H 	H 	0.37670 0.97590 0.11920 0.00700
C 	C 	0.25760 0.12200 0.17810 -0.07500
C 	C 	0.29630 0.11900 0.26320 -0.05200
H 	H 	0.26280 0.03080 0.13280 0.02600
H 	H 	0.32770 0.02380 0.26900 0.03100
N 	N 	0.93360 0.34640 0.43920 -0.20400
C 	C 	0.88740 0.59940 0.60850 0.11000
H 	H 	0.87670 0.47590 0.61920 -0.02600
C 	C 	0.75760 0.62200 0.67810 -0.07400
C 	C 	0.79630 0.61900 0.76320 -0.04900
H 	H 	0.76280 0.53080 0.63280 0.05000
H 	H 	0.82770 0.52380 0.76900 0.05100
N 	N 	0.56640 0.65360 0.93920 -0.20000
C 	C 	0.61260 0.40060 0.10850 0.09300
H 	H 	0.62330 0.52410 0.11920 -0.03600
C 	C 	0.74240 0.37800 0.17810 -0.06900
C 	C 	0.70370 0.38100 0.26320 -0.04900
H 	H 	0.73720 0.46920 0.13280 0.04000
H 	H 	0.67230 0.47620 0.26900 0.04200
N 	N 	0.06640 0.15360 0.43920 -0.22600
C 	C 	0.11260 0.90060 0.60850 0.16300
H 	H 	0.12330 0.02410 0.61920 -0.07900
C 	C 	0.24240 0.87800 0.67810 -0.07000
C 	C 	0.20370 0.88100 0.76320 -0.04800
H 	H 	0.23720 0.96920 0.63280 0.06000
H 	H 	0.17230 0.97620 0.76900 0.04900
N 	N 	0.43360 0.65360 0.93920 -0.20000
C 	C 	0.38740 0.40060 0.10850 0.09200
H 	H 	0.37670 0.52410 0.11920 -0.03600
C 	C 	0.25760 0.37800 0.17810 -0.07300
C 	C 	0.29630 0.38100 0.26320 -0.05000
H 	H 	0.26280 0.46920 0.13280 0.03700
H 	H 	0.32770 0.47620 0.26900 0.04200
N 	N 	0.93360 0.15360 0.43920 -0.19700
C 	C 	0.88740 0.90060 0.60850 0.17100
H 	H 	0.87670 0.02410 0.61920 -0.06900
C 	C 	0.75760 0.87800 0.67810 -0.07300
C 	C 	0.79630 0.88100 0.76320 -0.04800
H 	H 	0.76280 0.96920 0.63280 0.06100
H 	H 	0.82770 0.97620 0.76900 0.06100
N 	N 	0.56640 0.84640 0.93920 -0.20300
C 	C 	0.61260 0.09940 0.10850 0.03200
H 	H 	0.62330 0.97590 0.11920 0.00800
C 	C 	0.74240 0.12200 0.17810 -0.07000
C 	C 	0.70370 0.11900 0.26320 -0.05000
H 	H 	0.73720 0.03080 0.13280 0.03000
H 	H 	0.67230 0.02380 0.26900 0.03100
N 	N 	0.06640 0.34640 0.43920 -0.23300
C 	C 	0.11260 0.59940 0.60850 0.10100
H 	H 	0.12330 0.47590 0.61920 -0.03600
C 	C 	0.24240 0.62200 0.67810 -0.07100
C 	C 	0.20370 0.61900 0.76320 -0.04900
H 	H 	0.23720 0.53080 0.63280 0.04900
H 	H 	0.17230 0.52380 0.76900 0.03800
N 	N 	0.56640 0.15360 0.06080 -0.22800
C 	C 	0.61260 0.90060 0.89150 0.17400
H 	H 	0.62330 0.02410 0.88080 -0.06500
C 	C 	0.74240 0.87800 0.82190 -0.06900
C 	C 	0.70370 0.88100 0.73680 -0.05400
H 	H 	0.73720 0.96920 0.86720 0.07400
H 	H 	0.67230 0.97620 0.73100 0.05200
N 	N 	0.06640 0.65360 0.56080 -0.23100
C 	C 	0.11260 0.40060 0.39150 0.09600
H 	H 	0.12330 0.52410 0.38080 -0.03300
C 	C 	0.24240 0.37800 0.32190 -0.06900
C 	C 	0.20370 0.38100 0.23680 -0.05600
H 	H 	0.23720 0.46920 0.36720 0.05100
H 	H 	0.17230 0.47620 0.23100 0.03200
N 	N 	0.43360 0.34640 0.06080 -0.23500
C 	C 	0.38740 0.59940 0.89150 0.11400
H 	H 	0.37670 0.47590 0.88080 -0.02400
C 	C 	0.25760 0.62200 0.82190 -0.07500
C 	C 	0.29630 0.61900 0.73680 -0.05600
H 	H 	0.26280 0.53080 0.86720 0.06100
H 	H 	0.32770 0.52380 0.73100 0.04100
N 	N 	0.93360 0.84640 0.56080 -0.20600
C 	C 	0.88740 0.09940 0.39150 0.04400
H 	H 	0.87670 0.97590 0.38080 0.01900
C 	C 	0.75760 0.12200 0.32190 -0.07400
C 	C 	0.79630 0.11900 0.23680 -0.05700
H 	H 	0.76280 0.03080 0.36720 0.04100
H 	H 	0.82770 0.02380 0.23100 0.03300
Cu	Cu	0.50000 0.50000 -0.00000 0.79300
Cu	Cu	0.00000 0.00000 0.50000 0.78200
Cu	Cu	0.50000 0.00000 -0.00000 0.77900
Cu	Cu	-0.00000 0.50000 0.50000 0.79600
N 	N 	0.64350 0.75000 0.85870 -0.17300
C 	C 	0.69740 0.75000 0.80470 0.13100
N 	N 	0.14350 0.25000 0.35870 -0.15600
C 	C 	0.19740 0.25000 0.30470 0.11400
N 	N 	0.35650 0.75000 0.85870 -0.17400
C 	C 	0.30260 0.75000 0.80470 0.13500
N 	N 	0.85650 0.25000 0.35870 -0.15500
C 	C 	0.80260 0.25000 0.30470 0.12200
N 	N 	0.35650 0.25000 0.14130 -0.15500
C 	C 	0.30260 0.25000 0.19530 0.11300
N 	N 	0.85650 0.75000 0.64130 -0.17200
C 	C 	0.80260 0.75000 0.69530 0.13000
N 	N 	0.64350 0.25000 0.14130 -0.15500
C 	C 	0.69740 0.25000 0.19530 0.11000
N 	N 	0.14350 0.75000 0.64130 -0.17400
C 	C 	0.19740 0.75000 0.69530 0.12300
