data_crystal

_cell_length_a 22.12380
_cell_length_b 7.26710
_cell_length_c 13.86750
_cell_angle_alpha 90.00000
_cell_angle_beta  90.00000
_cell_angle_gamma 90.00000

_symmetry_space_group_name_	'P 1'
_symmetry_space_group_name_H-M	'P 1'

loop_
_symmetry_equiv_pos_as_xyz
  x,y,z

loop_
_atom_site_label
_atom_site_type_symbol
_atom_site_fract_x
_atom_site_fract_y
_atom_site_fract_z
_atom_site_charge
N 	N 	0.56381 0.34460 0.56420 -0.22000
C 	C 	0.61106 0.60110 0.38730 0.09400
H 	H 	0.62180 0.47920 0.37610 -0.03200
C 	C 	0.69980 0.64540 0.21850 -0.06400
C 	C 	0.74470 0.65030 0.33580 -0.07000
H 	H 	0.66600 0.57050 0.19970 0.03200
H 	H 	0.74190 0.58950 0.39710 0.05000
N 	N 	0.06381 0.84460 0.06420 -0.24500
C 	C 	0.11106 0.10110 0.88730 0.02300
H 	H 	0.12180 0.97920 0.87610 0.04100
C 	C 	0.19980 0.14540 0.71850 -0.06200
C 	C 	0.24470 0.15030 0.83580 -0.07100
H 	H 	0.16600 0.07050 0.69970 0.02900
H 	H 	0.24190 0.08950 0.89710 0.05700
N 	N 	0.43619 0.15540 0.56420 -0.21200
C 	C 	0.38894 0.89890 0.38730 0.17700
H 	H 	0.37820 0.02080 0.37610 -0.08900
C 	C 	0.30020 0.85460 0.21850 -0.06300
C 	C 	0.25530 0.84970 0.33580 -0.06500
H 	H 	0.33400 0.92950 0.19970 0.04500
H 	H 	0.25810 0.91050 0.39710 0.05700
N 	N 	0.93619 0.65540 0.06420 -0.21300
C 	C 	0.88894 0.39890 0.88730 0.10900
H 	H 	0.87820 0.52080 0.87610 -0.00600
C 	C 	0.80020 0.35460 0.71850 -0.06100
C 	C 	0.75530 0.34970 0.83580 -0.06500
H 	H 	0.83400 0.42950 0.69970 0.05300
H 	H 	0.75810 0.41050 0.89710 0.06700
N 	N 	0.43619 0.84460 0.43580 -0.22500
C 	C 	0.38894 0.10110 0.61270 0.01500
H 	H 	0.37820 0.97920 0.62390 0.03500
C 	C 	0.30020 0.14540 0.78150 -0.05400
C 	C 	0.25530 0.15030 0.66420 -0.06600
H 	H 	0.33400 0.07050 0.80030 0.04100
H 	H 	0.25810 0.08950 0.60290 0.03500
N 	N 	0.93619 0.34460 0.93580 -0.17900
C 	C 	0.88894 0.60110 0.11270 0.08900
H 	H 	0.87820 0.47920 0.12390 -0.03300
C 	C 	0.80020 0.64540 0.28150 -0.05800
C 	C 	0.75530 0.65030 0.16420 -0.06700
H 	H 	0.83400 0.57050 0.30030 0.04600
H 	H 	0.75810 0.58950 0.10290 0.02900
N 	N 	0.56381 0.65540 0.43580 -0.22100
C 	C 	0.61106 0.39890 0.61270 0.09600
H 	H 	0.62180 0.52080 0.62390 -0.02100
C 	C 	0.69980 0.35460 0.78150 -0.05000
C 	C 	0.74470 0.34970 0.66420 -0.05500
H 	H 	0.66600 0.42950 0.80030 0.05200
H 	H 	0.74190 0.41050 0.60290 0.04700
N 	N 	0.06381 0.15540 0.93580 -0.19600
C 	C 	0.11106 0.89890 0.11270 0.16600
H 	H 	0.12180 0.02080 0.12390 -0.10000
C 	C 	0.19980 0.85460 0.28150 -0.05400
C 	C 	0.24470 0.84970 0.16420 -0.05700
H 	H 	0.16600 0.92950 0.30030 0.04600
H 	H 	0.24190 0.91050 0.10290 0.03800
N 	N 	0.43619 0.65540 0.43580 -0.22100
C 	C 	0.38894 0.39890 0.61270 0.09600
H 	H 	0.37820 0.52080 0.62390 -0.02100
C 	C 	0.30020 0.35460 0.78150 -0.05200
C 	C 	0.25530 0.34970 0.66420 -0.05800
H 	H 	0.33400 0.42950 0.80030 0.05300
H 	H 	0.25810 0.41050 0.60290 0.04400
N 	N 	0.93619 0.15540 0.93580 -0.17100
C 	C 	0.88894 0.89890 0.11270 0.17200
H 	H 	0.87820 0.02080 0.12390 -0.09000
C 	C 	0.80020 0.85460 0.28150 -0.05500
C 	C 	0.75530 0.84970 0.16420 -0.05900
H 	H 	0.83400 0.92950 0.30030 0.05800
H 	H 	0.75810 0.91050 0.10290 0.03900
N 	N 	0.56381 0.84460 0.43580 -0.22500
C 	C 	0.61106 0.10110 0.61270 0.01600
H 	H 	0.62180 0.97920 0.62390 0.03500
C 	C 	0.69980 0.14540 0.78150 -0.05300
C 	C 	0.74470 0.15030 0.66420 -0.06300
H 	H 	0.66600 0.07050 0.80030 0.04000
H 	H 	0.74190 0.08950 0.60290 0.03800
N 	N 	0.06381 0.34460 0.93580 -0.20400
C 	C 	0.11106 0.60110 0.11270 0.08100
H 	H 	0.12180 0.47920 0.12390 -0.04200
C 	C 	0.19980 0.64540 0.28150 -0.05600
C 	C 	0.24470 0.65030 0.16420 -0.06500
H 	H 	0.16600 0.57050 0.30030 0.03300
H 	H 	0.24190 0.58950 0.10290 0.02800
N 	N 	0.56381 0.15540 0.56420 -0.21200
C 	C 	0.61106 0.89890 0.38730 0.17600
H 	H 	0.62180 0.02080 0.37610 -0.08800
C 	C 	0.69980 0.85460 0.21850 -0.06200
C 	C 	0.74470 0.84970 0.33580 -0.06200
H 	H 	0.66600 0.92950 0.19970 0.04500
H 	H 	0.74190 0.91050 0.39710 0.05900
N 	N 	0.06381 0.65540 0.06420 -0.24100
C 	C 	0.11106 0.39890 0.88730 0.10200
H 	H 	0.12180 0.52080 0.87610 -0.01400
C 	C 	0.19980 0.35460 0.71850 -0.05900
C 	C 	0.24470 0.34970 0.83580 -0.06300
H 	H 	0.16600 0.42950 0.69970 0.04100
H 	H 	0.24190 0.41050 0.89710 0.06600
N 	N 	0.43619 0.34460 0.56420 -0.22000
C 	C 	0.38894 0.60110 0.38730 0.09400
H 	H 	0.37820 0.47920 0.37610 -0.03200
C 	C 	0.30020 0.64540 0.21850 -0.06600
C 	C 	0.25530 0.65030 0.33580 -0.07400
H 	H 	0.33400 0.57050 0.19970 0.03200
H 	H 	0.25810 0.58950 0.39710 0.04800
N 	N 	0.93619 0.84460 0.06420 -0.21700
C 	C 	0.88894 0.10110 0.88730 0.03200
H 	H 	0.87820 0.97920 0.87610 0.04800
C 	C 	0.80020 0.14540 0.71850 -0.06300
C 	C 	0.75530 0.15030 0.83580 -0.07200
H 	H 	0.83400 0.07050 0.69970 0.04100
H 	H 	0.75810 0.08950 0.89710 0.05800
Cu	Cu	0.50000 0.50000 0.50000 0.82800
Cu	Cu	-0.00000 0.00000 -0.00000 0.74500
Cu	Cu	0.50000 0.00000 0.50000 0.80800
Cu	Cu	0.00000 0.50000 -0.00000 0.76500
N 	N 	0.64210 0.75000 0.35570 -0.17500
C 	C 	0.69830 0.75000 0.30320 0.12800
N 	N 	0.14210 0.25000 0.85570 -0.14800
C 	C 	0.19830 0.25000 0.80320 0.11900
N 	N 	0.35790 0.75000 0.35570 -0.17600
C 	C 	0.30170 0.75000 0.30320 0.13100
N 	N 	0.85790 0.25000 0.85570 -0.14800
C 	C 	0.80170 0.25000 0.80320 0.12500
N 	N 	0.35790 0.25000 0.64430 -0.14700
C 	C 	0.30170 0.25000 0.69680 0.10900
N 	N 	0.85790 0.75000 0.14430 -0.17300
C 	C 	0.80170 0.75000 0.19680 0.12000
N 	N 	0.64210 0.25000 0.64430 -0.14600
C 	C 	0.69830 0.25000 0.69680 0.10600
N 	N 	0.14210 0.75000 0.14430 -0.17500
C 	C 	0.19830 0.75000 0.19680 0.11400
