data_crystal

_cell_length_a 21.24800
_cell_length_b 7.14380
_cell_length_c 15.33000
_cell_angle_alpha 90.00000
_cell_angle_beta  90.00000
_cell_angle_gamma 90.00000

_symmetry_space_group_name_	'P 1'
_symmetry_space_group_name_H-M	'P 1'

loop_
_symmetry_equiv_pos_as_xyz
  x,y,z

loop_
_atom_site_label
_atom_site_type_symbol
_atom_site_fract_x
_atom_site_fract_y
_atom_site_fract_z
_atom_site_charge
N 	N 	0.43330 0.15300 0.43880 -0.21700
C 	C 	0.38770 0.90120 0.60850 0.17000
H 	H 	0.37700 0.02570 0.61800 -0.07600
C 	C 	0.25900 0.61400 0.68790 -0.06700
C 	C 	0.29660 0.61000 0.76140 -0.04800
H 	H 	0.26430 0.51980 0.64370 0.04400
H 	H 	0.32810 0.51510 0.76820 0.04200
N 	N 	0.93330 0.65300 0.93880 -0.18400
C 	C 	0.88770 0.40120 0.10850 0.09900
H 	H 	0.87700 0.52570 0.11800 -0.03100
C 	C 	0.75900 0.11400 0.18790 -0.06400
C 	C 	0.79660 0.11000 0.26140 -0.05100
H 	H 	0.76430 0.01980 0.14370 0.02600
H 	H 	0.82810 0.01510 0.26820 0.03600
N 	N 	0.56670 0.34700 0.43880 -0.22500
C 	C 	0.61230 0.59880 0.60850 0.10700
H 	H 	0.62300 0.47430 0.61800 -0.03300
C 	C 	0.74100 0.88600 0.68790 -0.06400
C 	C 	0.70340 0.89000 0.76140 -0.04500
H 	H 	0.73570 0.98020 0.64370 0.05900
H 	H 	0.67190 0.98490 0.76820 0.05300
N 	N 	0.06670 0.84700 0.93880 -0.21300
C 	C 	0.11230 0.09880 0.10850 0.02700
H 	H 	0.12300 0.97430 0.11800 0.00500
C 	C 	0.24100 0.38600 0.18790 -0.06000
C 	C 	0.20340 0.39000 0.26140 -0.05000
H 	H 	0.23570 0.48020 0.14370 0.03600
H 	H 	0.17190 0.48490 0.26820 0.03500
N 	N 	0.56670 0.65300 0.56120 -0.22300
C 	C 	0.61230 0.40120 0.39150 0.10200
H 	H 	0.62300 0.52570 0.38200 -0.03000
C 	C 	0.74100 0.11400 0.31210 -0.06000
C 	C 	0.70340 0.11000 0.23860 -0.05800
H 	H 	0.73570 0.01980 0.35630 0.03800
H 	H 	0.67190 0.01510 0.23180 0.02600
N 	N 	0.06670 0.15300 0.06120 -0.23700
C 	C 	0.11230 0.90120 0.89150 0.17100
H 	H 	0.12300 0.02570 0.88200 -0.07000
C 	C 	0.24100 0.61400 0.81210 -0.06400
C 	C 	0.20340 0.61000 0.73860 -0.05500
H 	H 	0.23570 0.51980 0.85630 0.05600
H 	H 	0.17190 0.51510 0.73180 0.03400
N 	N 	0.43330 0.84700 0.56120 -0.22700
C 	C 	0.38770 0.09880 0.39150 0.03800
H 	H 	0.37700 0.97430 0.38200 0.01400
C 	C 	0.25900 0.38600 0.31210 -0.06400
C 	C 	0.29660 0.39000 0.23860 -0.05700
H 	H 	0.26430 0.48020 0.35630 0.04600
H 	H 	0.32810 0.48490 0.23180 0.03700
N 	N 	0.93330 0.34700 0.06120 -0.21600
C 	C 	0.88770 0.59880 0.89150 0.11700
H 	H 	0.87700 0.47430 0.88200 -0.01800
C 	C 	0.75900 0.88600 0.81210 -0.06700
C 	C 	0.79660 0.89000 0.73860 -0.05200
H 	H 	0.76430 0.98020 0.85630 0.06900
H 	H 	0.82810 0.98490 0.73180 0.05600
N 	N 	0.56670 0.84700 0.56120 -0.22700
C 	C 	0.61230 0.09880 0.39150 0.03900
H 	H 	0.62300 0.97430 0.38200 0.01400
C 	C 	0.74100 0.38600 0.31210 -0.06000
C 	C 	0.70340 0.39000 0.23860 -0.05600
H 	H 	0.73570 0.48020 0.35630 0.05000
H 	H 	0.67190 0.48490 0.23180 0.03700
N 	N 	0.06670 0.34700 0.06120 -0.24400
C 	C 	0.11230 0.59880 0.89150 0.10900
H 	H 	0.12300 0.47430 0.88200 -0.02700
C 	C 	0.24100 0.88600 0.81210 -0.06400
C 	C 	0.20340 0.89000 0.73860 -0.05300
H 	H 	0.23570 0.98020 0.85630 0.06800
H 	H 	0.17190 0.98490 0.73180 0.04500
N 	N 	0.43330 0.65300 0.56120 -0.22300
C 	C 	0.38770 0.40120 0.39150 0.10200
H 	H 	0.37700 0.52570 0.38200 -0.03100
C 	C 	0.25900 0.11400 0.31210 -0.06300
C 	C 	0.29660 0.11000 0.23860 -0.05900
H 	H 	0.26430 0.01980 0.35630 0.03400
H 	H 	0.32810 0.01510 0.23180 0.02600
N 	N 	0.93330 0.15300 0.06120 -0.20900
C 	C 	0.88770 0.90120 0.89150 0.17700
H 	H 	0.87700 0.02570 0.88200 -0.06100
C 	C 	0.75900 0.61400 0.81210 -0.06700
C 	C 	0.79660 0.61000 0.73860 -0.05400
H 	H 	0.76430 0.51980 0.85630 0.05700
H 	H 	0.82810 0.51510 0.73180 0.04500
N 	N 	0.43330 0.34700 0.43880 -0.22500
C 	C 	0.38770 0.59880 0.60850 0.10600
H 	H 	0.37700 0.47430 0.61800 -0.03400
C 	C 	0.25900 0.88600 0.68790 -0.06700
C 	C 	0.29660 0.89000 0.76140 -0.04600
H 	H 	0.26430 0.98020 0.64370 0.05600
H 	H 	0.32810 0.98490 0.76820 0.05300
N 	N 	0.93330 0.84700 0.93880 -0.18800
C 	C 	0.88770 0.09880 0.10850 0.03800
H 	H 	0.87700 0.97430 0.11800 0.01300
C 	C 	0.75900 0.38600 0.18790 -0.06400
C 	C 	0.79660 0.39000 0.26140 -0.04900
H 	H 	0.76430 0.48020 0.14370 0.03800
H 	H 	0.82810 0.48490 0.26820 0.04700
N 	N 	0.56670 0.15300 0.43880 -0.21800
C 	C 	0.61230 0.90120 0.60850 0.16900
H 	H 	0.62300 0.02570 0.61800 -0.07600
C 	C 	0.74100 0.61400 0.68790 -0.06300
C 	C 	0.70340 0.61000 0.76140 -0.04700
H 	H 	0.73570 0.51980 0.64370 0.04700
H 	H 	0.67190 0.51510 0.76820 0.04200
N 	N 	0.06670 0.65300 0.93880 -0.20900
C 	C 	0.11230 0.40120 0.10850 0.09000
H 	H 	0.12300 0.52570 0.11800 -0.04000
C 	C 	0.24100 0.11400 0.18790 -0.06000
C 	C 	0.20340 0.11000 0.26140 -0.05200
H 	H 	0.23570 0.01980 0.14370 0.02400
H 	H 	0.17190 0.01510 0.26820 0.02400
Cu	Cu	0.50000 0.00000 0.50000 0.81100
Cu	Cu	-0.00000 0.50000 -0.00000 0.76600
Cu	Cu	0.50000 0.50000 0.50000 0.82600
Cu	Cu	-0.00000 0.00000 -0.00000 0.75200
N 	N 	0.35650 0.75000 0.64380 -0.17200
C 	C 	0.30270 0.75000 0.69660 0.12000
N 	N 	0.85650 0.25000 0.14380 -0.15300
C 	C 	0.80270 0.25000 0.19660 0.10700
N 	N 	0.64350 0.75000 0.64380 -0.17200
C 	C 	0.69730 0.75000 0.69660 0.11800
N 	N 	0.14350 0.25000 0.14380 -0.15500
C 	C 	0.19730 0.25000 0.19660 0.10000
N 	N 	0.64350 0.25000 0.35620 -0.15400
C 	C 	0.69730 0.25000 0.30340 0.10900
N 	N 	0.14350 0.75000 0.85620 -0.17300
C 	C 	0.19730 0.75000 0.80340 0.12400
N 	N 	0.35650 0.25000 0.35620 -0.15500
C 	C 	0.30270 0.25000 0.30340 0.11100
N 	N 	0.85650 0.75000 0.85620 -0.17100
C 	C 	0.80270 0.75000 0.80340 0.13000
