data_crystal

_cell_length_a 15.11650
_cell_length_b 15.11650
_cell_length_c 12.03550
_cell_angle_alpha 90.00000
_cell_angle_beta  90.00000
_cell_angle_gamma 90.00000

_symmetry_space_group_name_	'P 1'
_symmetry_space_group_name_H-M	'P 1'

loop_
_symmetry_equiv_pos_as_xyz
  x,y,z

loop_
_atom_site_label
_atom_site_type_symbol
_atom_site_fract_x
_atom_site_fract_y
_atom_site_fract_z
_atom_site_charge
O 	O 	0.60190 0.28790 0.75710 -0.51100
O 	O 	0.61910 0.37930 0.60870 -0.48100
C 	C 	0.59340 0.36090 0.70780 0.39800
C 	C 	0.54760 0.43630 0.76050 -0.08400
C 	C 	0.54760 0.43330 0.87960 -0.05300
H 	H 	0.57318 0.38162 0.90735 0.07400
O 	O 	0.10190 0.78790 0.25710 -0.52000
O 	O 	0.11910 0.87930 0.10870 -0.49400
C 	C 	0.09340 0.86090 0.20780 0.40200
C 	C 	0.04760 0.93630 0.26050 -0.08900
C 	C 	0.04760 0.93330 0.37960 0.00900
H 	H 	0.07318 0.88162 0.40735 0.03800
O 	O 	0.89810 0.21210 0.25710 -0.52000
O 	O 	0.88090 0.12070 0.10870 -0.49800
C 	C 	0.90660 0.13910 0.20780 0.40300
C 	C 	0.95240 0.06370 0.26050 -0.09900
C 	C 	0.95240 0.06670 0.37960 -0.00200
H 	H 	0.92682 0.11838 0.40735 0.04100
O 	O 	0.39810 0.71210 0.75710 -0.50800
O 	O 	0.38090 0.62070 0.60870 -0.48000
C 	C 	0.40660 0.63910 0.70780 0.39900
C 	C 	0.45240 0.56370 0.76050 -0.08300
C 	C 	0.45240 0.56670 0.87960 -0.05200
H 	H 	0.42682 0.61838 0.90735 0.07500
O 	O 	0.71210 0.10190 0.00710 -0.61300
O 	O 	0.62070 0.11910 0.85870 -0.52100
C 	C 	0.63910 0.09340 0.95780 0.61100
C 	C 	0.56370 0.04760 0.01050 -0.39000
C 	C 	0.56670 0.04760 0.12960 0.14400
H 	H 	0.61838 0.07318 0.15735 -0.01500
O 	O 	0.21210 0.60190 0.50710 -0.51900
O 	O 	0.12070 0.61910 0.35870 -0.49000
C 	C 	0.13910 0.59340 0.45780 0.41000
C 	C 	0.06370 0.54760 0.51050 -0.12000
C 	C 	0.06670 0.54760 0.62960 0.01300
H 	H 	0.11838 0.57318 0.65735 0.03500
O 	O 	0.78790 0.39810 0.50710 -0.51700
O 	O 	0.87930 0.38090 0.35870 -0.48600
C 	C 	0.86090 0.40660 0.45780 0.40900
C 	C 	0.93630 0.45240 0.51050 -0.11100
C 	C 	0.93330 0.45240 0.62960 0.02300
H 	H 	0.88162 0.42682 0.65735 0.03400
O 	O 	0.28790 0.89810 0.00710 -0.61100
O 	O 	0.37930 0.88090 0.85870 -0.51500
C 	C 	0.36090 0.90660 0.95780 0.61300
C 	C 	0.43630 0.95240 0.01050 -0.37400
C 	C 	0.43330 0.95240 0.12960 0.16600
H 	H 	0.38162 0.92682 0.15735 -0.01800
O 	O 	0.89810 0.28790 0.99290 -0.41100
O 	O 	0.88090 0.37930 0.14130 -0.44100
C 	C 	0.90660 0.36090 0.04220 0.19000
C 	C 	0.95240 0.43630 0.98950 0.19800
C 	C 	0.95240 0.43330 0.87040 -0.16900
H 	H 	0.92682 0.38162 0.84265 0.10300
O 	O 	0.39810 0.78790 0.49290 -0.51300
O 	O 	0.38090 0.87930 0.64130 -0.47000
C 	C 	0.40660 0.86090 0.54220 0.39400
C 	C 	0.45240 0.93630 0.48950 -0.06600
C 	C 	0.45240 0.93330 0.37040 -0.02500
H 	H 	0.42682 0.88162 0.34265 0.05000
O 	O 	0.60190 0.21210 0.49290 -0.51600
O 	O 	0.61910 0.12070 0.64130 -0.47800
C 	C 	0.59340 0.13910 0.54220 0.39600
C 	C 	0.54760 0.06370 0.48950 -0.08500
C 	C 	0.54760 0.06670 0.37040 -0.04500
H 	H 	0.57318 0.11838 0.34265 0.05400
O 	O 	0.10190 0.71210 0.99290 -0.41200
O 	O 	0.11910 0.62070 0.14130 -0.44400
C 	C 	0.09340 0.63910 0.04220 0.19200
C 	C 	0.04760 0.56370 0.98950 0.18900
C 	C 	0.04760 0.56670 0.87040 -0.17900
H 	H 	0.07318 0.61838 0.84265 0.10500
O 	O 	0.78790 0.10190 0.74290 -0.51100
O 	O 	0.87930 0.11910 0.89130 -0.45600
C 	C 	0.86090 0.09340 0.79220 0.39400
C 	C 	0.93630 0.04760 0.73950 -0.07800
C 	C 	0.93330 0.04760 0.62040 -0.01200
H 	H 	0.88162 0.07318 0.59265 0.04400
O 	O 	0.28790 0.60190 0.24290 -0.52600
O 	O 	0.37930 0.61910 0.39130 -0.48500
C 	C 	0.36090 0.59340 0.29220 0.41400
C 	C 	0.43630 0.54760 0.23950 -0.13100
C 	C 	0.43330 0.54760 0.12040 0.02100
H 	H 	0.38162 0.57318 0.09265 0.01600
O 	O 	0.71210 0.39810 0.24290 -0.52500
O 	O 	0.62070 0.38090 0.39130 -0.48600
C 	C 	0.63910 0.40660 0.29220 0.41400
C 	C 	0.56370 0.45240 0.23950 -0.13100
C 	C 	0.56670 0.45240 0.12040 0.02100
H 	H 	0.61838 0.42682 0.09265 0.01700
O 	O 	0.21210 0.89810 0.74290 -0.50600
O 	O 	0.12070 0.88090 0.89130 -0.45300
C 	C 	0.13910 0.90660 0.79220 0.39300
C 	C 	0.06370 0.95240 0.73950 -0.06700
C 	C 	0.06670 0.95240 0.62040 -0.00100
H 	H 	0.11838 0.92682 0.59265 0.04300
V 	V 	0.69102 0.30898 0.50000 1.81000
V 	V 	0.19102 0.80898 -0.00000 1.78600
V 	V 	0.80898 0.19102 -0.00000 1.78600
V 	V 	0.30898 0.69102 0.50000 1.81000
V 	V 	0.69102 0.19102 0.75000 1.81100
V 	V 	0.19102 0.69102 0.25000 1.80700
V 	V 	0.80898 0.30898 0.25000 1.80700
V 	V 	0.30898 0.80898 0.75000 1.81200
O 	O 	0.74440 0.25000 0.62500 -0.81300
H 	H 	0.80600 0.25000 0.62500 0.23100
O 	O 	0.24440 0.75000 0.12500 -0.82000
H 	H 	0.30600 0.75000 0.12500 0.22600
O 	O 	0.75560 0.25000 0.12500 -0.82000
H 	H 	0.69400 0.25000 0.12500 0.22500
O 	O 	0.25560 0.75000 0.62500 -0.81300
H 	H 	0.19400 0.75000 0.62500 0.23100
O 	O 	0.75000 0.24440 0.87500 -0.79700
H 	H 	0.75000 0.30600 0.87500 0.23600
O 	O 	0.25000 0.74440 0.37500 -0.81300
H 	H 	0.25000 0.80600 0.37500 0.23200
O 	O 	0.75000 0.25560 0.37500 -0.81300
H 	H 	0.75000 0.19400 0.37500 0.23100
O 	O 	0.25000 0.75560 0.87500 -0.79700
H 	H 	0.25000 0.69400 0.87500 0.23600
C 	C 	0.50000 0.50000 0.70370 0.04200
C 	C 	0.50000 0.50000 0.93620 0.09700
H 	H 	0.50000 0.50000 0.62600 0.05800
C 	C 	-0.00000 -0.00000 0.20370 0.01900
C 	C 	-0.00000 -0.00000 0.43620 -0.02700
H 	H 	-0.00000 -0.00000 0.12600 0.04300
C 	C 	0.50000 0.00000 0.95370 0.39500
C 	C 	0.50000 -0.00000 0.18620 -0.13300
H 	H 	0.50000 -0.00000 0.87600 -0.06000
C 	C 	-0.00000 0.50000 0.45370 0.06200
C 	C 	-0.00000 0.50000 0.68620 -0.04900
H 	H 	-0.00000 0.50000 0.37600 0.04200
C 	C 	-0.00000 0.50000 0.04630 -0.32300
C 	C 	-0.00000 0.50000 0.81380 0.12000
H 	H 	-0.00000 0.50000 0.12400 0.16800
C 	C 	0.50000 0.00000 0.54630 0.01100
C 	C 	0.50000 0.00000 0.31380 0.03300
H 	H 	0.50000 0.00000 0.62400 0.06500
C 	C 	-0.00000 -0.00000 0.79630 0.00100
C 	C 	0.00000 0.00000 0.56380 -0.01700
H 	H 	-0.00000 -0.00000 0.87400 0.07200
C 	C 	0.50000 0.50000 0.29630 0.08200
C 	C 	0.50000 0.50000 0.06380 -0.08400
H 	H 	0.50000 0.50000 0.37400 0.04300
