data_crystal

_cell_length_a 15.09550
_cell_length_b 15.09550
_cell_length_c 12.01750
_cell_angle_alpha 90.00000
_cell_angle_beta  90.00000
_cell_angle_gamma 90.00000

_symmetry_space_group_name_	'P 1'
_symmetry_space_group_name_H-M	'P 1'

loop_
_symmetry_equiv_pos_as_xyz
  x,y,z

loop_
_atom_site_label
_atom_site_type_symbol
_atom_site_fract_x
_atom_site_fract_y
_atom_site_fract_z
_atom_site_charge
O 	O 	0.60101 0.29063 0.75750 -0.51400
O 	O 	0.61777 0.38008 0.60908 -0.50900
C 	C 	0.59220 0.36020 0.70030 0.44100
C 	C 	0.54340 0.43320 0.76010 -0.08300
C 	C 	0.54760 0.43320 0.87940 -0.05100
H 	H 	0.57318 0.38162 0.90735 0.07500
O 	O 	0.10101 0.79063 0.25750 -0.52600
O 	O 	0.11777 0.88008 0.10908 -0.52500
C 	C 	0.09220 0.86020 0.20030 0.44600
C 	C 	0.04340 0.93320 0.26010 -0.09200
C 	C 	0.04760 0.93320 0.37940 0.01300
H 	H 	0.07318 0.88162 0.40735 0.03800
O 	O 	0.89899 0.20937 0.25750 -0.52600
O 	O 	0.88223 0.11992 0.10908 -0.52900
C 	C 	0.90780 0.13980 0.20030 0.44700
C 	C 	0.95660 0.06680 0.26010 -0.10100
C 	C 	0.95240 0.06680 0.37940 0.00100
H 	H 	0.92682 0.11838 0.40735 0.04100
O 	O 	0.39899 0.70937 0.75750 -0.51300
O 	O 	0.38223 0.61992 0.60908 -0.51000
C 	C 	0.40780 0.63980 0.70030 0.44100
C 	C 	0.45660 0.56680 0.76010 -0.08300
C 	C 	0.45240 0.56680 0.87940 -0.05100
H 	H 	0.42682 0.61838 0.90735 0.07600
O 	O 	0.70937 0.10101 0.00750 -0.61800
O 	O 	0.61992 0.11777 0.85908 -0.56200
C 	C 	0.63980 0.09220 0.95030 0.65700
C 	C 	0.56680 0.04340 0.01010 -0.38800
C 	C 	0.56680 0.04760 0.12940 0.14700
H 	H 	0.61838 0.07318 0.15735 -0.01300
O 	O 	0.20937 0.60101 0.50750 -0.52500
O 	O 	0.11992 0.61777 0.35908 -0.52100
C 	C 	0.13980 0.59220 0.45030 0.45400
C 	C 	0.06680 0.54340 0.51010 -0.12200
C 	C 	0.06680 0.54760 0.62940 0.01600
H 	H 	0.11838 0.57318 0.65735 0.03600
O 	O 	0.79063 0.39899 0.50750 -0.52300
O 	O 	0.88008 0.38223 0.35908 -0.51800
C 	C 	0.86020 0.40780 0.45030 0.45300
C 	C 	0.93320 0.45660 0.51010 -0.11300
C 	C 	0.93320 0.45240 0.62940 0.02600
H 	H 	0.88162 0.42682 0.65735 0.03400
O 	O 	0.29063 0.89899 0.00750 -0.61600
O 	O 	0.38008 0.88223 0.85908 -0.55600
C 	C 	0.36020 0.90780 0.95030 0.65900
C 	C 	0.43320 0.95660 0.01010 -0.37300
C 	C 	0.43320 0.95240 0.12940 0.16800
H 	H 	0.38162 0.92682 0.15735 -0.01600
O 	O 	0.89899 0.29063 0.99250 -0.41800
O 	O 	0.88223 0.38008 0.14092 -0.46000
C 	C 	0.90780 0.36020 0.04970 0.23000
C 	C 	0.95660 0.43320 0.98990 0.19300
C 	C 	0.95240 0.43320 0.87060 -0.16600
H 	H 	0.92682 0.38162 0.84265 0.10100
O 	O 	0.39899 0.79063 0.49250 -0.51900
O 	O 	0.38223 0.88008 0.64092 -0.49900
C 	C 	0.40780 0.86020 0.54970 0.43700
C 	C 	0.45660 0.93320 0.48990 -0.06800
C 	C 	0.45240 0.93320 0.37060 -0.02200
H 	H 	0.42682 0.88162 0.34265 0.05000
O 	O 	0.60101 0.20937 0.49250 -0.52200
O 	O 	0.61777 0.11992 0.64092 -0.50700
C 	C 	0.59220 0.13980 0.54970 0.43900
C 	C 	0.54340 0.06680 0.48990 -0.08600
C 	C 	0.54760 0.06680 0.37060 -0.04300
H 	H 	0.57318 0.11838 0.34265 0.05400
O 	O 	0.10101 0.70937 0.99250 -0.41900
O 	O 	0.11777 0.61992 0.14092 -0.46400
C 	C 	0.09220 0.63980 0.04970 0.23200
C 	C 	0.04340 0.56680 0.98990 0.18400
C 	C 	0.04760 0.56680 0.87060 -0.17500
H 	H 	0.07318 0.61838 0.84265 0.10300
O 	O 	0.79063 0.10101 0.74250 -0.51700
O 	O 	0.88008 0.11777 0.89092 -0.48500
C 	C 	0.86020 0.09220 0.79970 0.43600
C 	C 	0.93320 0.04340 0.73990 -0.07900
C 	C 	0.93320 0.04760 0.62060 -0.01000
H 	H 	0.88162 0.07318 0.59265 0.04400
O 	O 	0.29063 0.60101 0.24250 -0.53200
O 	O 	0.38008 0.61777 0.39092 -0.51700
C 	C 	0.36020 0.59220 0.29970 0.45700
C 	C 	0.43320 0.54340 0.23990 -0.13400
C 	C 	0.43320 0.54760 0.12060 0.02600
H 	H 	0.38162 0.57318 0.09265 0.01500
O 	O 	0.70937 0.39899 0.24250 -0.53100
O 	O 	0.61992 0.38223 0.39092 -0.51700
C 	C 	0.63980 0.40780 0.29970 0.45800
C 	C 	0.56680 0.45660 0.23990 -0.13300
C 	C 	0.56680 0.45240 0.12060 0.02500
H 	H 	0.61838 0.42682 0.09265 0.01600
O 	O 	0.20937 0.89899 0.74250 -0.51200
O 	O 	0.11992 0.88223 0.89092 -0.48100
C 	C 	0.13980 0.90780 0.79970 0.43500
C 	C 	0.06680 0.95660 0.73990 -0.06800
C 	C 	0.06680 0.95240 0.62060 0.00100
H 	H 	0.11838 0.92682 0.59265 0.04400
V 	V 	0.69216 0.30784 0.50000 1.80500
V 	V 	0.19216 0.80784 -0.00000 1.78100
V 	V 	0.80784 0.19216 -0.00000 1.78100
V 	V 	0.30784 0.69216 0.50000 1.80500
V 	V 	0.69216 0.19216 0.75000 1.80700
V 	V 	0.19216 0.69216 0.25000 1.80200
V 	V 	0.80784 0.30784 0.25000 1.80200
V 	V 	0.30784 0.80784 0.75000 1.80700
O 	O 	0.74590 0.25000 0.62500 -0.84700
H 	H 	0.80600 0.25000 0.62500 0.25500
O 	O 	0.24590 0.75000 0.12500 -0.85500
H 	H 	0.30600 0.75000 0.12500 0.25000
O 	O 	0.75410 0.25000 0.12500 -0.85500
H 	H 	0.69400 0.25000 0.12500 0.24900
O 	O 	0.25410 0.75000 0.62500 -0.84700
H 	H 	0.19400 0.75000 0.62500 0.25500
O 	O 	0.75000 0.24590 0.87500 -0.83100
H 	H 	0.75000 0.30600 0.87500 0.26000
O 	O 	0.25000 0.74590 0.37500 -0.84800
H 	H 	0.25000 0.80600 0.37500 0.25600
O 	O 	0.75000 0.25410 0.37500 -0.84800
H 	H 	0.75000 0.19400 0.37500 0.25500
O 	O 	0.25000 0.75410 0.87500 -0.83100
H 	H 	0.25000 0.69400 0.87500 0.25900
C 	C 	0.50000 0.50000 0.70330 0.04000
C 	C 	0.50000 0.50000 0.93620 0.09900
H 	H 	0.50000 0.50000 0.62600 0.05900
C 	C 	-0.00000 0.00000 0.20330 0.02000
C 	C 	-0.00000 -0.00000 0.43620 -0.02900
H 	H 	0.00000 0.00000 0.12600 0.04300
C 	C 	0.50000 0.00000 0.95330 0.39700
C 	C 	0.50000 0.00000 0.18620 -0.13500
H 	H 	0.50000 0.00000 0.87600 -0.06100
C 	C 	0.00000 0.50000 0.45330 0.06100
C 	C 	0.00000 0.50000 0.68620 -0.05000
H 	H 	0.00000 0.50000 0.37600 0.04200
C 	C 	0.00000 0.50000 0.04670 -0.32700
C 	C 	-0.00000 0.50000 0.81380 0.11900
H 	H 	0.00000 0.50000 0.12400 0.17000
C 	C 	0.50000 0.00000 0.54670 0.01000
C 	C 	0.50000 0.00000 0.31380 0.03100
H 	H 	0.50000 0.00000 0.62400 0.06700
C 	C 	0.00000 0.00000 0.79670 -0.00100
C 	C 	0.00000 0.00000 0.56380 -0.01800
H 	H 	0.00000 0.00000 0.87400 0.07400
C 	C 	0.50000 0.50000 0.29670 0.08100
C 	C 	0.50000 0.50000 0.06380 -0.09000
H 	H 	0.50000 0.50000 0.37400 0.04300
