data_crystal

_cell_length_a 15.11330
_cell_length_b 15.11330
_cell_length_c 12.03270
_cell_angle_alpha 90.00000
_cell_angle_beta  90.00000
_cell_angle_gamma 90.00000

_symmetry_space_group_name_	'P 1'
_symmetry_space_group_name_H-M	'P 1'

loop_
_symmetry_equiv_pos_as_xyz
  x,y,z

loop_
_atom_site_label
_atom_site_type_symbol
_atom_site_fract_x
_atom_site_fract_y
_atom_site_fract_z
_atom_site_charge
O 	O 	0.60088 0.28965 0.75599 -0.51600
O 	O 	0.61803 0.37995 0.60896 -0.50300
C 	C 	0.59123 0.36045 0.70242 0.43200
C 	C 	0.54327 0.43316 0.76017 -0.09200
C 	C 	0.54678 0.43276 0.87918 -0.04500
H 	H 	0.57318 0.38162 0.90735 0.07200
O 	O 	0.10088 0.78965 0.25599 -0.52500
O 	O 	0.11803 0.87995 0.10896 -0.51600
C 	C 	0.09123 0.86045 0.20242 0.43700
C 	C 	0.04327 0.93316 0.26017 -0.10000
C 	C 	0.04678 0.93276 0.37918 0.01800
H 	H 	0.07318 0.88162 0.40735 0.03600
O 	O 	0.89912 0.21035 0.25599 -0.52500
O 	O 	0.88197 0.12005 0.10896 -0.52000
C 	C 	0.90877 0.13955 0.20242 0.43800
C 	C 	0.95673 0.06684 0.26017 -0.10900
C 	C 	0.95322 0.06724 0.37918 0.00600
H 	H 	0.92682 0.11838 0.40735 0.03800
O 	O 	0.39912 0.71035 0.75599 -0.51300
O 	O 	0.38197 0.62005 0.60896 -0.50200
C 	C 	0.40877 0.63955 0.70242 0.43300
C 	C 	0.45673 0.56684 0.76017 -0.09100
C 	C 	0.45322 0.56724 0.87918 -0.04500
H 	H 	0.42682 0.61838 0.90735 0.07300
O 	O 	0.71035 0.10088 0.00599 -0.61800
O 	O 	0.62005 0.11803 0.85896 -0.55100
C 	C 	0.63955 0.09123 0.95242 0.65000
C 	C 	0.56684 0.04327 0.01017 -0.39800
C 	C 	0.56724 0.04678 0.12918 0.15200
H 	H 	0.61838 0.07318 0.15735 -0.01600
O 	O 	0.21035 0.60088 0.50599 -0.52400
O 	O 	0.12005 0.61803 0.35896 -0.51200
C 	C 	0.13955 0.59123 0.45242 0.44600
C 	C 	0.06684 0.54327 0.51017 -0.13000
C 	C 	0.06724 0.54678 0.62918 0.02100
H 	H 	0.11838 0.57318 0.65735 0.03300
O 	O 	0.78965 0.39912 0.50599 -0.52200
O 	O 	0.87995 0.38197 0.35896 -0.50900
C 	C 	0.86045 0.40877 0.45242 0.44500
C 	C 	0.93316 0.45673 0.51017 -0.12100
C 	C 	0.93276 0.45322 0.62918 0.03100
H 	H 	0.88162 0.42682 0.65735 0.03200
O 	O 	0.28965 0.89912 0.00599 -0.61600
O 	O 	0.37995 0.88197 0.85896 -0.54400
C 	C 	0.36045 0.90877 0.95242 0.65200
C 	C 	0.43316 0.95673 0.01017 -0.38300
C 	C 	0.43276 0.95322 0.12918 0.17400
H 	H 	0.38162 0.92682 0.15735 -0.01900
O 	O 	0.89912 0.28965 0.99401 -0.41600
O 	O 	0.88197 0.37995 0.14104 -0.45500
C 	C 	0.90877 0.36045 0.04758 0.22200
C 	C 	0.95673 0.43316 0.98983 0.18700
C 	C 	0.95322 0.43276 0.87082 -0.16100
H 	H 	0.92682 0.38162 0.84265 0.09900
O 	O 	0.39912 0.78965 0.49401 -0.51800
O 	O 	0.38197 0.87995 0.64104 -0.49100
C 	C 	0.40877 0.86045 0.54758 0.42900
C 	C 	0.45673 0.93316 0.48983 -0.07600
C 	C 	0.45322 0.93276 0.37082 -0.01700
H 	H 	0.42682 0.88162 0.34265 0.04800
O 	O 	0.60088 0.21035 0.49401 -0.52100
O 	O 	0.61803 0.12005 0.64104 -0.49900
C 	C 	0.59123 0.13955 0.54758 0.43100
C 	C 	0.54327 0.06684 0.48983 -0.09400
C 	C 	0.54678 0.06724 0.37082 -0.03700
H 	H 	0.57318 0.11838 0.34265 0.05100
O 	O 	0.10088 0.71035 0.99401 -0.41700
O 	O 	0.11803 0.62005 0.14104 -0.45900
C 	C 	0.09123 0.63955 0.04758 0.22400
C 	C 	0.04327 0.56684 0.98983 0.17800
C 	C 	0.04678 0.56724 0.87082 -0.17100
H 	H 	0.07318 0.61838 0.84265 0.10100
O 	O 	0.78965 0.10088 0.74401 -0.51600
O 	O 	0.87995 0.11803 0.89104 -0.47800
C 	C 	0.86045 0.09123 0.79758 0.42900
C 	C 	0.93316 0.04327 0.73983 -0.08700
C 	C 	0.93276 0.04678 0.62082 -0.00500
H 	H 	0.88162 0.07318 0.59265 0.04200
O 	O 	0.28965 0.60088 0.24401 -0.53100
O 	O 	0.37995 0.61803 0.39104 -0.50800
C 	C 	0.36045 0.59123 0.29758 0.45000
C 	C 	0.43316 0.54327 0.23983 -0.14200
C 	C 	0.43276 0.54678 0.12082 0.03000
H 	H 	0.38162 0.57318 0.09265 0.01300
O 	O 	0.71035 0.39912 0.24401 -0.53000
O 	O 	0.62005 0.38197 0.39104 -0.50900
C 	C 	0.63955 0.40877 0.29758 0.45000
C 	C 	0.56684 0.45673 0.23983 -0.14100
C 	C 	0.56724 0.45322 0.12082 0.02900
H 	H 	0.61838 0.42682 0.09265 0.01400
O 	O 	0.21035 0.89912 0.74401 -0.51200
O 	O 	0.12005 0.88197 0.89104 -0.47400
C 	C 	0.13955 0.90877 0.79758 0.42800
C 	C 	0.06684 0.95673 0.73983 -0.07600
C 	C 	0.06724 0.95322 0.62082 0.00600
H 	H 	0.11838 0.92682 0.59265 0.04100
V 	V 	0.69123 0.30877 0.50000 1.80600
V 	V 	0.19123 0.80877 -0.00000 1.78200
V 	V 	0.80877 0.19123 -0.00000 1.78200
V 	V 	0.30877 0.69123 0.50000 1.80600
V 	V 	0.69123 0.19123 0.75000 1.80800
V 	V 	0.19123 0.69123 0.25000 1.80300
V 	V 	0.80877 0.30877 0.25000 1.80300
V 	V 	0.30877 0.80877 0.75000 1.80800
O 	O 	0.74470 0.25000 0.62500 -0.82200
H 	H 	0.80600 0.25000 0.62500 0.23600
O 	O 	0.24470 0.75000 0.12500 -0.82900
H 	H 	0.30600 0.75000 0.12500 0.23100
O 	O 	0.75530 0.25000 0.12500 -0.82900
H 	H 	0.69400 0.25000 0.12500 0.23000
O 	O 	0.25530 0.75000 0.62500 -0.82200
H 	H 	0.19400 0.75000 0.62500 0.23600
O 	O 	0.75000 0.24470 0.87500 -0.80600
H 	H 	0.75000 0.30600 0.87500 0.24100
O 	O 	0.25000 0.74470 0.37500 -0.82200
H 	H 	0.25000 0.80600 0.37500 0.23700
O 	O 	0.75000 0.25530 0.37500 -0.82200
H 	H 	0.75000 0.19400 0.37500 0.23600
O 	O 	0.25000 0.75530 0.87500 -0.80500
H 	H 	0.25000 0.69400 0.87500 0.24000
C 	C 	0.50000 0.50000 0.70333 0.04800
C 	C 	0.50000 0.50000 0.93620 0.09400
H 	H 	0.50000 0.50000 0.62600 0.05500
C 	C 	-0.00000 -0.00000 0.20333 0.02700
C 	C 	0.00000 -0.00000 0.43620 -0.03100
H 	H 	0.00000 0.00000 0.12600 0.04000
C 	C 	0.50000 0.00000 0.95333 0.40200
C 	C 	0.50000 0.00000 0.18620 -0.13800
H 	H 	0.50000 0.00000 0.87600 -0.06400
C 	C 	0.00000 0.50000 0.45333 0.06900
C 	C 	0.00000 0.50000 0.68620 -0.05300
H 	H 	0.00000 0.50000 0.37600 0.03900
C 	C 	-0.00000 0.50000 0.04667 -0.31800
C 	C 	0.00000 0.50000 0.81380 0.11600
H 	H 	0.00000 0.50000 0.12400 0.16600
C 	C 	0.50000 -0.00000 0.54667 0.01800
C 	C 	0.50000 0.00000 0.31380 0.02900
H 	H 	0.50000 0.00000 0.62400 0.06300
C 	C 	-0.00000 0.00000 0.79667 0.00700
C 	C 	0.00000 0.00000 0.56380 -0.02100
H 	H 	0.00000 0.00000 0.87400 0.07000
C 	C 	0.50000 0.50000 0.29667 0.08900
C 	C 	0.50000 0.50000 0.06380 -0.09000
H 	H 	0.50000 0.50000 0.37400 0.04000
