data_crystal

_cell_length_a 15.13180
_cell_length_b 15.13180
_cell_length_c 12.05230
_cell_angle_alpha 90.00000
_cell_angle_beta  90.00000
_cell_angle_gamma 90.00000

_symmetry_space_group_name_	'P 1'
_symmetry_space_group_name_H-M	'P 1'

loop_
_symmetry_equiv_pos_as_xyz
  x,y,z

loop_
_atom_site_label
_atom_site_type_symbol
_atom_site_fract_x
_atom_site_fract_y
_atom_site_fract_z
_atom_site_charge
O 	O 	0.60105 0.28981 0.75814 -0.50900
O 	O 	0.61865 0.37972 0.60910 -0.51000
C 	C 	0.59304 0.36025 0.70179 0.42400
C 	C 	0.54000 0.43078 0.75990 -0.07800
C 	C 	0.54135 0.42957 0.87919 -0.05100
H 	H 	0.57318 0.38162 0.90735 0.07400
O 	O 	0.10105 0.78981 0.25814 -0.52100
O 	O 	0.11865 0.87972 0.10910 -0.52600
C 	C 	0.09304 0.86025 0.20179 0.42800
C 	C 	0.04000 0.93078 0.25990 -0.08900
C 	C 	0.04135 0.92957 0.37919 0.01200
H 	H 	0.07318 0.88162 0.40735 0.03700
O 	O 	0.89895 0.21019 0.25814 -0.52100
O 	O 	0.88135 0.12028 0.10910 -0.53000
C 	C 	0.90696 0.13975 0.20179 0.43000
C 	C 	0.96000 0.06922 0.25990 -0.09800
C 	C 	0.95865 0.07043 0.37919 0.00100
H 	H 	0.92682 0.11838 0.40735 0.04000
O 	O 	0.39895 0.71019 0.75814 -0.50800
O 	O 	0.38135 0.62028 0.60910 -0.51100
C 	C 	0.40696 0.63975 0.70179 0.42400
C 	C 	0.46000 0.56922 0.75990 -0.07800
C 	C 	0.45865 0.57043 0.87919 -0.05000
H 	H 	0.42682 0.61838 0.90735 0.07500
O 	O 	0.71019 0.10105 0.00814 -0.61100
O 	O 	0.62028 0.11865 0.85910 -0.56000
C 	C 	0.63975 0.09304 0.95179 0.63600
C 	C 	0.56922 0.04000 0.00990 -0.38000
C 	C 	0.57043 0.04135 0.12919 0.14300
H 	H 	0.61838 0.07318 0.15735 -0.01300
O 	O 	0.21019 0.60105 0.50814 -0.52000
O 	O 	0.12028 0.61865 0.35910 -0.52100
C 	C 	0.13975 0.59304 0.45179 0.43600
C 	C 	0.06922 0.54000 0.50990 -0.11600
C 	C 	0.07043 0.54135 0.62919 0.01500
H 	H 	0.11838 0.57318 0.65735 0.03500
O 	O 	0.78981 0.39895 0.50814 -0.51800
O 	O 	0.87972 0.38135 0.35910 -0.51800
C 	C 	0.86025 0.40696 0.45179 0.43500
C 	C 	0.93078 0.46000 0.50990 -0.10800
C 	C 	0.92957 0.45865 0.62919 0.02500
H 	H 	0.88162 0.42682 0.65735 0.03300
O 	O 	0.28981 0.89895 0.00814 -0.60900
O 	O 	0.37972 0.88135 0.85910 -0.55400
C 	C 	0.36025 0.90696 0.95179 0.63800
C 	C 	0.43078 0.96000 0.00990 -0.36600
C 	C 	0.42957 0.95865 0.12919 0.16300
H 	H 	0.38162 0.92682 0.15735 -0.01600
O 	O 	0.89895 0.28981 0.99186 -0.41400
O 	O 	0.88135 0.37972 0.14090 -0.46400
C 	C 	0.90696 0.36025 0.04821 0.21700
C 	C 	0.96000 0.43078 0.99010 0.19400
C 	C 	0.95865 0.42957 0.87081 -0.16300
H 	H 	0.92682 0.38162 0.84265 0.09900
O 	O 	0.39895 0.78981 0.49186 -0.51400
O 	O 	0.38135 0.87972 0.64090 -0.50100
C 	C 	0.40696 0.86025 0.54821 0.42000
C 	C 	0.46000 0.93078 0.49010 -0.06400
C 	C 	0.45865 0.92957 0.37081 -0.02200
H 	H 	0.42682 0.88162 0.34265 0.04900
O 	O 	0.60105 0.21019 0.49186 -0.51700
O 	O 	0.61865 0.12028 0.64090 -0.50800
C 	C 	0.59304 0.13975 0.54821 0.42200
C 	C 	0.54000 0.06922 0.49010 -0.08200
C 	C 	0.54135 0.07043 0.37081 -0.04200
H 	H 	0.57318 0.11838 0.34265 0.05300
O 	O 	0.10105 0.71019 0.99186 -0.41500
O 	O 	0.11865 0.62028 0.14090 -0.46700
C 	C 	0.09304 0.63975 0.04821 0.21800
C 	C 	0.04000 0.56922 0.99010 0.18600
C 	C 	0.04135 0.57043 0.87081 -0.17200
H 	H 	0.07318 0.61838 0.84265 0.10100
O 	O 	0.78981 0.10105 0.74186 -0.51100
O 	O 	0.87972 0.11865 0.89090 -0.48600
C 	C 	0.86025 0.09304 0.79821 0.41900
C 	C 	0.93078 0.04000 0.74010 -0.07500
C 	C 	0.92957 0.04135 0.62081 -0.01100
H 	H 	0.88162 0.07318 0.59265 0.04400
O 	O 	0.28981 0.60105 0.24186 -0.52700
O 	O 	0.37972 0.61865 0.39090 -0.51700
C 	C 	0.36025 0.59304 0.29821 0.43900
C 	C 	0.43078 0.54000 0.24010 -0.12700
C 	C 	0.42957 0.54135 0.12081 0.02400
H 	H 	0.38162 0.57318 0.09265 0.01400
O 	O 	0.71019 0.39895 0.24186 -0.52500
O 	O 	0.62028 0.38135 0.39090 -0.51700
C 	C 	0.63975 0.40696 0.29821 0.43900
C 	C 	0.56922 0.46000 0.24010 -0.12700
C 	C 	0.57043 0.45865 0.12081 0.02500
H 	H 	0.61838 0.42682 0.09265 0.01500
O 	O 	0.21019 0.89895 0.74186 -0.50700
O 	O 	0.12028 0.88135 0.89090 -0.48200
C 	C 	0.13975 0.90696 0.79821 0.41900
C 	C 	0.06922 0.96000 0.74010 -0.06400
C 	C 	0.07043 0.95865 0.62081 0.00100
H 	H 	0.11838 0.92682 0.59265 0.04200
V 	V 	0.69057 0.30943 0.50000 1.80100
V 	V 	0.19057 0.80943 -0.00000 1.77700
V 	V 	0.80943 0.19057 -0.00000 1.77700
V 	V 	0.30943 0.69057 0.50000 1.80200
V 	V 	0.69057 0.19057 0.75000 1.80400
V 	V 	0.19057 0.69057 0.25000 1.79900
V 	V 	0.80943 0.30943 0.25000 1.79900
V 	V 	0.30943 0.80943 0.75000 1.80400
O 	O 	0.74830 0.25000 0.62500 -0.85400
H 	H 	0.80600 0.25000 0.62500 0.28800
O 	O 	0.24830 0.75000 0.12500 -0.86100
H 	H 	0.30600 0.75000 0.12500 0.28300
O 	O 	0.75170 0.25000 0.12500 -0.86100
H 	H 	0.69400 0.25000 0.12500 0.28200
O 	O 	0.25170 0.75000 0.62500 -0.85400
H 	H 	0.19400 0.75000 0.62500 0.28800
O 	O 	0.75000 0.24830 0.87500 -0.83800
H 	H 	0.75000 0.30600 0.87500 0.29300
O 	O 	0.25000 0.74830 0.37500 -0.85400
H 	H 	0.25000 0.80600 0.37500 0.28900
O 	O 	0.75000 0.25170 0.37500 -0.85400
H 	H 	0.75000 0.19400 0.37500 0.28800
O 	O 	0.25000 0.75170 0.87500 -0.83700
H 	H 	0.25000 0.69400 0.87500 0.29200
C 	C 	0.50000 0.50000 0.70384 0.03400
C 	C 	0.50000 0.50000 0.93588 0.09700
H 	H 	0.50000 0.50000 0.62670 0.06000
C 	C 	-0.00000 0.00000 0.20384 0.01700
C 	C 	-0.00000 0.00000 0.43588 -0.02800
H 	H 	-0.00000 0.00000 0.12670 0.04300
C 	C 	0.50000 0.00000 0.95384 0.38800
C 	C 	0.50000 0.00000 0.18588 -0.13300
H 	H 	0.50000 -0.00000 0.87670 -0.05800
C 	C 	-0.00000 0.50000 0.45384 0.05600
C 	C 	-0.00000 0.50000 0.68588 -0.04900
H 	H 	0.00000 0.50000 0.37670 0.04300
C 	C 	-0.00000 0.50000 0.04616 -0.32700
C 	C 	-0.00000 0.50000 0.81412 0.11600
H 	H 	-0.00000 0.50000 0.12330 0.16900
C 	C 	0.50000 0.00000 0.54616 0.00600
C 	C 	0.50000 -0.00000 0.31412 0.03000
H 	H 	0.50000 0.00000 0.62330 0.06700
C 	C 	-0.00000 0.00000 0.79616 -0.00300
C 	C 	0.00000 0.00000 0.56412 -0.01800
H 	H 	0.00000 0.00000 0.87330 0.07500
C 	C 	0.50000 0.50000 0.29616 0.07400
C 	C 	0.50000 0.50000 0.06412 -0.09000
H 	H 	0.50000 0.50000 0.37330 0.04500
