data_crystal

_cell_length_a 15.12670
_cell_length_b 15.12670
_cell_length_c 12.03630
_cell_angle_alpha 90.00000
_cell_angle_beta  90.00000
_cell_angle_gamma 90.00000

_symmetry_space_group_name_	'P 1'
_symmetry_space_group_name_H-M	'P 1'

loop_
_symmetry_equiv_pos_as_xyz
  x,y,z

loop_
_atom_site_label
_atom_site_type_symbol
_atom_site_fract_x
_atom_site_fract_y
_atom_site_fract_z
_atom_site_charge
O 	O 	0.60130 0.29040 0.75590 -0.51300
O 	O 	0.61800 0.37710 0.60850 -0.51600
C 	C 	0.59580 0.36270 0.70520 0.44300
C 	C 	0.54670 0.43560 0.76040 -0.10100
C 	C 	0.54760 0.43320 0.87940 -0.04100
H 	H 	0.57318 0.38162 0.90735 0.06900
O 	O 	0.10130 0.79040 0.25590 -0.52500
O 	O 	0.11800 0.87710 0.10850 -0.53100
C 	C 	0.09580 0.86270 0.20520 0.44800
C 	C 	0.04670 0.93560 0.26040 -0.10800
C 	C 	0.04760 0.93320 0.37940 0.02100
H 	H 	0.07318 0.88162 0.40735 0.03300
O 	O 	0.89870 0.20960 0.25590 -0.52500
O 	O 	0.88200 0.12290 0.10850 -0.53400
C 	C 	0.90420 0.13730 0.20520 0.44900
C 	C 	0.95330 0.06440 0.26040 -0.11700
C 	C 	0.95240 0.06680 0.37940 0.01000
H 	H 	0.92682 0.11838 0.40735 0.03600
O 	O 	0.39870 0.70960 0.75590 -0.51100
O 	O 	0.38200 0.62290 0.60850 -0.51600
C 	C 	0.40420 0.63730 0.70520 0.44300
C 	C 	0.45330 0.56440 0.76040 -0.10000
C 	C 	0.45240 0.56680 0.87940 -0.04100
H 	H 	0.42682 0.61838 0.90735 0.07000
O 	O 	0.70960 0.10130 0.00590 -0.61800
O 	O 	0.62290 0.11800 0.85850 -0.56500
C 	C 	0.63730 0.09580 0.95520 0.66000
C 	C 	0.56440 0.04670 0.01040 -0.40600
C 	C 	0.56680 0.04760 0.12940 0.15400
H 	H 	0.61838 0.07318 0.15735 -0.01900
O 	O 	0.20960 0.60130 0.50590 -0.52300
O 	O 	0.12290 0.61800 0.35850 -0.52600
C 	C 	0.13730 0.59580 0.45520 0.45600
C 	C 	0.06440 0.54670 0.51040 -0.13800
C 	C 	0.06680 0.54760 0.62940 0.02400
H 	H 	0.11838 0.57318 0.65735 0.03100
O 	O 	0.79040 0.39870 0.50590 -0.52100
O 	O 	0.87710 0.38200 0.35850 -0.52300
C 	C 	0.86270 0.40420 0.45520 0.45400
C 	C 	0.93560 0.45330 0.51040 -0.12900
C 	C 	0.93320 0.45240 0.62940 0.03400
H 	H 	0.88162 0.42682 0.65735 0.02900
O 	O 	0.29040 0.89870 0.00590 -0.61500
O 	O 	0.37710 0.88200 0.85850 -0.55800
C 	C 	0.36270 0.90420 0.95520 0.66200
C 	C 	0.43560 0.95330 0.01040 -0.39000
C 	C 	0.43320 0.95240 0.12940 0.17600
H 	H 	0.38162 0.92682 0.15735 -0.02200
O 	O 	0.89870 0.29040 0.99410 -0.41400
O 	O 	0.88200 0.37710 0.14150 -0.46900
C 	C 	0.90420 0.36270 0.04480 0.23000
C 	C 	0.95330 0.43560 0.98960 0.17900
C 	C 	0.95240 0.43320 0.87060 -0.15700
H 	H 	0.92682 0.38162 0.84265 0.09700
O 	O 	0.39870 0.79040 0.49410 -0.51600
O 	O 	0.38200 0.87710 0.64150 -0.50500
C 	C 	0.40420 0.86270 0.54480 0.43800
C 	C 	0.45330 0.93560 0.48960 -0.08300
C 	C 	0.45240 0.93320 0.37060 -0.01300
H 	H 	0.42682 0.88162 0.34265 0.04500
O 	O 	0.60130 0.20960 0.49410 -0.52000
O 	O 	0.61800 0.12290 0.64150 -0.51300
C 	C 	0.59580 0.13730 0.54480 0.44000
C 	C 	0.54670 0.06440 0.48960 -0.10300
C 	C 	0.54760 0.06680 0.37060 -0.03400
H 	H 	0.57318 0.11838 0.34265 0.04900
O 	O 	0.10130 0.70960 0.99410 -0.41500
O 	O 	0.11800 0.62290 0.14150 -0.47200
C 	C 	0.09580 0.63730 0.04480 0.23100
C 	C 	0.04670 0.56440 0.98960 0.16900
C 	C 	0.04760 0.56680 0.87060 -0.16800
H 	H 	0.07318 0.61838 0.84265 0.09900
O 	O 	0.79040 0.10130 0.74410 -0.51300
O 	O 	0.87710 0.11800 0.89150 -0.49000
C 	C 	0.86270 0.09580 0.79480 0.43600
C 	C 	0.93560 0.04670 0.73960 -0.09400
C 	C 	0.93320 0.04760 0.62060 -0.00200
H 	H 	0.88162 0.07318 0.59265 0.03900
O 	O 	0.29040 0.60130 0.24410 -0.53000
O 	O 	0.37710 0.61800 0.39150 -0.52200
C 	C 	0.36270 0.59580 0.29480 0.45900
C 	C 	0.43560 0.54670 0.23960 -0.14900
C 	C 	0.43320 0.54760 0.12060 0.03200
H 	H 	0.38162 0.57318 0.09265 0.01100
O 	O 	0.70960 0.39870 0.24410 -0.52800
O 	O 	0.62290 0.38200 0.39150 -0.52200
C 	C 	0.63730 0.40420 0.29480 0.45800
C 	C 	0.56440 0.45330 0.23960 -0.14900
C 	C 	0.56680 0.45240 0.12060 0.03100
H 	H 	0.61838 0.42682 0.09265 0.01200
O 	O 	0.20960 0.89870 0.74410 -0.50900
O 	O 	0.12290 0.88200 0.89150 -0.48600
C 	C 	0.13730 0.90420 0.79480 0.43500
C 	C 	0.06440 0.95330 0.73960 -0.08300
C 	C 	0.06680 0.95240 0.62060 0.00900
H 	H 	0.11838 0.92682 0.59265 0.03900
V 	V 	0.69016 0.30984 0.50000 1.80700
V 	V 	0.19016 0.80984 -0.00000 1.78400
V 	V 	0.80984 0.19016 -0.00000 1.78400
V 	V 	0.30984 0.69016 0.50000 1.80800
V 	V 	0.69016 0.19016 0.75000 1.81000
V 	V 	0.19016 0.69016 0.25000 1.80500
V 	V 	0.80984 0.30984 0.25000 1.80500
V 	V 	0.30984 0.80984 0.75000 1.81000
O 	O 	0.74630 0.25000 0.62500 -0.82400
H 	H 	0.80600 0.25000 0.62500 0.25400
O 	O 	0.24630 0.75000 0.12500 -0.83100
H 	H 	0.30600 0.75000 0.12500 0.24900
O 	O 	0.75370 0.25000 0.12500 -0.83100
H 	H 	0.69400 0.25000 0.12500 0.24800
O 	O 	0.25370 0.75000 0.62500 -0.82400
H 	H 	0.19400 0.75000 0.62500 0.25400
O 	O 	0.75000 0.24630 0.87500 -0.80800
H 	H 	0.75000 0.30600 0.87500 0.25900
O 	O 	0.25000 0.74630 0.37500 -0.82400
H 	H 	0.25000 0.80600 0.37500 0.25600
O 	O 	0.75000 0.25370 0.37500 -0.82400
H 	H 	0.75000 0.19400 0.37500 0.25400
O 	O 	0.25000 0.75370 0.87500 -0.80800
H 	H 	0.25000 0.69400 0.87500 0.25800
C 	C 	0.50000 0.50000 0.70300 0.05700
C 	C 	0.50000 0.50000 0.93620 0.09100
H 	H 	0.50000 0.50000 0.62600 0.05200
C 	C 	0.00000 0.00000 0.20300 0.03400
C 	C 	0.00000 0.00000 0.43620 -0.03400
H 	H 	0.00000 0.00000 0.12600 0.03700
C 	C 	0.50000 0.00000 0.95300 0.40900
C 	C 	0.50000 0.00000 0.18620 -0.13800
H 	H 	0.50000 0.00000 0.87600 -0.06700
C 	C 	0.00000 0.50000 0.45300 0.07700
C 	C 	-0.00000 0.50000 0.68620 -0.05400
H 	H 	0.00000 0.50000 0.37600 0.03600
C 	C 	-0.00000 0.50000 0.04700 -0.31000
C 	C 	-0.00000 0.50000 0.81380 0.11200
H 	H 	0.00000 0.50000 0.12400 0.16400
C 	C 	0.50000 0.00000 0.54700 0.02500
C 	C 	0.50000 0.00000 0.31380 0.02600
H 	H 	0.50000 0.00000 0.62400 0.06100
C 	C 	-0.00000 0.00000 0.79700 0.01300
C 	C 	0.00000 0.00000 0.56380 -0.02300
H 	H 	0.00000 0.00000 0.87400 0.06800
C 	C 	0.50000 0.50000 0.29700 0.09700
C 	C 	0.50000 0.50000 0.06380 -0.09000
H 	H 	0.50000 0.50000 0.37400 0.03700
