data_crystal

_cell_length_a 15.12360
_cell_length_b 15.12360
_cell_length_c 12.04200
_cell_angle_alpha 90.00000
_cell_angle_beta  90.00000
_cell_angle_gamma 90.00000

_symmetry_space_group_name_	'P 1'
_symmetry_space_group_name_H-M	'P 1'

loop_
_symmetry_equiv_pos_as_xyz
  x,y,z

loop_
_atom_site_label
_atom_site_type_symbol
_atom_site_fract_x
_atom_site_fract_y
_atom_site_fract_z
_atom_site_charge
O 	O 	0.60151 0.28984 0.75676 -0.51900
O 	O 	0.61740 0.37927 0.60963 -0.50800
C 	C 	0.59003 0.36026 0.70240 0.44000
C 	C 	0.54299 0.43307 0.76040 -0.09900
C 	C 	0.54626 0.43256 0.87937 -0.04100
H 	H 	0.57318 0.38162 0.90735 0.07100
O 	O 	0.10151 0.78984 0.25676 -0.52800
O 	O 	0.11740 0.87927 0.10963 -0.52200
C 	C 	0.09003 0.86026 0.20240 0.44400
C 	C 	0.04299 0.93307 0.26040 -0.10700
C 	C 	0.04626 0.93256 0.37937 0.02100
H 	H 	0.07318 0.88162 0.40735 0.03500
O 	O 	0.89849 0.21016 0.25676 -0.52800
O 	O 	0.88260 0.12073 0.10963 -0.52600
C 	C 	0.90997 0.13974 0.20240 0.44600
C 	C 	0.95701 0.06693 0.26040 -0.11600
C 	C 	0.95374 0.06744 0.37937 0.01000
H 	H 	0.92682 0.11838 0.40735 0.03700
O 	O 	0.39849 0.71016 0.75676 -0.51500
O 	O 	0.38260 0.62073 0.60963 -0.50800
C 	C 	0.40997 0.63974 0.70240 0.44100
C 	C 	0.45701 0.56693 0.76040 -0.09800
C 	C 	0.45374 0.56744 0.87937 -0.04100
H 	H 	0.42682 0.61838 0.90735 0.07200
O 	O 	0.71016 0.10151 0.00676 -0.62000
O 	O 	0.62073 0.11740 0.85963 -0.55800
C 	C 	0.63974 0.09003 0.95240 0.65700
C 	C 	0.56693 0.04299 0.01040 -0.40700
C 	C 	0.56744 0.04626 0.12937 0.15700
H 	H 	0.61838 0.07318 0.15735 -0.01700
O 	O 	0.21016 0.60151 0.50676 -0.52700
O 	O 	0.12073 0.61740 0.35963 -0.51800
C 	C 	0.13974 0.59003 0.45240 0.45300
C 	C 	0.06693 0.54299 0.51040 -0.13700
C 	C 	0.06744 0.54626 0.62937 0.02500
H 	H 	0.11838 0.57318 0.65735 0.03200
O 	O 	0.78984 0.39849 0.50676 -0.52500
O 	O 	0.87927 0.38260 0.35963 -0.51500
C 	C 	0.86026 0.40997 0.45240 0.45200
C 	C 	0.93307 0.45701 0.51040 -0.12900
C 	C 	0.93256 0.45374 0.62937 0.03500
H 	H 	0.88162 0.42682 0.65735 0.03000
O 	O 	0.28984 0.89849 0.00676 -0.61800
O 	O 	0.37927 0.88260 0.85963 -0.55100
C 	C 	0.36026 0.90997 0.95240 0.66000
C 	C 	0.43307 0.95701 0.01040 -0.39200
C 	C 	0.43256 0.95374 0.12937 0.17900
H 	H 	0.38162 0.92682 0.15735 -0.02100
O 	O 	0.89849 0.28984 0.99324 -0.42000
O 	O 	0.88260 0.37927 0.14037 -0.46100
C 	C 	0.90997 0.36026 0.04760 0.22900
C 	C 	0.95701 0.43307 0.98960 0.18200
C 	C 	0.95374 0.43256 0.87063 -0.15900
H 	H 	0.92682 0.38162 0.84265 0.09900
O 	O 	0.39849 0.78984 0.49324 -0.52100
O 	O 	0.38260 0.87927 0.64037 -0.49800
C 	C 	0.40997 0.86026 0.54760 0.43600
C 	C 	0.45701 0.93307 0.48960 -0.08200
C 	C 	0.45374 0.93256 0.37063 -0.01300
H 	H 	0.42682 0.88162 0.34265 0.04700
O 	O 	0.60151 0.21016 0.49324 -0.52400
O 	O 	0.61740 0.12073 0.64037 -0.50500
C 	C 	0.59003 0.13974 0.54760 0.43800
C 	C 	0.54299 0.06693 0.48960 -0.10100
C 	C 	0.54626 0.06744 0.37063 -0.03400
H 	H 	0.57318 0.11838 0.34265 0.05000
O 	O 	0.10151 0.71016 0.99324 -0.42100
O 	O 	0.11740 0.62073 0.14037 -0.46400
C 	C 	0.09003 0.63974 0.04760 0.23000
C 	C 	0.04299 0.56693 0.98960 0.17300
C 	C 	0.04626 0.56744 0.87063 -0.16900
H 	H 	0.07318 0.61838 0.84265 0.10100
O 	O 	0.78984 0.10151 0.74324 -0.51900
O 	O 	0.87927 0.11740 0.89037 -0.48400
C 	C 	0.86026 0.09003 0.79760 0.43600
C 	C 	0.93307 0.04299 0.73960 -0.09400
C 	C 	0.93256 0.04626 0.62063 -0.00100
H 	H 	0.88162 0.07318 0.59265 0.04100
O 	O 	0.28984 0.60151 0.24324 -0.53400
O 	O 	0.37927 0.61740 0.39037 -0.51400
C 	C 	0.36026 0.59003 0.29760 0.45700
C 	C 	0.43307 0.54299 0.23960 -0.14900
C 	C 	0.43256 0.54626 0.12063 0.03400
H 	H 	0.38162 0.57318 0.09265 0.01200
O 	O 	0.71016 0.39849 0.24324 -0.53300
O 	O 	0.62073 0.38260 0.39037 -0.51500
C 	C 	0.63974 0.40997 0.29760 0.45700
C 	C 	0.56693 0.45701 0.23960 -0.14800
C 	C 	0.56744 0.45374 0.12063 0.03300
H 	H 	0.61838 0.42682 0.09265 0.01300
O 	O 	0.21016 0.89849 0.74324 -0.51500
O 	O 	0.12073 0.88260 0.89037 -0.48000
C 	C 	0.13974 0.90997 0.79760 0.43500
C 	C 	0.06693 0.95701 0.73960 -0.08300
C 	C 	0.06744 0.95374 0.62063 0.01000
H 	H 	0.11838 0.92682 0.59265 0.04000
V 	V 	0.69080 0.30920 0.50000 1.80400
V 	V 	0.19080 0.80920 -0.00000 1.78100
V 	V 	0.80920 0.19080 -0.00000 1.78100
V 	V 	0.30920 0.69080 0.50000 1.80400
V 	V 	0.69080 0.19080 0.75000 1.80700
V 	V 	0.19080 0.69080 0.25000 1.80200
V 	V 	0.80920 0.30920 0.25000 1.80200
V 	V 	0.30920 0.80920 0.75000 1.80700
O 	O 	0.74625 0.25000 0.62500 -0.83000
H 	H 	0.80600 0.25000 0.62500 0.25700
O 	O 	0.24625 0.75000 0.12500 -0.83800
H 	H 	0.30600 0.75000 0.12500 0.25300
O 	O 	0.75375 0.25000 0.12500 -0.83800
H 	H 	0.69400 0.25000 0.12500 0.25200
O 	O 	0.25375 0.75000 0.62500 -0.83000
H 	H 	0.19400 0.75000 0.62500 0.25700
O 	O 	0.75000 0.24625 0.87500 -0.81400
H 	H 	0.75000 0.30600 0.87500 0.26200
O 	O 	0.25000 0.74625 0.37500 -0.83000
H 	H 	0.25000 0.80600 0.37500 0.25900
O 	O 	0.75000 0.25375 0.37500 -0.83000
H 	H 	0.75000 0.19400 0.37500 0.25700
O 	O 	0.25000 0.75375 0.87500 -0.81400
H 	H 	0.25000 0.69400 0.87500 0.26100
C 	C 	0.50000 0.50000 0.70380 0.05400
C 	C 	0.50000 0.50000 0.93619 0.09200
H 	H 	0.50000 0.50000 0.62660 0.05200
C 	C 	0.00000 0.00000 0.20380 0.03200
C 	C 	0.00000 0.00000 0.43619 -0.03400
H 	H 	0.00000 0.00000 0.12660 0.03700
C 	C 	0.50000 0.00000 0.95380 0.41000
C 	C 	0.50000 0.00000 0.18619 -0.14100
H 	H 	0.50000 0.00000 0.87660 -0.06800
C 	C 	-0.00000 0.50000 0.45380 0.07500
C 	C 	-0.00000 0.50000 0.68619 -0.05600
H 	H 	0.00000 0.50000 0.37660 0.03500
C 	C 	-0.00000 0.50000 0.04620 -0.31400
C 	C 	0.00000 0.50000 0.81381 0.11500
H 	H 	-0.00000 0.50000 0.12340 0.16400
C 	C 	0.50000 0.00000 0.54620 0.02300
C 	C 	0.50000 -0.00000 0.31381 0.02700
H 	H 	0.50000 0.00000 0.62340 0.06000
C 	C 	0.00000 0.00000 0.79620 0.01300
C 	C 	0.00000 0.00000 0.56381 -0.02300
H 	H 	0.00000 0.00000 0.87340 0.06700
C 	C 	0.50000 0.50000 0.29620 0.09500
C 	C 	0.50000 0.50000 0.06381 -0.09200
H 	H 	0.50000 0.50000 0.37340 0.03700
