data_crystal

_cell_length_a 15.10350
_cell_length_b 15.10350
_cell_length_c 12.02470
_cell_angle_alpha 90.00000
_cell_angle_beta  90.00000
_cell_angle_gamma 90.00000

_symmetry_space_group_name_	'P 1'
_symmetry_space_group_name_H-M	'P 1'

loop_
_symmetry_equiv_pos_as_xyz
  x,y,z

loop_
_atom_site_label
_atom_site_type_symbol
_atom_site_fract_x
_atom_site_fract_y
_atom_site_fract_z
_atom_site_charge
O 	O 	0.60162 0.28970 0.75592 -0.51700
O 	O 	0.61804 0.38048 0.60872 -0.49900
C 	C 	0.59118 0.35994 0.70153 0.43400
C 	C 	0.54461 0.43393 0.76011 -0.08700
C 	C 	0.54733 0.43311 0.87925 -0.04700
H 	H 	0.57318 0.38162 0.90735 0.07300
O 	O 	0.10162 0.78970 0.25592 -0.52900
O 	O 	0.11804 0.88048 0.10872 -0.51400
C 	C 	0.09118 0.85994 0.20153 0.43700
C 	C 	0.04461 0.93393 0.26011 -0.09600
C 	C 	0.04733 0.93311 0.37925 0.01500
H 	H 	0.07318 0.88162 0.40735 0.03700
O 	O 	0.89838 0.21030 0.25592 -0.52900
O 	O 	0.88196 0.11952 0.10872 -0.51800
C 	C 	0.90882 0.14006 0.20153 0.43800
C 	C 	0.95539 0.06607 0.26011 -0.10500
C 	C 	0.95267 0.06689 0.37925 0.00400
H 	H 	0.92682 0.11838 0.40735 0.04000
O 	O 	0.39838 0.71030 0.75592 -0.51600
O 	O 	0.38196 0.61952 0.60872 -0.50000
C 	C 	0.40882 0.64006 0.70153 0.43400
C 	C 	0.45539 0.56607 0.76011 -0.08700
C 	C 	0.45267 0.56689 0.87925 -0.04800
H 	H 	0.42682 0.61838 0.90735 0.07400
O 	O 	0.71030 0.10162 0.00592 -0.62200
O 	O 	0.61952 0.11804 0.85872 -0.54800
C 	C 	0.64006 0.09118 0.95153 0.64900
C 	C 	0.56607 0.04461 0.01011 -0.39400
C 	C 	0.56689 0.04733 0.12925 0.15000
H 	H 	0.61838 0.07318 0.15735 -0.01500
O 	O 	0.21030 0.60162 0.50592 -0.52800
O 	O 	0.11952 0.61804 0.35872 -0.51000
C 	C 	0.14006 0.59118 0.45153 0.44600
C 	C 	0.06607 0.54461 0.51011 -0.12600
C 	C 	0.06689 0.54733 0.62925 0.01900
H 	H 	0.11838 0.57318 0.65735 0.03400
O 	O 	0.78970 0.39838 0.50592 -0.52600
O 	O 	0.88048 0.38196 0.35872 -0.50700
C 	C 	0.85994 0.40882 0.45153 0.44500
C 	C 	0.93393 0.45539 0.51011 -0.11700
C 	C 	0.93311 0.45267 0.62925 0.02900
H 	H 	0.88162 0.42682 0.65735 0.03300
O 	O 	0.28970 0.89838 0.00592 -0.62000
O 	O 	0.38048 0.88196 0.85872 -0.54200
C 	C 	0.35994 0.90882 0.95153 0.65100
C 	C 	0.43393 0.95539 0.01011 -0.37900
C 	C 	0.43311 0.95267 0.12925 0.17100
H 	H 	0.38162 0.92682 0.15735 -0.01800
O 	O 	0.89838 0.28970 0.99408 -0.41900
O 	O 	0.88196 0.38048 0.14128 -0.45400
C 	C 	0.90882 0.35994 0.04847 0.22300
C 	C 	0.95539 0.43393 0.98989 0.19000
C 	C 	0.95267 0.43311 0.87075 -0.16300
H 	H 	0.92682 0.38162 0.84265 0.10000
O 	O 	0.39838 0.78970 0.49408 -0.52200
O 	O 	0.38196 0.88048 0.64128 -0.48900
C 	C 	0.40882 0.85994 0.54847 0.42900
C 	C 	0.45539 0.93393 0.48989 -0.07200
C 	C 	0.45267 0.93311 0.37075 -0.01900
H 	H 	0.42682 0.88162 0.34265 0.04900
O 	O 	0.60162 0.21030 0.49408 -0.52500
O 	O 	0.61804 0.11952 0.64128 -0.49700
C 	C 	0.59118 0.14006 0.54847 0.43200
C 	C 	0.54461 0.06607 0.48989 -0.09000
C 	C 	0.54733 0.06689 0.37075 -0.04000
H 	H 	0.57318 0.11838 0.34265 0.05200
O 	O 	0.10162 0.71030 0.99408 -0.42000
O 	O 	0.11804 0.61952 0.14128 -0.45700
C 	C 	0.09118 0.64006 0.04847 0.22400
C 	C 	0.04461 0.56607 0.98989 0.18100
C 	C 	0.04733 0.56689 0.87075 -0.17300
H 	H 	0.07318 0.61838 0.84265 0.10200
O 	O 	0.78970 0.10162 0.74408 -0.52000
O 	O 	0.88048 0.11804 0.89128 -0.47600
C 	C 	0.85994 0.09118 0.79847 0.42900
C 	C 	0.93393 0.04461 0.73989 -0.08400
C 	C 	0.93311 0.04733 0.62075 -0.00700
H 	H 	0.88162 0.07318 0.59265 0.04300
O 	O 	0.28970 0.60162 0.24408 -0.53500
O 	O 	0.38048 0.61804 0.39128 -0.50600
C 	C 	0.35994 0.59118 0.29847 0.44900
C 	C 	0.43393 0.54461 0.23989 -0.13800
C 	C 	0.43311 0.54733 0.12075 0.02800
H 	H 	0.38162 0.57318 0.09265 0.01400
O 	O 	0.71030 0.39838 0.24408 -0.53400
O 	O 	0.61952 0.38196 0.39128 -0.50700
C 	C 	0.64006 0.40882 0.29847 0.45000
C 	C 	0.56607 0.45539 0.23989 -0.13700
C 	C 	0.56689 0.45267 0.12075 0.02800
H 	H 	0.61838 0.42682 0.09265 0.01500
O 	O 	0.21030 0.89838 0.74408 -0.51600
O 	O 	0.11952 0.88196 0.89128 -0.47200
C 	C 	0.14006 0.90882 0.79847 0.42900
C 	C 	0.06607 0.95539 0.73989 -0.07300
C 	C 	0.06689 0.95267 0.62075 0.00400
H 	H 	0.11838 0.92682 0.59265 0.04200
V 	V 	0.69170 0.30830 0.50000 1.80700
V 	V 	0.19170 0.80830 -0.00000 1.78300
V 	V 	0.80830 0.19170 -0.00000 1.78400
V 	V 	0.30830 0.69170 0.50000 1.80700
V 	V 	0.69170 0.19170 0.75000 1.80900
V 	V 	0.19170 0.69170 0.25000 1.80500
V 	V 	0.80830 0.30830 0.25000 1.80500
V 	V 	0.30830 0.80830 0.75000 1.80900
O 	O 	0.74484 0.25000 0.62500 -0.82800
H 	H 	0.80600 0.25000 0.62500 0.23900
O 	O 	0.24484 0.75000 0.12500 -0.83600
H 	H 	0.30600 0.75000 0.12500 0.23400
O 	O 	0.75516 0.25000 0.12500 -0.83600
H 	H 	0.69400 0.25000 0.12500 0.23400
O 	O 	0.25516 0.75000 0.62500 -0.82800
H 	H 	0.19400 0.75000 0.62500 0.23900
O 	O 	0.75000 0.24484 0.87500 -0.81200
H 	H 	0.75000 0.30600 0.87500 0.24400
O 	O 	0.25000 0.74484 0.37500 -0.82800
H 	H 	0.25000 0.80600 0.37500 0.24100
O 	O 	0.75000 0.25516 0.37500 -0.82800
H 	H 	0.75000 0.19400 0.37500 0.23900
O 	O 	0.25000 0.75516 0.87500 -0.81200
H 	H 	0.25000 0.69400 0.87500 0.24300
C 	C 	0.50000 0.50000 0.70346 0.04400
C 	C 	0.50000 0.50000 0.93621 0.09600
H 	H 	0.50000 0.50000 0.62610 0.05700
C 	C 	0.00000 0.00000 0.20346 0.02300
C 	C 	0.00000 0.00000 0.43621 -0.03000
H 	H 	0.00000 0.00000 0.12610 0.04100
C 	C 	0.50000 0.00000 0.95346 0.39900
C 	C 	0.50000 0.00000 0.18621 -0.13700
H 	H 	0.50000 0.00000 0.87610 -0.06200
C 	C 	-0.00000 0.50000 0.45346 0.06500
C 	C 	-0.00000 0.50000 0.68621 -0.05200
H 	H 	0.00000 0.50000 0.37610 0.04000
C 	C 	-0.00000 0.50000 0.04654 -0.32200
C 	C 	0.00000 0.50000 0.81379 0.11700
H 	H 	0.00000 0.50000 0.12390 0.16800
C 	C 	0.50000 0.00000 0.54654 0.01400
C 	C 	0.50000 0.00000 0.31379 0.03000
H 	H 	0.50000 0.00000 0.62390 0.06500
C 	C 	0.00000 0.00000 0.79654 0.00400
C 	C 	0.00000 0.00000 0.56379 -0.02000
H 	H 	0.00000 0.00000 0.87390 0.07200
C 	C 	0.50000 0.50000 0.29654 0.08500
C 	C 	0.50000 0.50000 0.06379 -0.09000
H 	H 	0.50000 0.50000 0.37390 0.04200
