data_crystal

_cell_length_a 15.14230
_cell_length_b 15.14230
_cell_length_c 12.04490
_cell_angle_alpha 90.00000
_cell_angle_beta  90.00000
_cell_angle_gamma 90.00000

_symmetry_space_group_name_	'P 1'
_symmetry_space_group_name_H-M	'P 1'

loop_
_symmetry_equiv_pos_as_xyz
  x,y,z

loop_
_atom_site_label
_atom_site_type_symbol
_atom_site_fract_x
_atom_site_fract_y
_atom_site_fract_z
_atom_site_charge
O 	O 	0.60220 0.29060 0.76150 -0.51600
O 	O 	0.62250 0.38070 0.61420 -0.51000
C 	C 	0.59250 0.36010 0.70690 0.42900
C 	C 	0.54100 0.43200 0.76240 -0.08900
C 	C 	0.54580 0.43270 0.88160 -0.05300
H 	H 	0.57318 0.38162 0.90735 0.07800
O 	O 	0.10220 0.79060 0.26150 -0.52500
O 	O 	0.12250 0.88070 0.11420 -0.52200
C 	C 	0.09250 0.86010 0.20690 0.43300
C 	C 	0.04100 0.93200 0.26240 -0.09700
C 	C 	0.04580 0.93270 0.38160 0.01300
H 	H 	0.07318 0.88162 0.40735 0.04100
O 	O 	0.89780 0.20940 0.26150 -0.52500
O 	O 	0.87750 0.11930 0.11420 -0.52600
C 	C 	0.90750 0.13990 0.20690 0.43400
C 	C 	0.95900 0.06800 0.26240 -0.10600
C 	C 	0.95420 0.06730 0.38160 0.00100
H 	H 	0.92682 0.11838 0.40735 0.04400
O 	O 	0.39780 0.70940 0.76150 -0.51300
O 	O 	0.37750 0.61930 0.61420 -0.51000
C 	C 	0.40750 0.63990 0.70690 0.42900
C 	C 	0.45900 0.56800 0.76240 -0.08800
C 	C 	0.45420 0.56730 0.88160 -0.05300
H 	H 	0.42682 0.61838 0.90735 0.07900
O 	O 	0.70940 0.10220 0.01150 -0.61600
O 	O 	0.61930 0.12250 0.86420 -0.55700
C 	C 	0.63990 0.09250 0.95690 0.64400
C 	C 	0.56800 0.04100 0.01240 -0.40200
C 	C 	0.56730 0.04580 0.13160 0.15400
H 	H 	0.61838 0.07318 0.15735 -0.01200
O 	O 	0.20940 0.60220 0.51150 -0.52500
O 	O 	0.11930 0.62250 0.36420 -0.52000
C 	C 	0.13990 0.59250 0.45690 0.44300
C 	C 	0.06800 0.54100 0.51240 -0.13000
C 	C 	0.06730 0.54580 0.63160 0.02100
H 	H 	0.11838 0.57318 0.65735 0.03700
O 	O 	0.79060 0.39780 0.51150 -0.52300
O 	O 	0.88070 0.37750 0.36420 -0.51800
C 	C 	0.86010 0.40750 0.45690 0.44200
C 	C 	0.93200 0.45900 0.51240 -0.12200
C 	C 	0.93270 0.45420 0.63160 0.03100
H 	H 	0.88162 0.42682 0.65735 0.03600
O 	O 	0.29060 0.89780 0.01150 -0.61400
O 	O 	0.38070 0.87750 0.86420 -0.55100
C 	C 	0.36010 0.90750 0.95690 0.64600
C 	C 	0.43200 0.95900 0.01240 -0.38600
C 	C 	0.43270 0.95420 0.13160 0.17600
H 	H 	0.38162 0.92682 0.15735 -0.01600
O 	O 	0.89780 0.29060 0.98850 -0.41900
O 	O 	0.87750 0.38070 0.13580 -0.46700
C 	C 	0.90750 0.36010 0.04310 0.22100
C 	C 	0.95900 0.43200 0.98760 0.19500
C 	C 	0.95420 0.43270 0.86840 -0.17400
H 	H 	0.92682 0.38162 0.84265 0.10700
O 	O 	0.39780 0.79060 0.48850 -0.51800
O 	O 	0.37750 0.88070 0.63580 -0.50100
C 	C 	0.40750 0.86010 0.54310 0.42500
C 	C 	0.45900 0.93200 0.48760 -0.07100
C 	C 	0.45420 0.93270 0.36840 -0.02700
H 	H 	0.42682 0.88162 0.34265 0.05500
O 	O 	0.60220 0.20940 0.48850 -0.52100
O 	O 	0.62250 0.11930 0.63580 -0.50800
C 	C 	0.59250 0.13990 0.54310 0.42700
C 	C 	0.54100 0.06800 0.48760 -0.08900
C 	C 	0.54580 0.06730 0.36840 -0.04700
H 	H 	0.57318 0.11838 0.34265 0.05900
O 	O 	0.10220 0.70940 0.98850 -0.42000
O 	O 	0.12250 0.61930 0.13580 -0.47000
C 	C 	0.09250 0.63990 0.04310 0.22200
C 	C 	0.04100 0.56800 0.98760 0.18600
C 	C 	0.04580 0.56730 0.86840 -0.18300
H 	H 	0.07318 0.61838 0.84265 0.10900
O 	O 	0.79060 0.10220 0.73850 -0.51700
O 	O 	0.88070 0.12250 0.88580 -0.48900
C 	C 	0.86010 0.09250 0.79310 0.42600
C 	C 	0.93200 0.04100 0.73760 -0.08500
C 	C 	0.93270 0.04580 0.61840 -0.01000
H 	H 	0.88162 0.07318 0.59265 0.04700
O 	O 	0.29060 0.60220 0.23850 -0.53200
O 	O 	0.38070 0.62250 0.38580 -0.51700
C 	C 	0.36010 0.59250 0.29310 0.44700
C 	C 	0.43200 0.54100 0.23760 -0.14100
C 	C 	0.43270 0.54580 0.11840 0.02800
H 	H 	0.38162 0.57318 0.09265 0.01800
O 	O 	0.70940 0.39780 0.23850 -0.53100
O 	O 	0.61930 0.37750 0.38580 -0.51700
C 	C 	0.63990 0.40750 0.29310 0.44700
C 	C 	0.56800 0.45900 0.23760 -0.14100
C 	C 	0.56730 0.45420 0.11840 0.02700
H 	H 	0.61838 0.42682 0.09265 0.01900
O 	O 	0.20940 0.89780 0.73850 -0.51300
O 	O 	0.11930 0.87750 0.88580 -0.48500
C 	C 	0.13990 0.90750 0.79310 0.42500
C 	C 	0.06800 0.95900 0.73760 -0.07300
C 	C 	0.06730 0.95420 0.61840 0.00100
H 	H 	0.11838 0.92682 0.59265 0.04600
V 	V 	0.68935 0.31065 0.50000 1.80200
V 	V 	0.18935 0.81065 -0.00000 1.77900
V 	V 	0.81065 0.18935 -0.00000 1.78000
V 	V 	0.31065 0.68935 0.50000 1.80200
V 	V 	0.68935 0.18935 0.75000 1.80400
V 	V 	0.18935 0.68935 0.25000 1.80000
V 	V 	0.81065 0.31065 0.25000 1.80000
V 	V 	0.31065 0.81065 0.75000 1.80500
O 	O 	0.74390 0.25000 0.62500 -0.79000
H 	H 	0.80600 0.25000 0.62500 0.22800
O 	O 	0.24390 0.75000 0.12500 -0.79700
H 	H 	0.30600 0.75000 0.12500 0.22300
O 	O 	0.75610 0.25000 0.12500 -0.79700
H 	H 	0.69400 0.25000 0.12500 0.22200
O 	O 	0.25610 0.75000 0.62500 -0.79000
H 	H 	0.19400 0.75000 0.62500 0.22800
O 	O 	0.75000 0.24390 0.87500 -0.77500
H 	H 	0.75000 0.30600 0.87500 0.23300
O 	O 	0.25000 0.74390 0.37500 -0.79000
H 	H 	0.25000 0.80600 0.37500 0.22900
O 	O 	0.75000 0.25610 0.37500 -0.79000
H 	H 	0.75000 0.19400 0.37500 0.22800
O 	O 	0.25000 0.75610 0.87500 -0.77500
H 	H 	0.25000 0.69400 0.87500 0.23300
C 	C 	0.50000 0.50000 0.70800 0.04800
C 	C 	0.50000 0.50000 0.93710 0.10200
H 	H 	0.50000 0.50000 0.63100 0.05000
C 	C 	-0.00000 0.00000 0.20800 0.02700
C 	C 	0.00000 0.00000 0.43710 -0.02800
H 	H 	0.00000 0.00000 0.13100 0.03500
C 	C 	0.50000 0.00000 0.95800 0.41700
C 	C 	0.50000 0.00000 0.18710 -0.14400
H 	H 	0.50000 0.00000 0.88100 -0.07400
C 	C 	0.00000 0.50000 0.45800 0.07400
C 	C 	-0.00000 0.50000 0.68710 -0.05600
H 	H 	0.00000 0.50000 0.38100 0.03200
C 	C 	-0.00000 0.50000 0.04200 -0.33000
C 	C 	-0.00000 0.50000 0.81290 0.13000
H 	H 	0.00000 0.50000 0.11900 0.16500
C 	C 	0.50000 -0.00000 0.54200 0.01500
C 	C 	0.50000 -0.00000 0.31290 0.03900
H 	H 	0.50000 0.00000 0.61900 0.05800
C 	C 	0.00000 0.00000 0.79200 0.00700
C 	C 	0.00000 0.00000 0.56290 -0.01600
H 	H 	0.00000 0.00000 0.86900 0.06400
C 	C 	0.50000 0.50000 0.29200 0.09300
C 	C 	0.50000 0.50000 0.06290 -0.09000
H 	H 	0.50000 0.50000 0.36900 0.03300
