data_crystal

_cell_length_a 7.43400
_cell_length_b 11.92700
_cell_length_c 13.25500
_cell_angle_alpha 90.00000
_cell_angle_beta  90.00000
_cell_angle_gamma 90.00000

_symmetry_space_group_name_	'P 1'
_symmetry_space_group_name_H-M	'P 1'

loop_
_symmetry_equiv_pos_as_xyz
  x,y,z

loop_
_atom_site_label
_atom_site_type_symbol
_atom_site_fract_x
_atom_site_fract_y
_atom_site_fract_z
_atom_site_charge
N 	N 	0.90970 0.40750 0.04060 -0.15700
C 	C 	0.86300 0.44910 0.95200 0.01000
C 	C 	0.04610 0.45790 0.08710 0.00800
N 	N 	0.85600 0.87740 0.74120 -0.18100
C 	C 	0.90090 0.91380 0.81500 0.05300
N 	N 	0.09030 0.90750 0.95940 -0.15600
C 	C 	0.13700 0.94910 0.04800 0.01100
C 	C 	0.95390 0.95790 0.91290 0.00900
N 	N 	0.14400 0.37740 0.25880 -0.18000
C 	C 	0.09910 0.41380 0.18500 0.05300
N 	N 	0.09030 0.59250 0.95940 -0.15600
C 	C 	0.13700 0.55090 0.04800 0.01100
C 	C 	0.95390 0.54210 0.91290 0.00900
N 	N 	0.14400 0.12260 0.25880 -0.18000
C 	C 	0.09910 0.08620 0.18500 0.05300
N 	N 	0.90970 0.09250 0.04060 -0.15600
C 	C 	0.86300 0.05090 0.95200 0.01100
C 	C 	0.04610 0.04210 0.08710 0.00900
N 	N 	0.85600 0.62260 0.74120 -0.18000
C 	C 	0.90090 0.58620 0.81500 0.05300
Ag	Ag	0.76617 0.75000 0.60999 0.52700
Ag	Ag	0.23383 0.25000 0.39001 0.52700
N 	N 	0.64400 0.12260 0.24120 -0.18000
C 	C 	0.59910 0.08620 0.31500 0.05300
N 	N 	0.59030 0.59250 0.54060 -0.15700
C 	C 	0.63700 0.55090 0.45200 0.01100
C 	C 	0.45390 0.54210 0.58710 0.01000
N 	N 	0.35600 0.62260 0.75880 -0.18000
C 	C 	0.40090 0.58620 0.68500 0.05300
N 	N 	0.40970 0.09250 0.45940 -0.15700
C 	C 	0.36300 0.05090 0.54800 0.01100
C 	C 	0.54610 0.04210 0.41290 0.01000
N 	N 	0.35600 0.87740 0.75880 -0.18000
C 	C 	0.40090 0.91380 0.68500 0.05300
N 	N 	0.40970 0.40750 0.45940 -0.15700
C 	C 	0.36300 0.44910 0.54800 0.01100
C 	C 	0.54610 0.45790 0.41290 0.01000
N 	N 	0.64400 0.37740 0.24120 -0.18000
C 	C 	0.59910 0.41380 0.31500 0.05300
N 	N 	0.59030 0.90750 0.54060 -0.15700
C 	C 	0.63700 0.94910 0.45200 0.01100
C 	C 	0.45390 0.95790 0.58710 0.01000
Ag	Ag	0.73383 0.25000 0.10999 0.52700
Ag	Ag	0.26617 0.75000 0.89001 0.52700
