data_crystal

_cell_length_a 27.00830
_cell_length_b 27.01210
_cell_length_c 27.81610
_cell_angle_alpha 90.00000
_cell_angle_beta  90.00000
_cell_angle_gamma 90.00000

_symmetry_space_group_name_	'P 1'
_symmetry_space_group_name_H-M	'P 1'

loop_
_symmetry_equiv_pos_as_xyz
  x,y,z

loop_
_atom_site_label
_atom_site_type_symbol
_atom_site_fract_x
_atom_site_fract_y
_atom_site_fract_z
_atom_site_charge
Mo	Mo	0.89929 0.46297 0.03322 1.03700
Mo	Mo	0.90681 0.51417 0.11279 1.03800
Mo	Mo	0.94048 0.63620 0.11562 1.10500
Mo	Mo	0.96458 0.68576 0.01460 1.10100
Mo	Mo	0.95315 0.61027 0.91561 1.03900
Mo	Mo	0.92551 0.51719 0.92096 1.03400
Mo	Mo	0.80707 0.48015 0.94905 1.09900
Mo	Mo	0.72891 0.56581 0.97266 1.10100
Mo	Mo	0.77465 0.68350 0.96488 1.04000
Mo	Mo	0.86491 0.70681 0.94220 1.04300
Mo	Mo	0.74618 0.62938 0.07855 1.04500
Mo	Mo	0.81831 0.61074 0.13788 1.04700
Zn	Zn	0.99472 0.55948 0.02701 1.19700
Zn	Zn	0.85263 0.71709 0.07045 1.21900
Zn	Zn	0.82163 0.59015 0.88677 1.21900
Zn	Zn	0.77900 0.50155 0.06999 1.22100
O 	O 	0.74160 0.44790 0.09892 -0.48000
O 	O 	0.77196 0.47477 0.16884 -0.34300
O 	O 	0.66383 0.28068 0.09811 -0.48700
O 	O 	0.60648 0.26861 0.15380 -0.36400
O 	O 	0.69330 0.40755 0.31863 -0.48600
O 	O 	0.63278 0.35121 0.31180 -0.33600
O 	O 	0.94834 0.51124 0.05515 -0.78100
O 	O 	0.84957 0.48574 0.07966 -0.72800
O 	O 	0.93663 0.46405 0.97068 -0.72500
O 	O 	0.83867 0.44340 0.99500 -0.59900
O 	O 	0.94930 0.57137 0.13083 -0.62600
O 	O 	0.85275 0.54499 0.15683 -0.49500
O 	O 	0.88292 0.64416 0.14953 -0.58900
O 	O 	0.91844 0.68920 0.07038 -0.71400
O 	O 	0.97719 0.62426 0.05374 -0.72300
O 	O 	0.98914 0.65324 0.96248 -0.62600
O 	O 	0.92316 0.72720 0.98147 -0.60000
O 	O 	0.97074 0.55712 0.96000 -0.78100
O 	O 	0.89297 0.57609 0.89386 -0.72500
O 	O 	0.91510 0.67394 0.89553 -0.48900
O 	O 	0.85892 0.48536 0.90780 -0.60700
O 	O 	0.76368 0.50794 0.00195 -0.71100
O 	O 	0.78092 0.54526 0.92468 -0.71100
O 	O 	0.73054 0.62721 0.94520 -0.59900
O 	O 	0.70976 0.58581 0.03266 -0.60100
O 	O 	0.81897 0.65754 0.91544 -0.72600
O 	O 	0.82782 0.71480 0.00261 -0.73000
O 	O 	0.73494 0.68432 0.02837 -0.52000
O 	O 	0.77433 0.56700 0.10133 -0.72900
O 	O 	0.80415 0.66853 0.09736 -0.72700
C 	C 	0.71448 0.40776 0.16952 -0.14200
C 	C 	0.69261 0.36982 0.14281 0.05600
H 	H 	0.69830 0.36790 0.10920 0.01400
C 	C 	0.66260 0.33487 0.16500 -0.14600
C 	C 	0.65244 0.33930 0.21394 0.04800
H 	H 	0.62960 0.31730 0.22870 0.01600
C 	C 	0.67560 0.37591 0.24146 -0.14000
C 	C 	0.70738 0.40924 0.21923 0.05000
H 	H 	0.72440 0.43320 0.23800 0.01400
C 	C 	0.74561 0.44665 0.14537 0.32500
C 	C 	0.64110 0.29164 0.13797 0.34300
C 	C 	0.66571 0.37797 0.29459 0.32700
Mo	Mo	0.60071 0.53703 0.53322 1.03800
Mo	Mo	0.59319 0.48583 0.61279 1.03900
Mo	Mo	0.55952 0.36380 0.61562 1.10600
Mo	Mo	0.53542 0.31424 0.51460 1.10200
Mo	Mo	0.54685 0.38973 0.41561 1.04000
Mo	Mo	0.57449 0.48281 0.42096 1.03500
Mo	Mo	0.69293 0.51985 0.44905 1.10000
Mo	Mo	0.77109 0.43419 0.47266 1.10200
Mo	Mo	0.72535 0.31650 0.46488 1.04000
Mo	Mo	0.63509 0.29319 0.44220 1.04300
Mo	Mo	0.75382 0.37062 0.57855 1.04500
Mo	Mo	0.68169 0.38926 0.63788 1.04700
Zn	Zn	0.50528 0.44052 0.52701 1.19700
Zn	Zn	0.64737 0.28291 0.57045 1.21900
Zn	Zn	0.67837 0.40985 0.38677 1.21900
Zn	Zn	0.72100 0.49845 0.56999 1.22100
O 	O 	0.75840 0.55210 0.59892 -0.48000
O 	O 	0.72804 0.52523 0.66884 -0.34300
O 	O 	0.83617 0.71932 0.59811 -0.48700
O 	O 	0.89352 0.73139 0.65380 -0.36400
O 	O 	0.80670 0.59245 0.81863 -0.48600
O 	O 	0.86722 0.64879 0.81180 -0.33600
O 	O 	0.55166 0.48876 0.55515 -0.78100
O 	O 	0.65043 0.51426 0.57966 -0.72800
O 	O 	0.56337 0.53595 0.47068 -0.72500
O 	O 	0.66133 0.55660 0.49500 -0.59900
O 	O 	0.55070 0.42863 0.63083 -0.62600
O 	O 	0.64725 0.45501 0.65683 -0.49500
O 	O 	0.61708 0.35584 0.64953 -0.58900
O 	O 	0.58156 0.31080 0.57038 -0.71400
O 	O 	0.52281 0.37574 0.55374 -0.72300
O 	O 	0.51086 0.34676 0.46248 -0.62600
O 	O 	0.57684 0.27280 0.48147 -0.60000
O 	O 	0.52926 0.44288 0.46000 -0.78100
O 	O 	0.60703 0.42391 0.39386 -0.72500
O 	O 	0.58490 0.32606 0.39553 -0.48900
O 	O 	0.64108 0.51464 0.40780 -0.60700
O 	O 	0.73632 0.49206 0.50195 -0.71100
O 	O 	0.71908 0.45474 0.42468 -0.71100
O 	O 	0.76946 0.37279 0.44520 -0.59900
O 	O 	0.79024 0.41419 0.53266 -0.60100
O 	O 	0.68103 0.34246 0.41544 -0.72600
O 	O 	0.67218 0.28520 0.50261 -0.73000
O 	O 	0.76506 0.31568 0.52837 -0.52000
O 	O 	0.72567 0.43300 0.60133 -0.72900
O 	O 	0.69585 0.33147 0.59736 -0.72700
C 	C 	0.78552 0.59224 0.66952 -0.14200
C 	C 	0.80739 0.63018 0.64281 0.05600
H 	H 	0.80170 0.63210 0.60920 0.01400
C 	C 	0.83740 0.66513 0.66500 -0.14600
C 	C 	0.84756 0.66070 0.71394 0.04800
H 	H 	0.87040 0.68270 0.72870 0.01600
C 	C 	0.82440 0.62409 0.74146 -0.14000
C 	C 	0.79262 0.59076 0.71923 0.05000
H 	H 	0.77560 0.56680 0.73800 0.01400
C 	C 	0.75439 0.55335 0.64537 0.32500
C 	C 	0.85890 0.70836 0.63797 0.34300
C 	C 	0.83429 0.62203 0.79459 0.32700
Mo	Mo	0.10071 0.96297 0.46678 1.03800
Mo	Mo	0.09319 0.01417 0.38721 1.03900
Mo	Mo	0.05952 0.13620 0.38438 1.10600
Mo	Mo	0.03542 0.18576 0.48540 1.10200
Mo	Mo	0.04685 0.11027 0.58439 1.04000
Mo	Mo	0.07449 0.01719 0.57904 1.03400
Mo	Mo	0.19293 0.98015 0.55095 1.10000
Mo	Mo	0.27109 0.06581 0.52734 1.10200
Mo	Mo	0.22535 0.18350 0.53512 1.04000
Mo	Mo	0.13509 0.20681 0.55780 1.04300
Mo	Mo	0.25382 0.12938 0.42145 1.04500
Mo	Mo	0.18169 0.11074 0.36212 1.04700
Zn	Zn	0.00528 0.05948 0.47299 1.19700
Zn	Zn	0.14737 0.21709 0.42955 1.21900
Zn	Zn	0.17837 0.09015 0.61323 1.21900
Zn	Zn	0.22100 0.00155 0.43001 1.22100
O 	O 	0.25840 0.94790 0.40108 -0.48000
O 	O 	0.22804 0.97477 0.33116 -0.34300
O 	O 	0.33617 0.78068 0.40189 -0.48700
O 	O 	0.39352 0.76861 0.34620 -0.36400
O 	O 	0.30670 0.90755 0.18137 -0.48600
O 	O 	0.36722 0.85121 0.18820 -0.33600
O 	O 	0.05166 0.01124 0.44485 -0.78100
O 	O 	0.15043 0.98574 0.42034 -0.72800
O 	O 	0.06337 0.96405 0.52932 -0.72500
O 	O 	0.16133 0.94340 0.50500 -0.59900
O 	O 	0.05070 0.07137 0.36917 -0.62600
O 	O 	0.14725 0.04499 0.34317 -0.49500
O 	O 	0.11708 0.14416 0.35047 -0.58900
O 	O 	0.08156 0.18920 0.42962 -0.71400
O 	O 	0.02281 0.12426 0.44626 -0.72300
O 	O 	0.01086 0.15324 0.53752 -0.62600
O 	O 	0.07684 0.22720 0.51853 -0.60000
O 	O 	0.02926 0.05712 0.54000 -0.78100
O 	O 	0.10703 0.07609 0.60614 -0.72500
O 	O 	0.08490 0.17394 0.60447 -0.48900
O 	O 	0.14108 0.98536 0.59220 -0.60600
O 	O 	0.23632 0.00794 0.49805 -0.71100
O 	O 	0.21908 0.04526 0.57532 -0.71100
O 	O 	0.26946 0.12721 0.55480 -0.59900
O 	O 	0.29024 0.08581 0.46734 -0.60100
O 	O 	0.18103 0.15754 0.58456 -0.72600
O 	O 	0.17218 0.21480 0.49739 -0.73000
O 	O 	0.26506 0.18432 0.47163 -0.52000
O 	O 	0.22567 0.06700 0.39867 -0.72900
O 	O 	0.19585 0.16853 0.40264 -0.72700
C 	C 	0.28552 0.90776 0.33048 -0.14200
C 	C 	0.30739 0.86982 0.35719 0.05600
H 	H 	0.30170 0.86790 0.39080 0.01400
C 	C 	0.33740 0.83487 0.33500 -0.14600
C 	C 	0.34756 0.83930 0.28606 0.04800
H 	H 	0.37040 0.81730 0.27130 0.01600
C 	C 	0.32440 0.87591 0.25854 -0.14000
C 	C 	0.29262 0.90924 0.28077 0.05000
H 	H 	0.27560 0.93320 0.26200 0.01500
C 	C 	0.25439 0.94665 0.35463 0.32500
C 	C 	0.35890 0.79164 0.36203 0.34300
C 	C 	0.33429 0.87797 0.20541 0.32700
Mo	Mo	0.39929 0.03703 0.96678 1.03800
Mo	Mo	0.40681 0.98583 0.88721 1.03900
Mo	Mo	0.44048 0.86380 0.88438 1.10600
Mo	Mo	0.46458 0.81424 0.98540 1.10200
Mo	Mo	0.45315 0.88973 0.08439 1.04000
Mo	Mo	0.42551 0.98281 0.07904 1.03500
Mo	Mo	0.30707 0.01985 0.05095 1.10000
Mo	Mo	0.22891 0.93419 0.02734 1.10200
Mo	Mo	0.27465 0.81650 0.03512 1.04000
Mo	Mo	0.36491 0.79319 0.05780 1.04300
Mo	Mo	0.24618 0.87062 0.92145 1.04500
Mo	Mo	0.31831 0.88926 0.86212 1.04700
Zn	Zn	0.49472 0.94052 0.97299 1.19700
Zn	Zn	0.35263 0.78291 0.92955 1.21900
Zn	Zn	0.32163 0.90985 0.11323 1.21900
Zn	Zn	0.27900 0.99845 0.93001 1.22100
O 	O 	0.24160 0.05210 0.90108 -0.48000
O 	O 	0.27196 0.02523 0.83116 -0.34300
O 	O 	0.16383 0.21932 0.90189 -0.48700
O 	O 	0.10648 0.23139 0.84620 -0.36400
O 	O 	0.19330 0.09245 0.68137 -0.48600
O 	O 	0.13278 0.14879 0.68820 -0.33600
O 	O 	0.44834 0.98876 0.94485 -0.78100
O 	O 	0.34957 0.01426 0.92034 -0.72800
O 	O 	0.43663 0.03595 0.02932 -0.72500
O 	O 	0.33867 0.05660 0.00500 -0.59900
O 	O 	0.44930 0.92863 0.86917 -0.62600
O 	O 	0.35275 0.95501 0.84317 -0.49400
O 	O 	0.38292 0.85584 0.85047 -0.58900
O 	O 	0.41844 0.81080 0.92962 -0.71400
O 	O 	0.47719 0.87574 0.94626 -0.72300
O 	O 	0.48914 0.84676 0.03752 -0.62600
O 	O 	0.42316 0.77280 0.01853 -0.60000
O 	O 	0.47074 0.94288 0.04000 -0.78100
O 	O 	0.39297 0.92391 0.10614 -0.72500
O 	O 	0.41510 0.82606 0.10447 -0.48900
O 	O 	0.35892 0.01464 0.09220 -0.60700
O 	O 	0.26368 0.99206 0.99805 -0.71100
O 	O 	0.28092 0.95474 0.07532 -0.71100
O 	O 	0.23054 0.87279 0.05480 -0.59900
O 	O 	0.20976 0.91419 0.96734 -0.60100
O 	O 	0.31897 0.84246 0.08456 -0.72600
O 	O 	0.32782 0.78520 0.99739 -0.72900
O 	O 	0.23494 0.81568 0.97163 -0.52000
O 	O 	0.27433 0.93300 0.89867 -0.72900
O 	O 	0.30415 0.83147 0.90264 -0.72700
C 	C 	0.21448 0.09224 0.83048 -0.14200
C 	C 	0.19261 0.13018 0.85719 0.05600
H 	H 	0.19830 0.13210 0.89080 0.01400
C 	C 	0.16260 0.16513 0.83500 -0.14600
C 	C 	0.15244 0.16070 0.78606 0.04800
H 	H 	0.12960 0.18270 0.77130 0.01600
C 	C 	0.17560 0.12409 0.75854 -0.14000
C 	C 	0.20738 0.09076 0.78077 0.05000
H 	H 	0.22440 0.06680 0.76200 0.01500
C 	C 	0.24561 0.05335 0.85463 0.32500
C 	C 	0.14110 0.20836 0.86203 0.34300
C 	C 	0.16571 0.12203 0.70541 0.32700
Mo	Mo	0.10071 0.53703 0.96678 1.03800
Mo	Mo	0.09319 0.48583 0.88721 1.03900
Mo	Mo	0.05952 0.36380 0.88438 1.10600
Mo	Mo	0.03542 0.31424 0.98540 1.10200
Mo	Mo	0.04685 0.38973 0.08439 1.04000
Mo	Mo	0.07449 0.48281 0.07904 1.03500
Mo	Mo	0.19293 0.51985 0.05095 1.10000
Mo	Mo	0.27109 0.43419 0.02734 1.10200
Mo	Mo	0.22535 0.31650 0.03512 1.04000
Mo	Mo	0.13509 0.29319 0.05780 1.04300
Mo	Mo	0.25382 0.37062 0.92145 1.04500
Mo	Mo	0.18169 0.38926 0.86212 1.04700
Zn	Zn	0.00528 0.44052 0.97299 1.19700
Zn	Zn	0.14737 0.28291 0.92955 1.21900
Zn	Zn	0.17837 0.40985 0.11323 1.21900
Zn	Zn	0.22100 0.49845 0.93001 1.22100
O 	O 	0.25840 0.55210 0.90108 -0.48000
O 	O 	0.22804 0.52523 0.83116 -0.34300
O 	O 	0.33617 0.71932 0.90189 -0.48700
O 	O 	0.39352 0.73139 0.84620 -0.36400
O 	O 	0.30670 0.59245 0.68137 -0.48600
O 	O 	0.36722 0.64879 0.68820 -0.33600
O 	O 	0.05166 0.48876 0.94485 -0.78100
O 	O 	0.15043 0.51426 0.92034 -0.72800
O 	O 	0.06337 0.53595 0.02932 -0.72500
O 	O 	0.16133 0.55660 0.00500 -0.59900
O 	O 	0.05070 0.42863 0.86917 -0.62600
O 	O 	0.14725 0.45501 0.84317 -0.49500
O 	O 	0.11708 0.35584 0.85047 -0.58900
O 	O 	0.08156 0.31080 0.92962 -0.71400
O 	O 	0.02281 0.37574 0.94626 -0.72300
O 	O 	0.01086 0.34676 0.03752 -0.62600
O 	O 	0.07684 0.27280 0.01853 -0.60000
O 	O 	0.02926 0.44288 0.04000 -0.78100
O 	O 	0.10703 0.42391 0.10614 -0.72500
O 	O 	0.08490 0.32606 0.10447 -0.48900
O 	O 	0.14108 0.51464 0.09220 -0.60700
O 	O 	0.23632 0.49206 0.99805 -0.71100
O 	O 	0.21908 0.45474 0.07532 -0.71100
O 	O 	0.26946 0.37279 0.05480 -0.59900
O 	O 	0.29024 0.41419 0.96734 -0.60100
O 	O 	0.18103 0.34246 0.08456 -0.72600
O 	O 	0.17218 0.28520 0.99739 -0.73000
O 	O 	0.26506 0.31568 0.97163 -0.52000
O 	O 	0.22567 0.43300 0.89867 -0.72900
O 	O 	0.19585 0.33147 0.90264 -0.72700
C 	C 	0.28552 0.59224 0.83048 -0.14200
C 	C 	0.30739 0.63018 0.85719 0.05600
H 	H 	0.30170 0.63210 0.89080 0.01400
C 	C 	0.33740 0.66513 0.83500 -0.14600
C 	C 	0.34756 0.66070 0.78606 0.04800
H 	H 	0.37040 0.68270 0.77130 0.01600
C 	C 	0.32440 0.62409 0.75854 -0.14000
C 	C 	0.29262 0.59076 0.78077 0.05000
H 	H 	0.27560 0.56680 0.76200 0.01400
C 	C 	0.25439 0.55335 0.85463 0.32500
C 	C 	0.35890 0.70836 0.86203 0.34300
C 	C 	0.33429 0.62203 0.70541 0.32700
Mo	Mo	0.39929 0.46297 0.46678 1.03800
Mo	Mo	0.40681 0.51417 0.38721 1.03900
Mo	Mo	0.44048 0.63620 0.38438 1.10600
Mo	Mo	0.46458 0.68576 0.48540 1.10200
Mo	Mo	0.45315 0.61027 0.58439 1.04000
Mo	Mo	0.42551 0.51719 0.57904 1.03500
Mo	Mo	0.30707 0.48015 0.55095 1.10000
Mo	Mo	0.22891 0.56581 0.52734 1.10200
Mo	Mo	0.27465 0.68350 0.53512 1.04000
Mo	Mo	0.36491 0.70681 0.55780 1.04300
Mo	Mo	0.24618 0.62938 0.42145 1.04500
Mo	Mo	0.31831 0.61074 0.36212 1.04700
Zn	Zn	0.49472 0.55948 0.47299 1.19700
Zn	Zn	0.35263 0.71709 0.42955 1.21900
Zn	Zn	0.32163 0.59015 0.61323 1.21900
Zn	Zn	0.27900 0.50155 0.43001 1.22100
O 	O 	0.24160 0.44790 0.40108 -0.48000
O 	O 	0.27196 0.47477 0.33116 -0.34300
O 	O 	0.16383 0.28068 0.40189 -0.48700
O 	O 	0.10648 0.26861 0.34620 -0.36400
O 	O 	0.19330 0.40755 0.18137 -0.48600
O 	O 	0.13278 0.35121 0.18820 -0.33600
O 	O 	0.44834 0.51124 0.44485 -0.78100
O 	O 	0.34957 0.48574 0.42034 -0.72800
O 	O 	0.43663 0.46405 0.52932 -0.72500
O 	O 	0.33867 0.44340 0.50500 -0.59900
O 	O 	0.44930 0.57137 0.36917 -0.62600
O 	O 	0.35275 0.54499 0.34317 -0.49500
O 	O 	0.38292 0.64416 0.35047 -0.58900
O 	O 	0.41844 0.68920 0.42962 -0.71400
O 	O 	0.47719 0.62426 0.44626 -0.72300
O 	O 	0.48914 0.65324 0.53752 -0.62600
O 	O 	0.42316 0.72720 0.51853 -0.60000
O 	O 	0.47074 0.55712 0.54000 -0.78100
O 	O 	0.39297 0.57609 0.60614 -0.72500
O 	O 	0.41510 0.67394 0.60447 -0.48900
O 	O 	0.35892 0.48536 0.59220 -0.60700
O 	O 	0.26368 0.50794 0.49805 -0.71100
O 	O 	0.28092 0.54526 0.57532 -0.71100
O 	O 	0.23054 0.62721 0.55480 -0.59900
O 	O 	0.20976 0.58581 0.46734 -0.60100
O 	O 	0.31897 0.65754 0.58456 -0.72600
O 	O 	0.32782 0.71480 0.49739 -0.73000
O 	O 	0.23494 0.68432 0.47163 -0.52000
O 	O 	0.27433 0.56700 0.39867 -0.72900
O 	O 	0.30415 0.66853 0.40264 -0.72700
C 	C 	0.21448 0.40776 0.33048 -0.14200
C 	C 	0.19261 0.36982 0.35719 0.05600
H 	H 	0.19830 0.36790 0.39080 0.01400
C 	C 	0.16260 0.33487 0.33500 -0.14600
C 	C 	0.15244 0.33930 0.28606 0.04800
H 	H 	0.12960 0.31730 0.27130 0.01600
C 	C 	0.17560 0.37591 0.25854 -0.14000
C 	C 	0.20738 0.40924 0.28077 0.05000
H 	H 	0.22440 0.43320 0.26200 0.01400
C 	C 	0.24561 0.44665 0.35463 0.32500
C 	C 	0.14110 0.29164 0.36203 0.34300
C 	C 	0.16571 0.37797 0.20541 0.32700
Mo	Mo	0.89929 0.03703 0.53322 1.03800
Mo	Mo	0.90681 0.98583 0.61279 1.03900
Mo	Mo	0.94048 0.86380 0.61562 1.10600
Mo	Mo	0.96458 0.81424 0.51460 1.10200
Mo	Mo	0.95315 0.88973 0.41561 1.04000
Mo	Mo	0.92551 0.98281 0.42096 1.03400
Mo	Mo	0.80707 0.01985 0.44905 1.10000
Mo	Mo	0.72891 0.93419 0.47266 1.10200
Mo	Mo	0.77465 0.81650 0.46488 1.04000
Mo	Mo	0.86491 0.79319 0.44220 1.04300
Mo	Mo	0.74618 0.87062 0.57855 1.04500
Mo	Mo	0.81831 0.88926 0.63788 1.04700
Zn	Zn	0.99472 0.94052 0.52701 1.19700
Zn	Zn	0.85263 0.78291 0.57045 1.21900
Zn	Zn	0.82163 0.90985 0.38677 1.21900
Zn	Zn	0.77900 0.99845 0.56999 1.22100
O 	O 	0.74160 0.05210 0.59892 -0.48000
O 	O 	0.77196 0.02523 0.66884 -0.34300
O 	O 	0.66383 0.21932 0.59811 -0.48700
O 	O 	0.60648 0.23139 0.65380 -0.36400
O 	O 	0.69330 0.09245 0.81863 -0.48600
O 	O 	0.63278 0.14879 0.81180 -0.33600
O 	O 	0.94834 0.98876 0.55515 -0.78100
O 	O 	0.84957 0.01426 0.57966 -0.72800
O 	O 	0.93663 0.03595 0.47068 -0.72500
O 	O 	0.83867 0.05660 0.49500 -0.59900
O 	O 	0.94930 0.92863 0.63083 -0.62600
O 	O 	0.85275 0.95501 0.65683 -0.49500
O 	O 	0.88292 0.85584 0.64953 -0.58900
O 	O 	0.91844 0.81080 0.57038 -0.71400
O 	O 	0.97719 0.87574 0.55374 -0.72300
O 	O 	0.98914 0.84676 0.46248 -0.62600
O 	O 	0.92316 0.77280 0.48147 -0.60000
O 	O 	0.97074 0.94288 0.46000 -0.78100
O 	O 	0.89297 0.92391 0.39386 -0.72500
O 	O 	0.91510 0.82606 0.39553 -0.48900
O 	O 	0.85892 0.01464 0.40780 -0.60600
O 	O 	0.76368 0.99206 0.50195 -0.71100
O 	O 	0.78092 0.95474 0.42468 -0.71100
O 	O 	0.73054 0.87279 0.44520 -0.59900
O 	O 	0.70976 0.91419 0.53266 -0.60100
O 	O 	0.81897 0.84246 0.41544 -0.72600
O 	O 	0.82782 0.78520 0.50261 -0.73000
O 	O 	0.73494 0.81568 0.52837 -0.52000
O 	O 	0.77433 0.93300 0.60133 -0.72900
O 	O 	0.80415 0.83147 0.59736 -0.72700
C 	C 	0.71448 0.09224 0.66952 -0.14200
C 	C 	0.69261 0.13018 0.64281 0.05600
H 	H 	0.69830 0.13210 0.60920 0.01400
C 	C 	0.66260 0.16513 0.66500 -0.14600
C 	C 	0.65244 0.16070 0.71394 0.04800
H 	H 	0.62960 0.18270 0.72870 0.01600
C 	C 	0.67560 0.12409 0.74146 -0.14000
C 	C 	0.70738 0.09076 0.71923 0.05000
H 	H 	0.72440 0.06680 0.73800 0.01500
C 	C 	0.74561 0.05335 0.64537 0.32500
C 	C 	0.64110 0.20836 0.63797 0.34300
C 	C 	0.66571 0.12203 0.79459 0.32700
Mo	Mo	0.60071 0.96297 0.03322 1.03800
Mo	Mo	0.59319 0.01417 0.11279 1.03900
Mo	Mo	0.55952 0.13620 0.11562 1.10600
Mo	Mo	0.53542 0.18576 0.01460 1.10200
Mo	Mo	0.54685 0.11027 0.91561 1.04000
Mo	Mo	0.57449 0.01719 0.92096 1.03500
Mo	Mo	0.69293 0.98015 0.94905 1.10000
Mo	Mo	0.77109 0.06581 0.97266 1.10200
Mo	Mo	0.72535 0.18350 0.96488 1.04000
Mo	Mo	0.63509 0.20681 0.94220 1.04300
Mo	Mo	0.75382 0.12938 0.07855 1.04500
Mo	Mo	0.68169 0.11074 0.13788 1.04700
Zn	Zn	0.50528 0.05948 0.02701 1.19700
Zn	Zn	0.64737 0.21709 0.07045 1.21900
Zn	Zn	0.67837 0.09015 0.88677 1.21900
Zn	Zn	0.72100 0.00155 0.06999 1.22100
O 	O 	0.75840 0.94790 0.09892 -0.48000
O 	O 	0.72804 0.97477 0.16884 -0.34300
O 	O 	0.83617 0.78068 0.09811 -0.48700
O 	O 	0.89352 0.76861 0.15380 -0.36400
O 	O 	0.80670 0.90755 0.31863 -0.48600
O 	O 	0.86722 0.85121 0.31180 -0.33600
O 	O 	0.55166 0.01124 0.05515 -0.78100
O 	O 	0.65043 0.98574 0.07966 -0.72800
O 	O 	0.56337 0.96405 0.97068 -0.72500
O 	O 	0.66133 0.94340 0.99500 -0.59900
O 	O 	0.55070 0.07137 0.13083 -0.62600
O 	O 	0.64725 0.04499 0.15683 -0.49400
O 	O 	0.61708 0.14416 0.14953 -0.58900
O 	O 	0.58156 0.18920 0.07038 -0.71400
O 	O 	0.52281 0.12426 0.05374 -0.72300
O 	O 	0.51086 0.15324 0.96248 -0.62600
O 	O 	0.57684 0.22720 0.98147 -0.60000
O 	O 	0.52926 0.05712 0.96000 -0.78100
O 	O 	0.60703 0.07609 0.89386 -0.72500
O 	O 	0.58490 0.17394 0.89553 -0.48900
O 	O 	0.64108 0.98536 0.90780 -0.60700
O 	O 	0.73632 0.00794 0.00195 -0.71100
O 	O 	0.71908 0.04526 0.92468 -0.71100
O 	O 	0.76946 0.12721 0.94520 -0.59900
O 	O 	0.79024 0.08581 0.03266 -0.60100
O 	O 	0.68103 0.15754 0.91544 -0.72600
O 	O 	0.67218 0.21480 0.00261 -0.72900
O 	O 	0.76506 0.18432 0.02837 -0.52000
O 	O 	0.72567 0.06700 0.10133 -0.72900
O 	O 	0.69585 0.16853 0.09736 -0.72700
C 	C 	0.78552 0.90776 0.16952 -0.14200
C 	C 	0.80739 0.86982 0.14281 0.05600
H 	H 	0.80170 0.86790 0.10920 0.01400
C 	C 	0.83740 0.83487 0.16500 -0.14600
C 	C 	0.84756 0.83930 0.21394 0.04800
H 	H 	0.87040 0.81730 0.22870 0.01600
C 	C 	0.82440 0.87591 0.24146 -0.14000
C 	C 	0.79262 0.90924 0.21923 0.05000
H 	H 	0.77560 0.93320 0.23800 0.01500
C 	C 	0.75439 0.94665 0.14537 0.32500
C 	C 	0.85890 0.79164 0.13797 0.34300
C 	C 	0.83429 0.87797 0.29459 0.32700
