data_crystal

_cell_length_a 27.05840
_cell_length_b 27.24480
_cell_length_c 27.88020
_cell_angle_alpha 90.00000
_cell_angle_beta  90.00000
_cell_angle_gamma 90.00000

_symmetry_space_group_name_	'P 1'
_symmetry_space_group_name_H-M	'P 1'

loop_
_symmetry_equiv_pos_as_xyz
  x,y,z

loop_
_atom_site_label
_atom_site_type_symbol
_atom_site_fract_x
_atom_site_fract_y
_atom_site_fract_z
_atom_site_charge
O 	O 	0.60560 0.89400 0.07460 -0.67600
O 	O 	0.68360 0.81110 0.09160 -0.48900
O 	O 	0.90410 0.75120 0.06440 -0.48300
O 	O 	0.68640 0.86060 0.15480 -0.34400
O 	O 	0.90340 0.81610 0.23350 -0.46500
O 	O 	0.83210 0.72150 0.03880 -0.34500
C 	C 	0.70550 0.83110 0.12760 0.34200
C 	C 	0.83180 0.77420 0.10570 -0.15200
C 	C 	0.85660 0.74660 0.06680 0.33300
C 	C 	0.78260 0.82670 0.17800 0.04300
C 	C 	0.75770 0.81370 0.13470 -0.14800
C 	C 	0.85630 0.78780 0.14720 0.05400
H 	H 	0.89020 0.77970 0.15090 0.01200
C 	C 	0.83200 0.81320 0.18390 -0.13500
C 	C 	0.78140 0.78680 0.10080 0.05900
H 	H 	0.76370 0.77620 0.07320 0.01100
C 	C 	0.85630 0.82840 0.23050 0.30500
O 	O 	0.83450 0.85050 0.26150 -0.38300
H 	H 	0.76500 0.85100 0.20500 0.01600
Mo	Mo	0.57909 0.92850 0.01875 1.07100
Mo	Mo	0.57979 0.95035 0.10993 1.06900
Mo	Mo	0.53328 0.73221 0.05283 1.13100
Mo	Mo	0.53258 0.76798 0.17123 1.08200
Mo	Mo	0.42280 0.74146 0.11191 1.08600
Mo	Mo	0.46770 0.90361 0.96024 1.07200
Mo	Mo	0.55608 0.81383 0.97370 1.12800
Mo	Mo	0.35738 0.81056 0.09440 1.07700
Mo	Mo	0.55284 0.85825 0.19835 1.07900
Mo	Mo	0.38417 0.90553 0.00797 1.07100
Mo	Mo	0.37466 0.93161 0.12743 1.13400
Mo	Mo	0.47554 0.95614 0.17975 1.12800
Zn	Zn	0.46676 0.99211 0.05993 1.20900
Zn	Zn	0.43318 0.78174 0.99027 1.23400
Zn	Zn	0.42121 0.83997 0.20226 1.23100
Zn	Zn	0.61357 0.82307 0.08666 1.23500
P 	P 	0.48491 0.85935 0.08328 0.47200
O 	O 	0.44190 0.94890 0.00860 -0.72600
O 	O 	0.47120 0.73120 0.16180 -0.53900
O 	O 	0.42080 0.85200 0.97750 -0.67400
O 	O 	0.53200 0.94070 0.96420 -0.69400
O 	O 	0.50980 0.87140 0.03390 -0.45300
O 	O 	0.42890 0.87170 0.07920 -0.44900
O 	O 	0.60080 0.91060 0.16980 -0.46500
O 	O 	0.59730 0.86650 0.98350 -0.56600
O 	O 	0.39820 0.79550 0.15120 -0.67900
O 	O 	0.49260 0.81930 0.20130 -0.67700
O 	O 	0.39950 0.77130 0.05150 -0.67500
O 	O 	0.50960 0.84610 0.93870 -0.57100
O 	O 	0.50350 0.76760 0.99630 -0.66200
O 	O 	0.34010 0.84870 0.03260 -0.46900
O 	O 	0.49080 0.80490 0.09540 -0.45300
O 	O 	0.41950 0.90790 0.17900 -0.65600
O 	O 	0.53620 0.97050 0.05760 -0.72600
O 	O 	0.43750 0.97150 0.12030 -0.68200
O 	O 	0.47200 0.70940 0.06720 -0.56800
O 	O 	0.58040 0.78670 0.03640 -0.66500
O 	O 	0.58230 0.81540 0.14940 -0.67500
O 	O 	0.36170 0.94550 0.06440 -0.59200
O 	O 	0.52980 0.98470 0.15220 -0.59100
O 	O 	0.50880 0.91410 0.21890 -0.57000
O 	O 	0.55860 0.73090 0.11300 -0.57100
O 	O 	0.34300 0.87370 0.12980 -0.55900
O 	O 	0.51100 0.89080 0.12260 -0.45200
O 	O 	0.89440 0.10600 0.57460 -0.67700
O 	O 	0.81640 0.18890 0.59160 -0.49000
O 	O 	0.59590 0.24880 0.56440 -0.48400
O 	O 	0.81360 0.13940 0.65480 -0.34500
O 	O 	0.59660 0.18390 0.73350 -0.46500
O 	O 	0.66790 0.27850 0.53880 -0.34500
C 	C 	0.79450 0.16890 0.62760 0.34200
C 	C 	0.66820 0.22580 0.60570 -0.15200
C 	C 	0.64340 0.25340 0.56680 0.33300
C 	C 	0.71740 0.17330 0.67800 0.04300
C 	C 	0.74230 0.18630 0.63470 -0.14800
C 	C 	0.64370 0.21220 0.64720 0.05400
H 	H 	0.60980 0.22030 0.65090 0.01300
C 	C 	0.66800 0.18680 0.68390 -0.13500
C 	C 	0.71860 0.21320 0.60080 0.05900
H 	H 	0.73630 0.22380 0.57320 0.01100
C 	C 	0.64370 0.17160 0.73050 0.30500
O 	O 	0.66550 0.14950 0.76150 -0.38200
H 	H 	0.73500 0.14900 0.70500 0.01600
Mo	Mo	0.92091 0.07150 0.51875 1.07100
Mo	Mo	0.92021 0.04965 0.60993 1.06900
Mo	Mo	0.96672 0.26779 0.55283 1.13100
Mo	Mo	0.96742 0.23202 0.67123 1.08200
Mo	Mo	0.07720 0.25854 0.61191 1.08600
Mo	Mo	0.03230 0.09639 0.46024 1.07200
Mo	Mo	0.94392 0.18617 0.47370 1.12800
Mo	Mo	0.14262 0.18944 0.59440 1.07700
Mo	Mo	0.94716 0.14175 0.69835 1.07900
Mo	Mo	0.11583 0.09447 0.50797 1.07100
Mo	Mo	0.12534 0.06839 0.62743 1.13300
Mo	Mo	0.02446 0.04386 0.67975 1.12700
Zn	Zn	0.03324 0.00789 0.55993 1.20900
Zn	Zn	0.06682 0.21826 0.49027 1.23400
Zn	Zn	0.07879 0.16003 0.70226 1.23000
Zn	Zn	0.88643 0.17693 0.58666 1.23500
P 	P 	0.01509 0.14065 0.58328 0.47000
O 	O 	0.05810 0.05110 0.50860 -0.72600
O 	O 	0.02880 0.26880 0.66180 -0.53900
O 	O 	0.07920 0.14800 0.47750 -0.67400
O 	O 	0.96800 0.05930 0.46420 -0.69300
O 	O 	0.99020 0.12860 0.53390 -0.45200
O 	O 	0.07110 0.12830 0.57920 -0.44900
O 	O 	0.89920 0.08940 0.66980 -0.46500
O 	O 	0.90270 0.13350 0.48350 -0.56700
O 	O 	0.10180 0.20450 0.65120 -0.67900
O 	O 	0.00740 0.18070 0.70130 -0.67800
O 	O 	0.10050 0.22870 0.55150 -0.67500
O 	O 	0.99040 0.15390 0.43870 -0.57100
O 	O 	0.99650 0.23240 0.49630 -0.66200
O 	O 	0.15990 0.15130 0.53260 -0.46900
O 	O 	0.00920 0.19510 0.59540 -0.45300
O 	O 	0.08050 0.09210 0.67900 -0.65600
O 	O 	0.96380 0.02950 0.55760 -0.72600
O 	O 	0.06250 0.02850 0.62030 -0.68300
O 	O 	0.02800 0.29060 0.56720 -0.56900
O 	O 	0.91960 0.21330 0.53640 -0.66500
O 	O 	0.91770 0.18460 0.64940 -0.67500
O 	O 	0.13830 0.05450 0.56440 -0.59200
O 	O 	0.97020 0.01530 0.65220 -0.59000
O 	O 	0.99120 0.08590 0.71890 -0.56900
O 	O 	0.94140 0.26910 0.61300 -0.57100
O 	O 	0.15700 0.12630 0.62980 -0.56000
O 	O 	0.98900 0.10920 0.62260 -0.45200
O 	O 	0.39440 0.39400 0.42540 -0.67700
O 	O 	0.31640 0.31110 0.40840 -0.49000
O 	O 	0.09590 0.25120 0.43560 -0.48400
O 	O 	0.31360 0.36060 0.34520 -0.34500
O 	O 	0.09660 0.31610 0.26650 -0.46500
O 	O 	0.16790 0.22150 0.46120 -0.34500
C 	C 	0.29450 0.33110 0.37240 0.34200
C 	C 	0.16820 0.27420 0.39430 -0.15200
C 	C 	0.14340 0.24660 0.43320 0.33300
C 	C 	0.21740 0.32670 0.32200 0.04300
C 	C 	0.24230 0.31370 0.36530 -0.14800
C 	C 	0.14370 0.28780 0.35280 0.05400
H 	H 	0.10980 0.27970 0.34910 0.01300
C 	C 	0.16800 0.31320 0.31610 -0.13500
C 	C 	0.21860 0.28680 0.39920 0.05900
H 	H 	0.23630 0.27620 0.42680 0.01100
C 	C 	0.14370 0.32840 0.26950 0.30500
O 	O 	0.16550 0.35050 0.23850 -0.38200
H 	H 	0.23500 0.35100 0.29500 0.01600
Mo	Mo	0.42091 0.42850 0.48125 1.07100
Mo	Mo	0.42021 0.45035 0.39007 1.06900
Mo	Mo	0.46672 0.23221 0.44717 1.13100
Mo	Mo	0.46742 0.26798 0.32877 1.08200
Mo	Mo	0.57720 0.24146 0.38809 1.08600
Mo	Mo	0.53230 0.40361 0.53976 1.07200
Mo	Mo	0.44392 0.31383 0.52630 1.12800
Mo	Mo	0.64262 0.31056 0.40560 1.07700
Mo	Mo	0.44716 0.35825 0.30165 1.07900
Mo	Mo	0.61583 0.40553 0.49203 1.07100
Mo	Mo	0.62534 0.43161 0.37257 1.13300
Mo	Mo	0.52446 0.45614 0.32025 1.12800
Zn	Zn	0.53324 0.49211 0.44007 1.20900
Zn	Zn	0.56682 0.28174 0.50973 1.23400
Zn	Zn	0.57879 0.33997 0.29774 1.23100
Zn	Zn	0.38643 0.32307 0.41334 1.23500
P 	P 	0.51509 0.35935 0.41672 0.47200
O 	O 	0.55810 0.44890 0.49140 -0.72600
O 	O 	0.52880 0.23120 0.33820 -0.53900
O 	O 	0.57920 0.35200 0.52250 -0.67400
O 	O 	0.46800 0.44070 0.53580 -0.69400
O 	O 	0.49020 0.37140 0.46610 -0.45300
O 	O 	0.57110 0.37170 0.42080 -0.44900
O 	O 	0.39920 0.41060 0.33020 -0.46500
O 	O 	0.40270 0.36650 0.51650 -0.56700
O 	O 	0.60180 0.29550 0.34880 -0.67900
O 	O 	0.50740 0.31930 0.29870 -0.67700
O 	O 	0.60050 0.27130 0.44850 -0.67500
O 	O 	0.49040 0.34610 0.56130 -0.57100
O 	O 	0.49650 0.26760 0.50370 -0.66200
O 	O 	0.65990 0.34870 0.46740 -0.46900
O 	O 	0.50920 0.30490 0.40460 -0.45300
O 	O 	0.58050 0.40790 0.32100 -0.65600
O 	O 	0.46380 0.47050 0.44240 -0.72600
O 	O 	0.56250 0.47150 0.37970 -0.68200
O 	O 	0.52800 0.20940 0.43280 -0.56800
O 	O 	0.41960 0.28670 0.46360 -0.66500
O 	O 	0.41770 0.31540 0.35060 -0.67500
O 	O 	0.63830 0.44550 0.43560 -0.59200
O 	O 	0.47020 0.48470 0.34780 -0.59100
O 	O 	0.49120 0.41410 0.28110 -0.57000
O 	O 	0.44140 0.23090 0.38700 -0.57100
O 	O 	0.65700 0.37370 0.37020 -0.56000
O 	O 	0.48900 0.39080 0.37740 -0.45200
O 	O 	0.10560 0.60600 0.92540 -0.67700
O 	O 	0.18360 0.68890 0.90840 -0.49000
O 	O 	0.40410 0.74880 0.93560 -0.48400
O 	O 	0.18640 0.63940 0.84520 -0.34500
O 	O 	0.40340 0.68390 0.76650 -0.46500
O 	O 	0.33210 0.77850 0.96120 -0.34500
C 	C 	0.20550 0.66890 0.87240 0.34200
C 	C 	0.33180 0.72580 0.89430 -0.15200
C 	C 	0.35660 0.75340 0.93320 0.33300
C 	C 	0.28260 0.67330 0.82200 0.04300
C 	C 	0.25770 0.68630 0.86530 -0.14800
C 	C 	0.35630 0.71220 0.85280 0.05400
H 	H 	0.39020 0.72030 0.84910 0.01300
C 	C 	0.33200 0.68680 0.81610 -0.13500
C 	C 	0.28140 0.71320 0.89920 0.05900
H 	H 	0.26370 0.72380 0.92680 0.01100
C 	C 	0.35630 0.67160 0.76950 0.30500
O 	O 	0.33450 0.64950 0.73850 -0.38300
H 	H 	0.26500 0.64900 0.79500 0.01600
Mo	Mo	0.07909 0.57150 0.98125 1.07100
Mo	Mo	0.07979 0.54965 0.89007 1.06900
Mo	Mo	0.03328 0.76779 0.94717 1.13100
Mo	Mo	0.03258 0.73202 0.82877 1.08100
Mo	Mo	0.92280 0.75854 0.88809 1.08600
Mo	Mo	0.96770 0.59639 0.03976 1.07100
Mo	Mo	0.05608 0.68617 0.02630 1.12800
Mo	Mo	0.85738 0.68944 0.90560 1.07700
Mo	Mo	0.05284 0.64175 0.80165 1.07900
Mo	Mo	0.88417 0.59447 0.99203 1.07100
Mo	Mo	0.87466 0.56839 0.87257 1.13300
Mo	Mo	0.97554 0.54386 0.82025 1.12800
Zn	Zn	0.96676 0.50789 0.94007 1.21000
Zn	Zn	0.93318 0.71826 0.00973 1.23400
Zn	Zn	0.92121 0.66003 0.79774 1.23100
Zn	Zn	0.11357 0.67693 0.91334 1.23500
P 	P 	0.98491 0.64065 0.91672 0.47300
O 	O 	0.94190 0.55110 0.99140 -0.72500
O 	O 	0.97120 0.76880 0.83820 -0.53900
O 	O 	0.92080 0.64800 0.02250 -0.67400
O 	O 	0.03200 0.55930 0.03580 -0.69300
O 	O 	0.00980 0.62860 0.96610 -0.45300
O 	O 	0.92890 0.62830 0.92080 -0.44900
O 	O 	0.10080 0.58940 0.83020 -0.46500
O 	O 	0.09730 0.63350 0.01650 -0.56600
O 	O 	0.89820 0.70450 0.84880 -0.67900
O 	O 	0.99260 0.68070 0.79870 -0.67700
O 	O 	0.89950 0.72870 0.94850 -0.67500
O 	O 	0.00960 0.65390 0.06130 -0.57100
O 	O 	0.00350 0.73240 0.00370 -0.66100
O 	O 	0.84010 0.65130 0.96740 -0.46900
O 	O 	0.99080 0.69510 0.90460 -0.45300
O 	O 	0.91950 0.59210 0.82100 -0.65600
O 	O 	0.03620 0.52950 0.94240 -0.72700
O 	O 	0.93750 0.52850 0.87970 -0.68200
O 	O 	0.97200 0.79060 0.93280 -0.56800
O 	O 	0.08040 0.71330 0.96360 -0.66600
O 	O 	0.08230 0.68460 0.85060 -0.67500
O 	O 	0.86170 0.55450 0.93560 -0.59200
O 	O 	0.02980 0.51530 0.84780 -0.59200
O 	O 	0.00880 0.58590 0.78110 -0.57000
O 	O 	0.05860 0.76910 0.88700 -0.57100
O 	O 	0.84300 0.62630 0.87020 -0.55900
O 	O 	0.01100 0.60920 0.87740 -0.45300
O 	O 	0.39440 0.10600 0.92540 -0.67700
O 	O 	0.31640 0.18890 0.90840 -0.49000
O 	O 	0.09590 0.24880 0.93560 -0.48400
O 	O 	0.31360 0.13940 0.84520 -0.34500
O 	O 	0.09660 0.18390 0.76650 -0.46500
O 	O 	0.16790 0.27850 0.96120 -0.34500
C 	C 	0.29450 0.16890 0.87240 0.34200
C 	C 	0.16820 0.22580 0.89430 -0.15200
C 	C 	0.14340 0.25340 0.93320 0.33300
C 	C 	0.21740 0.17330 0.82200 0.04300
C 	C 	0.24230 0.18630 0.86530 -0.14800
C 	C 	0.14370 0.21220 0.85280 0.05400
H 	H 	0.10980 0.22030 0.84910 0.01200
C 	C 	0.16800 0.18680 0.81610 -0.13500
C 	C 	0.21860 0.21320 0.89920 0.05900
H 	H 	0.23630 0.22380 0.92680 0.01100
C 	C 	0.14370 0.17160 0.76950 0.30500
O 	O 	0.16550 0.14950 0.73850 -0.38300
H 	H 	0.23500 0.14900 0.79500 0.01600
Mo	Mo	0.42091 0.07150 0.98125 1.07100
Mo	Mo	0.42021 0.04965 0.89007 1.06900
Mo	Mo	0.46672 0.26779 0.94717 1.13100
Mo	Mo	0.46742 0.23202 0.82877 1.08200
Mo	Mo	0.57720 0.25854 0.88809 1.08600
Mo	Mo	0.53230 0.09639 0.03976 1.07200
Mo	Mo	0.44392 0.18617 0.02630 1.12800
Mo	Mo	0.64262 0.18944 0.90560 1.07700
Mo	Mo	0.44716 0.14175 0.80165 1.07900
Mo	Mo	0.61583 0.09447 0.99203 1.07100
Mo	Mo	0.62534 0.06839 0.87257 1.13400
Mo	Mo	0.52446 0.04386 0.82025 1.12800
Zn	Zn	0.53324 0.00789 0.94007 1.20900
Zn	Zn	0.56682 0.21826 0.00973 1.23400
Zn	Zn	0.57879 0.16003 0.79774 1.23100
Zn	Zn	0.38643 0.17693 0.91334 1.23500
P 	P 	0.51509 0.14065 0.91672 0.47200
O 	O 	0.55810 0.05110 0.99140 -0.72600
O 	O 	0.52880 0.26880 0.83820 -0.53900
O 	O 	0.57920 0.14800 0.02250 -0.67400
O 	O 	0.46800 0.05930 0.03580 -0.69400
O 	O 	0.49020 0.12860 0.96610 -0.45300
O 	O 	0.57110 0.12830 0.92080 -0.44900
O 	O 	0.39920 0.08940 0.83020 -0.46500
O 	O 	0.40270 0.13350 0.01650 -0.56600
O 	O 	0.60180 0.20450 0.84880 -0.67900
O 	O 	0.50740 0.18070 0.79870 -0.67700
O 	O 	0.60050 0.22870 0.94850 -0.67500
O 	O 	0.49040 0.15390 0.06130 -0.57100
O 	O 	0.49650 0.23240 0.00370 -0.66200
O 	O 	0.65990 0.15130 0.96740 -0.46900
O 	O 	0.50920 0.19510 0.90460 -0.45300
O 	O 	0.58050 0.09210 0.82100 -0.65600
O 	O 	0.46380 0.02950 0.94240 -0.72600
O 	O 	0.56250 0.02850 0.87970 -0.68200
O 	O 	0.52800 0.29060 0.93280 -0.56800
O 	O 	0.41960 0.21330 0.96360 -0.66500
O 	O 	0.41770 0.18460 0.85060 -0.67500
O 	O 	0.63830 0.05450 0.93560 -0.59200
O 	O 	0.47020 0.01530 0.84780 -0.59100
O 	O 	0.49120 0.08590 0.78110 -0.57000
O 	O 	0.44140 0.26910 0.88700 -0.57100
O 	O 	0.65700 0.12630 0.87020 -0.55900
O 	O 	0.48900 0.10920 0.87740 -0.45200
O 	O 	0.10560 0.89400 0.42540 -0.67700
O 	O 	0.18360 0.81110 0.40840 -0.49000
O 	O 	0.40410 0.75120 0.43560 -0.48400
O 	O 	0.18640 0.86060 0.34520 -0.34500
O 	O 	0.40340 0.81610 0.26650 -0.46500
O 	O 	0.33210 0.72150 0.46120 -0.34500
C 	C 	0.20550 0.83110 0.37240 0.34200
C 	C 	0.33180 0.77420 0.39430 -0.15200
C 	C 	0.35660 0.74660 0.43320 0.33300
C 	C 	0.28260 0.82670 0.32200 0.04300
C 	C 	0.25770 0.81370 0.36530 -0.14800
C 	C 	0.35630 0.78780 0.35280 0.05400
H 	H 	0.39020 0.77970 0.34910 0.01300
C 	C 	0.33200 0.81320 0.31610 -0.13500
C 	C 	0.28140 0.78680 0.39920 0.05900
H 	H 	0.26370 0.77620 0.42680 0.01100
C 	C 	0.35630 0.82840 0.26950 0.30500
O 	O 	0.33450 0.85050 0.23850 -0.38200
H 	H 	0.26500 0.85100 0.29500 0.01600
Mo	Mo	0.07909 0.92850 0.48125 1.07100
Mo	Mo	0.07979 0.95035 0.39007 1.06900
Mo	Mo	0.03328 0.73221 0.44717 1.13100
Mo	Mo	0.03258 0.76798 0.32877 1.08200
Mo	Mo	0.92280 0.74146 0.38809 1.08600
Mo	Mo	0.96770 0.90361 0.53976 1.07200
Mo	Mo	0.05608 0.81383 0.52630 1.12800
Mo	Mo	0.85738 0.81056 0.40560 1.07700
Mo	Mo	0.05284 0.85825 0.30165 1.07900
Mo	Mo	0.88417 0.90553 0.49203 1.07100
Mo	Mo	0.87466 0.93161 0.37257 1.13300
Mo	Mo	0.97554 0.95614 0.32025 1.12700
Zn	Zn	0.96676 0.99211 0.44007 1.20900
Zn	Zn	0.93318 0.78174 0.50973 1.23400
Zn	Zn	0.92121 0.83997 0.29774 1.23000
Zn	Zn	0.11357 0.82307 0.41334 1.23500
P 	P 	0.98491 0.85935 0.41672 0.47000
O 	O 	0.94190 0.94890 0.49140 -0.72600
O 	O 	0.97120 0.73120 0.33820 -0.53900
O 	O 	0.92080 0.85200 0.52250 -0.67400
O 	O 	0.03200 0.94070 0.53580 -0.69300
O 	O 	0.00980 0.87140 0.46610 -0.45200
O 	O 	0.92890 0.87170 0.42080 -0.44900
O 	O 	0.10080 0.91060 0.33020 -0.46500
O 	O 	0.09730 0.86650 0.51650 -0.56700
O 	O 	0.89820 0.79550 0.34880 -0.67900
O 	O 	0.99260 0.81930 0.29870 -0.67800
O 	O 	0.89950 0.77130 0.44850 -0.67500
O 	O 	0.00960 0.84610 0.56130 -0.57100
O 	O 	0.00350 0.76760 0.50370 -0.66200
O 	O 	0.84010 0.84870 0.46740 -0.46900
O 	O 	0.99080 0.80490 0.40460 -0.45300
O 	O 	0.91950 0.90790 0.32100 -0.65600
O 	O 	0.03620 0.97050 0.44240 -0.72600
O 	O 	0.93750 0.97150 0.37970 -0.68300
O 	O 	0.97200 0.70940 0.43280 -0.56900
O 	O 	0.08040 0.78670 0.46360 -0.66500
O 	O 	0.08230 0.81540 0.35060 -0.67500
O 	O 	0.86170 0.94550 0.43560 -0.59200
O 	O 	0.02980 0.98470 0.34780 -0.59000
O 	O 	0.00880 0.91410 0.28110 -0.56900
O 	O 	0.05860 0.73090 0.38700 -0.57100
O 	O 	0.84300 0.87370 0.37020 -0.56000
O 	O 	0.01100 0.89080 0.37740 -0.45200
O 	O 	0.60560 0.60600 0.57460 -0.67700
O 	O 	0.68360 0.68890 0.59160 -0.49000
O 	O 	0.90410 0.74880 0.56440 -0.48400
O 	O 	0.68640 0.63940 0.65480 -0.34500
O 	O 	0.90340 0.68390 0.73350 -0.46500
O 	O 	0.83210 0.77850 0.53880 -0.34500
C 	C 	0.70550 0.66890 0.62760 0.34200
C 	C 	0.83180 0.72580 0.60570 -0.15200
C 	C 	0.85660 0.75340 0.56680 0.33300
C 	C 	0.78260 0.67330 0.67800 0.04300
C 	C 	0.75770 0.68630 0.63470 -0.14800
C 	C 	0.85630 0.71220 0.64720 0.05400
H 	H 	0.89020 0.72030 0.65090 0.01300
C 	C 	0.83200 0.68680 0.68390 -0.13500
C 	C 	0.78140 0.71320 0.60080 0.05900
H 	H 	0.76370 0.72380 0.57320 0.01100
C 	C 	0.85630 0.67160 0.73050 0.30500
O 	O 	0.83450 0.64950 0.76150 -0.38200
H 	H 	0.76500 0.64900 0.70500 0.01600
Mo	Mo	0.57909 0.57150 0.51875 1.07100
Mo	Mo	0.57979 0.54965 0.60993 1.06900
Mo	Mo	0.53328 0.76779 0.55283 1.13100
Mo	Mo	0.53258 0.73202 0.67123 1.08200
Mo	Mo	0.42280 0.75854 0.61191 1.08600
Mo	Mo	0.46770 0.59639 0.46024 1.07200
Mo	Mo	0.55608 0.68617 0.47370 1.12800
Mo	Mo	0.35738 0.68944 0.59440 1.07700
Mo	Mo	0.55284 0.64175 0.69835 1.07900
Mo	Mo	0.38417 0.59447 0.50797 1.07100
Mo	Mo	0.37466 0.56839 0.62743 1.13300
Mo	Mo	0.47554 0.54386 0.67975 1.12800
Zn	Zn	0.46676 0.50789 0.55993 1.20900
Zn	Zn	0.43318 0.71826 0.49027 1.23400
Zn	Zn	0.42121 0.66003 0.70226 1.23100
Zn	Zn	0.61357 0.67693 0.58666 1.23500
P 	P 	0.48491 0.64065 0.58328 0.47200
O 	O 	0.44190 0.55110 0.50860 -0.72600
O 	O 	0.47120 0.76880 0.66180 -0.53900
O 	O 	0.42080 0.64800 0.47750 -0.67400
O 	O 	0.53200 0.55930 0.46420 -0.69400
O 	O 	0.50980 0.62860 0.53390 -0.45300
O 	O 	0.42890 0.62830 0.57920 -0.44900
O 	O 	0.60080 0.58940 0.66980 -0.46500
O 	O 	0.59730 0.63350 0.48350 -0.56700
O 	O 	0.39820 0.70450 0.65120 -0.67900
O 	O 	0.49260 0.68070 0.70130 -0.67700
O 	O 	0.39950 0.72870 0.55150 -0.67500
O 	O 	0.50960 0.65390 0.43870 -0.57100
O 	O 	0.50350 0.73240 0.49630 -0.66200
O 	O 	0.34010 0.65130 0.53260 -0.46900
O 	O 	0.49080 0.69510 0.59540 -0.45300
O 	O 	0.41950 0.59210 0.67900 -0.65600
O 	O 	0.53620 0.52950 0.55760 -0.72600
O 	O 	0.43750 0.52850 0.62030 -0.68200
O 	O 	0.47200 0.79060 0.56720 -0.56800
O 	O 	0.58040 0.71330 0.53640 -0.66500
O 	O 	0.58230 0.68460 0.64940 -0.67500
O 	O 	0.36170 0.55450 0.56440 -0.59200
O 	O 	0.52980 0.51530 0.65220 -0.59100
O 	O 	0.50880 0.58590 0.71890 -0.57000
O 	O 	0.55860 0.76910 0.61300 -0.57100
O 	O 	0.34300 0.62630 0.62980 -0.56000
O 	O 	0.51100 0.60920 0.62260 -0.45200
O 	O 	0.89440 0.39400 0.07460 -0.67700
O 	O 	0.81640 0.31110 0.09160 -0.49000
O 	O 	0.59590 0.25120 0.06440 -0.48400
O 	O 	0.81360 0.36060 0.15480 -0.34500
O 	O 	0.59660 0.31610 0.23350 -0.46500
O 	O 	0.66790 0.22150 0.03880 -0.34500
C 	C 	0.79450 0.33110 0.12760 0.34200
C 	C 	0.66820 0.27420 0.10570 -0.15200
C 	C 	0.64340 0.24660 0.06680 0.33300
C 	C 	0.71740 0.32670 0.17800 0.04300
C 	C 	0.74230 0.31370 0.13470 -0.14800
C 	C 	0.64370 0.28780 0.14720 0.05400
H 	H 	0.60980 0.27970 0.15090 0.01300
C 	C 	0.66800 0.31320 0.18390 -0.13500
C 	C 	0.71860 0.28680 0.10080 0.05900
H 	H 	0.73630 0.27620 0.07320 0.01100
C 	C 	0.64370 0.32840 0.23050 0.30500
O 	O 	0.66550 0.35050 0.26150 -0.38300
H 	H 	0.73500 0.35100 0.20500 0.01600
Mo	Mo	0.92091 0.42850 0.01875 1.07100
Mo	Mo	0.92021 0.45035 0.10993 1.06900
Mo	Mo	0.96672 0.23221 0.05283 1.13100
Mo	Mo	0.96742 0.26798 0.17123 1.08100
Mo	Mo	0.07720 0.24146 0.11191 1.08600
Mo	Mo	0.03230 0.40361 0.96024 1.07100
Mo	Mo	0.94392 0.31383 0.97370 1.12800
Mo	Mo	0.14262 0.31056 0.09440 1.07700
Mo	Mo	0.94716 0.35825 0.19835 1.07900
Mo	Mo	0.11583 0.40553 0.00797 1.07100
Mo	Mo	0.12534 0.43161 0.12743 1.13300
Mo	Mo	0.02446 0.45614 0.17975 1.12800
Zn	Zn	0.03324 0.49211 0.05993 1.21000
Zn	Zn	0.06682 0.28174 0.99027 1.23400
Zn	Zn	0.07879 0.33997 0.20226 1.23100
Zn	Zn	0.88643 0.32307 0.08666 1.23500
P 	P 	0.01509 0.35935 0.08328 0.47300
O 	O 	0.05810 0.44890 0.00860 -0.72500
O 	O 	0.02880 0.23120 0.16180 -0.53900
O 	O 	0.07920 0.35200 0.97750 -0.67400
O 	O 	0.96800 0.44070 0.96420 -0.69300
O 	O 	0.99020 0.37140 0.03390 -0.45300
O 	O 	0.07110 0.37170 0.07920 -0.44900
O 	O 	0.89920 0.41060 0.16980 -0.46500
O 	O 	0.90270 0.36650 0.98350 -0.56600
O 	O 	0.10180 0.29550 0.15120 -0.67900
O 	O 	0.00740 0.31930 0.20130 -0.67700
O 	O 	0.10050 0.27130 0.05150 -0.67500
O 	O 	0.99040 0.34610 0.93870 -0.57100
O 	O 	0.99650 0.26760 0.99630 -0.66100
O 	O 	0.15990 0.34870 0.03260 -0.46900
O 	O 	0.00920 0.30490 0.09540 -0.45300
O 	O 	0.08050 0.40790 0.17900 -0.65600
O 	O 	0.96380 0.47050 0.05760 -0.72700
O 	O 	0.06250 0.47150 0.12030 -0.68200
O 	O 	0.02800 0.20940 0.06720 -0.56800
O 	O 	0.91960 0.28670 0.03640 -0.66600
O 	O 	0.91770 0.31540 0.14940 -0.67500
O 	O 	0.13830 0.44550 0.06440 -0.59200
O 	O 	0.97020 0.48470 0.15220 -0.59200
O 	O 	0.99120 0.41410 0.21890 -0.57000
O 	O 	0.94140 0.23090 0.11300 -0.57100
O 	O 	0.15700 0.37370 0.12980 -0.55900
O 	O 	0.98900 0.39080 0.12260 -0.45300
