data_crystal

_cell_length_a 6.84300
_cell_length_b 10.97800
_cell_length_c 12.68700
_cell_angle_alpha 90.00000
_cell_angle_beta  90.00000
_cell_angle_gamma 90.00000

_symmetry_space_group_name_	'P 1'
_symmetry_space_group_name_H-M	'P 1'

loop_
_symmetry_equiv_pos_as_xyz
  x,y,z

loop_
_atom_site_label
_atom_site_type_symbol
_atom_site_fract_x
_atom_site_fract_y
_atom_site_fract_z
_atom_site_charge
N 	N 	0.98400 0.89020 0.79180 -0.17600
N 	N 	0.86520 0.91070 0.53250 -0.15600
C 	C 	0.98650 0.92410 0.70670 0.04500
C 	C 	0.99250 0.96410 0.59840 0.01300
C 	C 	0.87390 0.94780 0.43280 -0.00500
H 	H 	0.78100 0.91210 0.37870 0.01500
N 	N 	0.01600 0.39020 0.20820 -0.17500
N 	N 	0.13480 0.41070 0.46750 -0.15500
C 	C 	0.01350 0.42410 0.29330 0.04500
C 	C 	0.00750 0.46410 0.40160 0.01300
C 	C 	0.12610 0.44780 0.56720 -0.00500
H 	H 	0.21900 0.41210 0.62130 0.01500
N 	N 	0.01600 0.10980 0.20820 -0.17500
N 	N 	0.13480 0.08930 0.46750 -0.15500
C 	C 	0.01350 0.07590 0.29330 0.04600
C 	C 	0.00750 0.03590 0.40160 0.01400
C 	C 	0.12610 0.05220 0.56720 -0.00500
H 	H 	0.21900 0.08790 0.62130 0.01500
N 	N 	0.98400 0.60980 0.79180 -0.17500
N 	N 	0.86520 0.58930 0.53250 -0.15500
C 	C 	0.98650 0.57590 0.70670 0.04500
C 	C 	0.99250 0.53590 0.59840 0.01300
C 	C 	0.87390 0.55220 0.43280 -0.00500
H 	H 	0.78100 0.58790 0.37870 0.01500
Ag	Ag	0.87213 0.25000 0.08328 0.52500
Ag	Ag	0.12787 0.75000 0.91672 0.52500
N 	N 	0.51600 0.10980 0.29180 -0.17600
N 	N 	0.63480 0.08930 0.03250 -0.15600
C 	C 	0.51350 0.07590 0.20670 0.04500
C 	C 	0.50750 0.03590 0.09840 0.01300
C 	C 	0.62610 0.05220 0.93280 -0.00500
H 	H 	0.71900 0.08790 0.87870 0.01500
N 	N 	0.48400 0.60980 0.70820 -0.17600
N 	N 	0.36520 0.58930 0.96750 -0.15600
C 	C 	0.48650 0.57590 0.79330 0.04500
C 	C 	0.49250 0.53590 0.90160 0.01300
C 	C 	0.37390 0.55220 0.06720 -0.00400
H 	H 	0.28100 0.58790 0.12130 0.01500
N 	N 	0.48400 0.89020 0.70820 -0.17600
N 	N 	0.36520 0.91070 0.96750 -0.15600
C 	C 	0.48650 0.92410 0.79330 0.04500
C 	C 	0.49250 0.96410 0.90160 0.01300
C 	C 	0.37390 0.94780 0.06720 -0.00500
H 	H 	0.28100 0.91210 0.12130 0.01500
N 	N 	0.51600 0.39020 0.29180 -0.17600
N 	N 	0.63480 0.41070 0.03250 -0.15600
C 	C 	0.51350 0.42410 0.20670 0.04500
C 	C 	0.50750 0.46410 0.09840 0.01300
C 	C 	0.62610 0.44780 0.93280 -0.00400
H 	H 	0.71900 0.41210 0.87870 0.01500
Ag	Ag	0.62787 0.75000 0.58328 0.52600
Ag	Ag	0.37213 0.25000 0.41672 0.52600
