data_crystal

_cell_length_a 9.50600
_cell_length_b 15.48200
_cell_length_c 12.49800
_cell_angle_alpha 90.00000
_cell_angle_beta  94.95400
_cell_angle_gamma 90.00000

_symmetry_space_group_name_	'P 1'
_symmetry_space_group_name_H-M	'P 1'

loop_
_symmetry_equiv_pos_as_xyz
  x,y,z

loop_
_atom_site_label
_atom_site_type_symbol
_atom_site_fract_x
_atom_site_fract_y
_atom_site_fract_z
_atom_site_charge
Zn	Zn	0.14014 0.08367 0.45719 1.24100
C 	C 	0.27180 0.88980 0.68540 -0.11600
C 	C 	0.41020 0.90210 0.66160 0.05500
H 	H 	0.43110 0.94430 0.61240 0.05400
C 	C 	0.51830 0.85140 0.71160 -0.08900
C 	C 	0.48700 0.79090 0.78790 0.04200
H 	H 	0.55910 0.75780 0.82200 0.05500
C 	C 	0.34840 0.77910 0.81410 -0.09100
C 	C 	0.24170 0.82840 0.76180 0.05200
H 	H 	0.14880 0.82040 0.77790 0.05400
C 	C 	0.15250 0.93600 0.62060 0.42200
C 	C 	0.66600 0.85850 0.67560 0.34400
C 	C 	0.31270 0.71030 0.89280 0.34100
O 	O 	0.18690 0.97960 0.54330 -0.47900
O 	O 	0.02920 0.92380 0.64530 -0.46200
O 	O 	0.18950 0.68940 0.89910 -0.28500
O 	O 	0.41630 0.67580 0.94830 -0.43200
O 	O 	0.75190 0.79960 0.69830 -0.27700
O 	O 	0.69040 0.92290 0.61920 -0.42400
Zn	Zn	0.35986 0.58367 0.04281 1.24100
C 	C 	0.22820 0.38980 0.81460 -0.11700
C 	C 	0.08980 0.40210 0.83840 0.05500
H 	H 	0.06890 0.44430 0.88760 0.05500
C 	C 	0.98170 0.35140 0.78840 -0.08800
C 	C 	0.01300 0.29090 0.71210 0.03900
H 	H 	0.94090 0.25780 0.67800 0.05700
C 	C 	0.15160 0.27910 0.68590 -0.09100
C 	C 	0.25830 0.32840 0.73820 0.05200
H 	H 	0.35120 0.32040 0.72210 0.05300
C 	C 	0.34750 0.43600 0.87940 0.42200
C 	C 	0.83400 0.35850 0.82440 0.34300
C 	C 	0.18730 0.21030 0.60720 0.34000
O 	O 	0.31310 0.47960 0.95670 -0.48000
O 	O 	0.47080 0.42380 0.85470 -0.46500
O 	O 	0.31050 0.18940 0.60090 -0.28700
O 	O 	0.08370 0.17580 0.55170 -0.43400
O 	O 	0.74810 0.29960 0.80170 -0.27600
O 	O 	0.80960 0.42290 0.88080 -0.42300
Zn	Zn	0.85986 0.91633 0.54281 1.24000
C 	C 	0.72820 0.11020 0.31460 -0.11700
C 	C 	0.58980 0.09790 0.33840 0.05500
H 	H 	0.56890 0.05570 0.38760 0.05400
C 	C 	0.48170 0.14860 0.28840 -0.08900
C 	C 	0.51300 0.20910 0.21210 0.04200
H 	H 	0.44090 0.24220 0.17800 0.05500
C 	C 	0.65160 0.22090 0.18590 -0.09100
C 	C 	0.75830 0.17160 0.23820 0.05200
H 	H 	0.85120 0.17960 0.22210 0.05400
C 	C 	0.84750 0.06400 0.37940 0.42200
C 	C 	0.33400 0.14150 0.32440 0.34400
C 	C 	0.68730 0.28970 0.10720 0.34100
O 	O 	0.81310 0.02040 0.45670 -0.47900
O 	O 	0.97080 0.07620 0.35470 -0.46200
O 	O 	0.81050 0.31060 0.10090 -0.28500
O 	O 	0.58370 0.32420 0.05170 -0.43200
O 	O 	0.24810 0.20040 0.30170 -0.27700
O 	O 	0.30960 0.07710 0.38080 -0.42400
Zn	Zn	0.64014 0.41633 0.95719 1.24100
C 	C 	0.77180 0.61020 0.18540 -0.11700
C 	C 	0.91020 0.59790 0.16160 0.05500
H 	H 	0.93110 0.55570 0.11240 0.05500
C 	C 	0.01830 0.64860 0.21160 -0.08800
C 	C 	0.98700 0.70910 0.28790 0.03900
H 	H 	0.05910 0.74220 0.32200 0.05700
C 	C 	0.84840 0.72090 0.31410 -0.09100
C 	C 	0.74170 0.67160 0.26180 0.05200
H 	H 	0.64880 0.67960 0.27790 0.05300
C 	C 	0.65250 0.56400 0.12060 0.42200
C 	C 	0.16600 0.64150 0.17560 0.34300
C 	C 	0.81270 0.78970 0.39280 0.34000
O 	O 	0.68690 0.52040 0.04330 -0.48000
O 	O 	0.52920 0.57620 0.14530 -0.46500
O 	O 	0.68950 0.81060 0.39910 -0.28700
O 	O 	0.91630 0.82420 0.44830 -0.43400
O 	O 	0.25190 0.70040 0.19830 -0.27600
O 	O 	0.19040 0.57710 0.11920 -0.42300
