data_crystal

_cell_length_a 10.82330
_cell_length_b 10.82330
_cell_length_c 16.79600
_cell_angle_alpha 95.72810
_cell_angle_beta  95.72810
_cell_angle_gamma 102.04500

_symmetry_space_group_name_	'P 1'
_symmetry_space_group_name_H-M	'P 1'

loop_
_symmetry_equiv_pos_as_xyz
  x,y,z

loop_
_atom_site_label
_atom_site_type_symbol
_atom_site_fract_x
_atom_site_fract_y
_atom_site_fract_z
_atom_site_charge
Co	Co	0.04769 0.54403 0.83609 1.17400
Co	Co	0.95231 0.45597 0.16391 1.17400
H 	H 	0.76570 0.13450 0.86600 0.15700
H 	H 	0.10590 0.04570 0.89020 0.05600
H 	H 	0.92330 0.79010 0.02020 0.05100
H 	H 	0.54150 0.69270 0.94780 0.05800
H 	H 	0.30600 0.36040 0.96490 0.05200
H 	H 	0.00320 0.67040 0.59600 0.06900
H 	H 	0.02770 0.30790 0.53810 0.05200
H 	H 	0.84680 0.47300 0.96310 0.04000
H 	H 	0.71900 0.27200 0.97080 0.01300
H 	H 	0.92610 0.24530 0.79630 -0.01400
H 	H 	0.23430 0.86550 0.13400 0.15800
H 	H 	0.89410 0.95430 0.10980 0.05700
H 	H 	0.07670 0.20990 0.97980 0.05200
H 	H 	0.45850 0.30730 0.05220 0.05900
H 	H 	0.69400 0.63960 0.03510 0.05300
H 	H 	0.99680 0.32960 0.40400 0.07000
H 	H 	0.97230 0.69210 0.46190 0.05300
H 	H 	0.15320 0.52700 0.03690 0.04100
H 	H 	0.28100 0.72800 0.02920 0.01300
H 	H 	0.07390 0.75470 0.20370 -0.01400
C 	C 	0.06340 0.02700 0.93450 -0.01900
C 	C 	0.01990 0.90230 0.94530 -0.06800
C 	C 	0.95420 0.87420 0.01220 -0.02000
C 	C 	0.04680 0.79620 0.88930 0.33200
C 	C 	0.52470 0.61510 0.96860 -0.02400
C 	C 	0.40800 0.53100 0.94690 -0.05900
C 	C 	0.38450 0.41670 0.97910 -0.02100
C 	C 	0.30700 0.56580 0.88980 0.32700
C 	C 	0.00190 0.60190 0.55760 -0.02400
C 	C 	0.01890 0.48470 0.58250 -0.05800
C 	C 	0.01650 0.38550 0.52300 -0.02100
C 	C 	0.03440 0.46700 0.66860 0.32000
C 	C 	0.84470 0.40030 0.92790 -0.03200
C 	C 	0.77560 0.29160 0.93340 0.07100
C 	C 	0.88880 0.28060 0.83780 0.14500
C 	C 	0.93660 0.97300 0.06550 -0.01900
C 	C 	0.98010 0.09770 0.05470 -0.06800
C 	C 	0.04580 0.12580 0.98780 -0.02000
C 	C 	0.95320 0.20380 0.11070 0.33200
C 	C 	0.47530 0.38490 0.03140 -0.02400
C 	C 	0.59200 0.46900 0.05310 -0.05900
C 	C 	0.61550 0.58330 0.02090 -0.02100
C 	C 	0.69300 0.43420 0.11020 0.32700
C 	C 	0.99810 0.39810 0.44240 -0.02400
C 	C 	0.98110 0.51530 0.41750 -0.05800
C 	C 	0.98350 0.61450 0.47700 -0.02100
C 	C 	0.96560 0.53300 0.33140 0.32000
C 	C 	0.15530 0.59970 0.07210 -0.03200
C 	C 	0.22440 0.70840 0.06660 0.07100
C 	C 	0.11120 0.71940 0.16220 0.14500
N 	N 	0.91510 0.39910 0.86530 -0.24400
N 	N 	0.80020 0.21440 0.87680 -0.23000
N 	N 	0.08490 0.60090 0.13470 -0.24400
N 	N 	0.19980 0.78560 0.12320 -0.23000
O 	O 	0.99360 0.68380 0.89700 -0.42800
O 	O 	0.11730 0.82510 0.83900 -0.26800
O 	O 	0.19730 0.49590 0.88620 -0.43700
O 	O 	0.33630 0.65710 0.85170 -0.25900
O 	O 	0.04987 0.56653 0.72100 -0.39500
O 	O 	0.02530 0.35950 0.68870 -0.30400
O 	O 	0.00640 0.31620 0.10300 -0.42800
O 	O 	0.88270 0.17490 0.16100 -0.26800
O 	O 	0.80270 0.50410 0.11380 -0.43700
O 	O 	0.66370 0.34290 0.14830 -0.25900
O 	O 	0.95013 0.43347 0.27900 -0.39500
O 	O 	0.97470 0.64050 0.31130 -0.30400
Co	Co	0.45597 0.95231 0.66391 1.17600
Co	Co	0.54403 0.04769 0.33609 1.17600
H 	H 	0.86550 0.23430 0.63400 0.15800
H 	H 	0.95430 0.89410 0.60980 0.05800
H 	H 	0.20990 0.07670 0.47980 0.05300
H 	H 	0.30730 0.45850 0.55220 0.05900
H 	H 	0.63960 0.69400 0.53510 0.05400
H 	H 	0.32960 0.99680 0.90400 0.07000
H 	H 	0.69210 0.97230 0.96190 0.05300
H 	H 	0.52700 0.15320 0.53690 0.04000
H 	H 	0.72800 0.28100 0.52920 0.01300
H 	H 	0.75470 0.07390 0.70370 -0.01400
H 	H 	0.13450 0.76570 0.36600 0.15800
H 	H 	0.04570 0.10590 0.39020 0.05800
H 	H 	0.79010 0.92330 0.52020 0.05300
H 	H 	0.69270 0.54150 0.44780 0.05900
H 	H 	0.36040 0.30600 0.46490 0.05400
H 	H 	0.67040 0.00320 0.09600 0.07000
H 	H 	0.30790 0.02770 0.03810 0.05300
H 	H 	0.47300 0.84680 0.46310 0.04000
H 	H 	0.27200 0.71900 0.47080 0.01300
H 	H 	0.24530 0.92610 0.29630 -0.01400
C 	C 	0.97300 0.93660 0.56550 -0.02000
C 	C 	0.09770 0.98010 0.55470 -0.06700
C 	C 	0.12580 0.04580 0.48780 -0.02000
C 	C 	0.20380 0.95320 0.61070 0.33600
C 	C 	0.38490 0.47530 0.53140 -0.02500
C 	C 	0.46900 0.59200 0.55310 -0.05800
C 	C 	0.58330 0.61550 0.52090 -0.02000
C 	C 	0.43420 0.69300 0.61020 0.32700
C 	C 	0.39810 0.99810 0.94240 -0.02600
C 	C 	0.51530 0.98110 0.91750 -0.05800
C 	C 	0.61450 0.98350 0.97700 -0.02100
C 	C 	0.53300 0.96560 0.83140 0.32000
C 	C 	0.59970 0.15530 0.57210 -0.03200
C 	C 	0.70840 0.22440 0.56660 0.07100
C 	C 	0.71940 0.11120 0.66220 0.14500
C 	C 	0.02700 0.06340 0.43450 -0.02000
C 	C 	0.90230 0.01990 0.44530 -0.06700
C 	C 	0.87420 0.95420 0.51220 -0.02000
C 	C 	0.79620 0.04680 0.38930 0.33600
C 	C 	0.61510 0.52470 0.46860 -0.02500
C 	C 	0.53100 0.40800 0.44690 -0.05800
C 	C 	0.41670 0.38450 0.47910 -0.02000
C 	C 	0.56580 0.30700 0.38980 0.32700
C 	C 	0.60190 0.00190 0.05760 -0.02600
C 	C 	0.48470 0.01890 0.08250 -0.05800
C 	C 	0.38550 0.01650 0.02300 -0.02100
C 	C 	0.46700 0.03440 0.16860 0.32000
C 	C 	0.40030 0.84470 0.42790 -0.03200
C 	C 	0.29160 0.77560 0.43340 0.07100
C 	C 	0.28060 0.88880 0.33780 0.14500
N 	N 	0.60090 0.08490 0.63470 -0.24500
N 	N 	0.78560 0.19980 0.62320 -0.23000
N 	N 	0.39910 0.91510 0.36530 -0.24500
N 	N 	0.21440 0.80020 0.37680 -0.23000
O 	O 	0.31620 0.00640 0.60300 -0.43200
O 	O 	0.17490 0.88270 0.66100 -0.26900
O 	O 	0.50410 0.80270 0.61380 -0.43600
O 	O 	0.34290 0.66370 0.64830 -0.25900
O 	O 	0.43347 0.95013 0.77900 -0.39400
O 	O 	0.64050 0.97470 0.81130 -0.30300
O 	O 	0.68380 0.99360 0.39700 -0.43200
O 	O 	0.82510 0.11730 0.33900 -0.26900
O 	O 	0.49590 0.19730 0.38620 -0.43600
O 	O 	0.65710 0.33630 0.35170 -0.25900
O 	O 	0.56653 0.04987 0.22100 -0.39400
O 	O 	0.35950 0.02530 0.18870 -0.30300
