data_crystal

_cell_length_a 11.27900
_cell_length_b 10.67900
_cell_length_c 15.42800
_cell_angle_alpha 90.00000
_cell_angle_beta  95.27600
_cell_angle_gamma 90.00000

_symmetry_space_group_name_	'P 1'
_symmetry_space_group_name_H-M	'P 1'

loop_
_symmetry_equiv_pos_as_xyz
  x,y,z

loop_
_atom_site_label
_atom_site_type_symbol
_atom_site_fract_x
_atom_site_fract_y
_atom_site_fract_z
_atom_site_charge
Co	Co	0.84900 0.54034 0.01117 1.16200
O 	O 	0.91110 0.41260 0.09665 -0.47000
O 	O 	0.10980 0.38740 0.10118 -0.45600
O 	O 	0.22750 0.07870 0.44710 -0.37800
O 	O 	0.32450 0.15050 0.33640 -0.26500
O 	O 	0.78640 0.11890 0.43131 -0.39700
O 	O 	0.70620 0.27900 0.35090 -0.26300
C 	C 	0.01080 0.29980 0.21410 -0.10400
C 	C 	0.11580 0.25040 0.25420 0.04500
H 	H 	0.18660 0.26170 0.22870 0.05400
C 	C 	0.11660 0.18440 0.33180 -0.08700
C 	C 	0.01020 0.16670 0.36920 0.03800
H 	H 	0.01010 0.12000 0.42010 0.05800
C 	C 	0.90350 0.21770 0.33160 -0.08500
C 	C 	0.90490 0.28240 0.25320 0.04000
H 	H 	0.83420 0.31460 0.22640 0.05300
C 	C 	0.00970 0.37150 0.12990 0.39200
C 	C 	0.23290 0.13480 0.37440 0.33200
C 	C 	0.78800 0.20480 0.37360 0.33100
Co	Co	0.65100 0.04034 0.48883 1.16200
O 	O 	0.58890 0.91260 0.40335 -0.46800
O 	O 	0.39020 0.88740 0.39882 -0.45600
O 	O 	0.27250 0.57870 0.05290 -0.37700
O 	O 	0.17550 0.65050 0.16360 -0.26500
O 	O 	0.71360 0.61890 0.06869 -0.39600
O 	O 	0.79380 0.77900 0.14910 -0.26300
C 	C 	0.48920 0.79980 0.28590 -0.10600
C 	C 	0.38420 0.75040 0.24580 0.04500
H 	H 	0.31340 0.76170 0.27130 0.05400
C 	C 	0.38340 0.68440 0.16820 -0.08600
C 	C 	0.48980 0.66670 0.13080 0.03600
H 	H 	0.48990 0.62000 0.07990 0.05800
C 	C 	0.59650 0.71770 0.16840 -0.08400
C 	C 	0.59510 0.78240 0.24680 0.04200
H 	H 	0.66580 0.81460 0.27360 0.05200
C 	C 	0.49030 0.87150 0.37010 0.38900
C 	C 	0.26710 0.63480 0.12560 0.33200
C 	C 	0.71200 0.70480 0.12640 0.33100
Co	Co	0.15100 0.45966 0.98883 1.16200
O 	O 	0.08890 0.58740 0.90335 -0.47000
O 	O 	0.89020 0.61260 0.89882 -0.45600
O 	O 	0.77250 0.92130 0.55290 -0.37800
O 	O 	0.67550 0.84950 0.66360 -0.26500
O 	O 	0.21360 0.88110 0.56869 -0.39700
O 	O 	0.29380 0.72100 0.64910 -0.26300
C 	C 	0.98920 0.70020 0.78590 -0.10400
C 	C 	0.88420 0.74960 0.74580 0.04500
H 	H 	0.81340 0.73830 0.77130 0.05400
C 	C 	0.88340 0.81560 0.66820 -0.08700
C 	C 	0.98980 0.83330 0.63080 0.03800
H 	H 	0.98990 0.88000 0.57990 0.05800
C 	C 	0.09650 0.78230 0.66840 -0.08500
C 	C 	0.09510 0.71760 0.74680 0.04000
H 	H 	0.16580 0.68540 0.77360 0.05300
C 	C 	0.99030 0.62850 0.87010 0.39200
C 	C 	0.76710 0.86520 0.62560 0.33200
C 	C 	0.21200 0.79520 0.62640 0.33100
Co	Co	0.34900 0.95966 0.51117 1.16200
O 	O 	0.41110 0.08740 0.59665 -0.46800
O 	O 	0.60980 0.11260 0.60118 -0.45600
O 	O 	0.72750 0.42130 0.94710 -0.37700
O 	O 	0.82450 0.34950 0.83640 -0.26500
O 	O 	0.28640 0.38110 0.93131 -0.39600
O 	O 	0.20620 0.22100 0.85090 -0.26300
C 	C 	0.51080 0.20020 0.71410 -0.10600
C 	C 	0.61580 0.24960 0.75420 0.04500
H 	H 	0.68660 0.23830 0.72870 0.05400
C 	C 	0.61660 0.31560 0.83180 -0.08600
C 	C 	0.51020 0.33330 0.86920 0.03600
H 	H 	0.51010 0.38000 0.92010 0.05800
C 	C 	0.40350 0.28230 0.83160 -0.08400
C 	C 	0.40490 0.21760 0.75320 0.04200
H 	H 	0.33420 0.18540 0.72640 0.05200
C 	C 	0.50970 0.12850 0.62990 0.38900
C 	C 	0.73290 0.36520 0.87440 0.33200
C 	C 	0.28800 0.29520 0.87360 0.33100
