data_crystal

_cell_length_a 10.68790
_cell_length_b 10.68790
_cell_length_c 18.67910
_cell_angle_alpha 74.20530
_cell_angle_beta  74.20530
_cell_angle_gamma 64.70050

_symmetry_space_group_name_	'P 1'
_symmetry_space_group_name_H-M	'P 1'

loop_
_symmetry_equiv_pos_as_xyz
  x,y,z

loop_
_atom_site_label
_atom_site_type_symbol
_atom_site_fract_x
_atom_site_fract_y
_atom_site_fract_z
_atom_site_charge
Gd	Gd	0.55809 0.43825 0.10218 1.64200
Gd	Gd	0.56175 0.44191 0.39782 1.64200
Gd	Gd	0.44191 0.56175 0.89782 1.64200
Gd	Gd	0.43825 0.55809 0.60218 1.64200
H 	H 	0.47180 0.11540 0.22940 0.04200
H 	H 	0.53600 0.79120 0.08910 0.05000
H 	H 	0.37880 0.21060 0.43860 0.02300
H 	H 	0.36850 0.98970 0.49260 0.03900
H 	H 	0.44100 0.01880 0.88480 0.04700
H 	H 	0.46450 0.89370 0.28370 0.05100
H 	H 	0.88460 0.52820 0.27060 0.04300
H 	H 	0.20880 0.46400 0.41090 0.05100
H 	H 	0.78940 0.62120 0.06140 0.02500
H 	H 	0.01030 0.63150 0.00740 0.03700
H 	H 	0.98120 0.55900 0.61520 0.04700
H 	H 	0.10630 0.53550 0.21630 0.05000
H 	H 	0.52820 0.88460 0.77060 0.04300
H 	H 	0.46400 0.20880 0.91090 0.05100
H 	H 	0.62120 0.78940 0.56140 0.02400
H 	H 	0.63150 0.01030 0.50740 0.04000
H 	H 	0.55900 0.98120 0.11520 0.04700
H 	H 	0.53550 0.10630 0.71630 0.05100
H 	H 	0.11540 0.47180 0.72940 0.04300
H 	H 	0.79120 0.53600 0.58910 0.05100
H 	H 	0.21060 0.37880 0.93860 0.02500
H 	H 	0.98970 0.36850 0.99260 0.03700
H 	H 	0.01880 0.44100 0.38480 0.04700
H 	H 	0.89370 0.46450 0.78370 0.05000
C 	C 	0.44417 0.32117 0.29411 0.43800
C 	C 	0.48687 0.88625 0.98423 -0.09600
C 	C 	0.42874 0.18318 0.32888 -0.13100
C 	C 	0.45253 0.08933 0.28281 -0.00100
C 	C 	0.52154 0.87576 0.05289 -0.01700
C 	C 	0.39682 0.14610 0.40715 0.00200
C 	C 	0.47220 0.76578 0.96613 0.38500
C 	C 	0.39135 0.01455 0.43921 -0.02100
C 	C 	0.46512 0.01112 0.93157 -0.01000
C 	C 	0.41929 0.91927 0.39337 -0.09900
C 	C 	0.42701 0.77297 0.42940 0.42500
C 	C 	0.44799 0.95775 0.31507 -0.01800
C 	C 	0.67883 0.55583 0.20589 0.43800
C 	C 	0.11375 0.51313 0.51577 -0.09400
C 	C 	0.81682 0.57126 0.17112 -0.13000
C 	C 	0.91067 0.54747 0.21719 -0.00100
C 	C 	0.12424 0.47846 0.44711 -0.01800
C 	C 	0.85390 0.60318 0.09285 -0.00000
C 	C 	0.23422 0.52780 0.53387 0.38500
C 	C 	0.98545 0.60865 0.06079 -0.01600
C 	C 	0.98888 0.53488 0.56843 -0.01100
C 	C 	0.08073 0.58071 0.10663 -0.10200
C 	C 	0.22703 0.57299 0.07060 0.42500
C 	C 	0.04225 0.55201 0.18493 -0.01800
C 	C 	0.55583 0.67883 0.70589 0.43800
C 	C 	0.51313 0.11375 0.01577 -0.09600
C 	C 	0.57126 0.81682 0.67112 -0.13100
C 	C 	0.54747 0.91067 0.71719 -0.00100
C 	C 	0.47846 0.12424 0.94711 -0.01700
C 	C 	0.60318 0.85390 0.59285 0.00200
C 	C 	0.52780 0.23422 0.03387 0.38500
C 	C 	0.60865 0.98545 0.56079 -0.02100
C 	C 	0.53488 0.98888 0.06843 -0.01000
C 	C 	0.58071 0.08073 0.60663 -0.09900
C 	C 	0.57299 0.22703 0.57060 0.42500
C 	C 	0.55201 0.04225 0.68493 -0.01800
C 	C 	0.32117 0.44417 0.79411 0.43800
C 	C 	0.88625 0.48687 0.48423 -0.09400
C 	C 	0.18318 0.42874 0.82888 -0.13000
C 	C 	0.08933 0.45253 0.78281 -0.00100
C 	C 	0.87576 0.52154 0.55289 -0.01800
C 	C 	0.14610 0.39682 0.90715 -0.00000
C 	C 	0.76578 0.47220 0.46613 0.38500
C 	C 	0.01455 0.39135 0.93921 -0.01600
C 	C 	0.01112 0.46512 0.43157 -0.01100
C 	C 	0.91927 0.41929 0.89337 -0.10200
C 	C 	0.77297 0.42701 0.92940 0.42500
C 	C 	0.95775 0.44799 0.81507 -0.01800
O 	O 	0.47123 0.35077 0.22407 -0.46400
O 	O 	0.51013 0.64555 0.00789 -0.47800
O 	O 	0.42647 0.40047 0.33890 -0.47800
O 	O 	0.42246 0.78780 0.90796 -0.42400
O 	O 	0.39430 0.74750 0.50048 -0.46500
O 	O 	0.46836 0.68538 0.38635 -0.44400
O 	O 	0.64923 0.52877 0.27593 -0.46400
O 	O 	0.35445 0.48987 0.49211 -0.47800
O 	O 	0.59953 0.57353 0.16110 -0.47800
O 	O 	0.21220 0.57754 0.59204 -0.42400
O 	O 	0.25250 0.60570 0.99952 -0.46500
O 	O 	0.31462 0.53164 0.11365 -0.44400
O 	O 	0.52877 0.64923 0.77593 -0.46400
O 	O 	0.48987 0.35445 0.99211 -0.47800
O 	O 	0.57353 0.59953 0.66110 -0.47800
O 	O 	0.57754 0.21220 0.09204 -0.42400
O 	O 	0.60570 0.25250 0.49952 -0.46500
O 	O 	0.53164 0.31462 0.61365 -0.44400
O 	O 	0.35077 0.47123 0.72407 -0.46400
O 	O 	0.64555 0.51013 0.50789 -0.47800
O 	O 	0.40047 0.42647 0.83890 -0.47800
O 	O 	0.78780 0.42246 0.40796 -0.42400
O 	O 	0.74750 0.39430 0.00048 -0.46500
O 	O 	0.68538 0.46836 0.88635 -0.44400
