data_crystal

_cell_length_a 7.27330
_cell_length_b 10.60120
_cell_length_c 17.93010
_cell_angle_alpha 107.19500
_cell_angle_beta  100.87100
_cell_angle_gamma 90.00000

_symmetry_space_group_name_	'P 1'
_symmetry_space_group_name_H-M	'P 1'

loop_
_symmetry_equiv_pos_as_xyz
  x,y,z

loop_
_atom_site_label
_atom_site_type_symbol
_atom_site_fract_x
_atom_site_fract_y
_atom_site_fract_z
_atom_site_charge
Ba	Ba	0.86638 0.25690 0.75906 2.08300
Ba	Ba	0.37402 0.00579 0.76164 1.53600
Ba	Ba	0.01577 0.01642 0.53304 1.74600
Ba	Ba	0.13362 0.49784 0.24094 2.04200
Ba	Ba	0.62598 0.24415 0.23836 2.01700
Ba	Ba	0.98423 0.48338 0.46696 2.32400
Ba	Ba	0.00000 0.63062 -0.00000 1.35000
C 	C 	0.12390 0.09660 0.89980 0.13200
C 	C 	0.04310 0.13720 0.97220 -0.03300
C 	C 	0.33020 0.26970 0.69420 0.48400
C 	C 	0.32410 0.40210 0.68220 -0.14100
C 	C 	0.31110 0.50910 0.67420 -0.10200
C 	C 	0.30430 0.64200 0.66260 0.41500
C 	C 	0.85480 0.92680 0.69960 0.42800
C 	C 	0.84240 0.78600 0.68680 -0.09500
C 	C 	0.83330 0.67110 0.67660 -0.08900
C 	C 	0.83790 0.52790 0.66380 0.37800
C 	C 	0.66370 0.32050 0.91300 0.35500
C 	C 	0.54410 0.35010 0.97420 0.03200
C 	C 	0.87610 0.19680 0.10020 0.37900
C 	C 	0.95690 0.16500 0.02780 -0.20800
C 	C 	0.66980 0.57550 0.30580 0.44800
C 	C 	0.67590 0.71990 0.31780 -0.05900
C 	C 	0.68890 0.83490 0.32580 -0.18500
C 	C 	0.69570 0.97940 0.33740 0.84100
C 	C 	0.14520 0.22720 0.30040 0.62900
C 	C 	0.15760 0.09920 0.31320 -0.50700
C 	C 	0.16670 0.99450 0.32340 0.28100
C 	C 	0.16210 0.86410 0.33620 0.23400
C 	C 	0.33630 0.40750 0.08700 0.45600
C 	C 	0.45590 0.37590 0.02580 -0.25500
N 	N 	0.73160 0.74910 0.49940 0.06000
N 	N 	0.26840 0.24970 0.50060 0.07000
O 	O 	0.13460 0.17480 0.86160 -0.51100
O 	O 	0.18490 0.98040 0.88580 -0.24700
O 	O 	0.48750 0.23000 0.71360 -0.60600
O 	O 	0.18040 0.20690 0.68540 -0.68600
O 	O 	0.24190 0.64890 0.59700 -0.47000
O 	O 	0.34740 0.73250 0.72660 -0.41800
O 	O 	0.98900 0.97350 0.68360 -0.50800
O 	O 	0.72150 0.99100 0.72620 -0.47300
O 	O 	0.83780 0.48920 0.72380 -0.46500
O 	O 	0.83630 0.45050 0.59300 -0.43000
O 	O 	0.65660 0.85900 0.52160 -0.16900
O 	O 	0.90340 0.75090 0.50040 -0.38600
O 	O 	0.64040 0.64240 0.48220 -0.24900
O 	O 	0.64290 0.20180 0.86720 -0.53000
O 	O 	0.77320 0.40770 0.91360 -0.51300
O 	O 	0.76090 0.20260 0.59000 -0.40200
O 	O 	0.32700 0.89190 0.59420 -0.30000
O 	O 	0.83310 0.58290 0.12580 -0.38600
O 	O 	0.86540 0.31320 0.13840 -0.56700
O 	O 	0.81510 0.09460 0.11420 -0.51600
O 	O 	0.51250 0.51640 0.28640 -0.60000
O 	O 	0.81960 0.52150 0.31460 -0.67200
O 	O 	0.75810 0.05190 0.40300 -0.64800
O 	O 	0.65260 0.00590 0.27340 -0.70800
O 	O 	0.01100 0.28990 0.31640 -0.75400
O 	O 	0.27850 0.26480 0.27380 -0.67600
O 	O 	0.16220 0.76540 0.27620 -0.44100
O 	O 	0.16370 0.85750 0.40700 -0.33300
O 	O 	0.34340 0.33740 0.47840 -0.25700
O 	O 	0.09660 0.25050 0.49960 -0.44400
O 	O 	0.35960 0.16020 0.51780 -0.26400
O 	O 	0.35710 0.33460 0.13280 -0.58600
O 	O 	0.22680 0.49410 0.08640 -0.59300
O 	O 	0.23910 0.61260 0.41000 -0.43100
O 	O 	0.67300 0.29770 0.40580 -0.41800
O 	O 	0.16690 0.45710 0.87420 -0.38900
