data_crystal

_cell_length_a 10.08730
_cell_length_b 10.08730
_cell_length_c 12.93580
_cell_angle_alpha 90.00000
_cell_angle_beta  90.00000
_cell_angle_gamma 90.00000

_symmetry_space_group_name_	'P 1'
_symmetry_space_group_name_H-M	'P 1'

loop_
_symmetry_equiv_pos_as_xyz
  x,y,z

loop_
_atom_site_label
_atom_site_type_symbol
_atom_site_fract_x
_atom_site_fract_y
_atom_site_fract_z
_atom_site_charge
Co	Co	0.88160 0.13240 0.29890 1.21500
P 	P 	0.84460 0.86790 0.18390 0.62600
O 	O 	0.72080 0.78480 0.18870 -0.42400
O 	O 	0.90620 0.85790 0.07610 -0.39900
O 	O 	0.80750 0.01230 0.20340 -0.52500
O 	O 	0.88950 0.06290 0.43420 -0.37300
O 	O 	0.05840 0.18150 0.26470 -0.51200
Co	Co	0.11840 0.86760 0.29890 1.18600
P 	P 	0.15540 0.13210 0.18390 0.50500
O 	O 	0.27920 0.21520 0.18870 -0.44800
O 	O 	0.09380 0.14210 0.07610 -0.49900
O 	O 	0.19250 0.98770 0.20340 -0.41900
O 	O 	0.11050 0.93710 0.43420 -0.36100
O 	O 	0.94160 0.81850 0.26470 -0.41400
Co	Co	0.13240 0.11840 0.70110 1.17500
P 	P 	0.86790 0.15540 0.81610 0.62600
O 	O 	0.78480 0.27920 0.81130 -0.40300
O 	O 	0.85790 0.09380 0.92390 -0.36600
O 	O 	0.01230 0.19250 0.79660 -0.52100
O 	O 	0.06290 0.11050 0.56580 -0.44500
O 	O 	0.18150 0.94160 0.73530 -0.41600
Co	Co	0.86760 0.88160 0.70110 1.23100
P 	P 	0.13210 0.84460 0.81610 0.50800
O 	O 	0.21520 0.72080 0.81130 -0.41100
O 	O 	0.14210 0.90620 0.92390 -0.33900
O 	O 	0.98770 0.80750 0.79660 -0.37100
O 	O 	0.93710 0.88950 0.56580 -0.29700
O 	O 	0.81850 0.05840 0.73530 -0.48600
Co	Co	0.61840 0.63240 0.20110 1.20200
P 	P 	0.65540 0.36790 0.31610 0.56700
O 	O 	0.77920 0.28480 0.31130 -0.41500
O 	O 	0.59380 0.35790 0.42390 -0.42800
O 	O 	0.69250 0.51230 0.29660 -0.45600
O 	O 	0.61050 0.56290 0.06580 -0.43500
O 	O 	0.44160 0.68150 0.23530 -0.46300
Co	Co	0.38160 0.36760 0.20110 1.19500
P 	P 	0.34460 0.63210 0.31610 0.56800
O 	O 	0.22080 0.71520 0.31130 -0.44200
O 	O 	0.40620 0.64210 0.42390 -0.42100
O 	O 	0.30750 0.48770 0.29660 -0.47900
O 	O 	0.38950 0.43710 0.06580 -0.45200
O 	O 	0.55840 0.31850 0.23530 -0.47800
Co	Co	0.36760 0.61840 0.79890 1.20500
P 	P 	0.63210 0.65540 0.68390 0.56800
O 	O 	0.71520 0.77920 0.68870 -0.39500
O 	O 	0.64210 0.59380 0.57610 -0.41500
O 	O 	0.48770 0.69250 0.70340 -0.45200
O 	O 	0.43710 0.61050 0.93420 -0.33300
O 	O 	0.31850 0.44160 0.76470 -0.45700
Co	Co	0.63240 0.38160 0.79890 1.20600
P 	P 	0.36790 0.34460 0.68390 0.56700
O 	O 	0.28480 0.22080 0.68870 -0.43600
O 	O 	0.35790 0.40620 0.57610 -0.43400
O 	O 	0.51230 0.30750 0.70340 -0.46800
O 	O 	0.56290 0.38950 0.93420 -0.33800
O 	O 	0.68150 0.55840 0.76470 -0.43800
Co	Co	-0.00000 0.00000 -0.00000 1.04600
Co	Co	0.50000 0.50000 0.50000 1.17300
P 	P 	-0.00000 -0.00000 0.50000 0.30600
P 	P 	0.50000 0.50000 -0.00000 0.38900
