data_crystal

_cell_length_a 10.03170
_cell_length_b 10.03170
_cell_length_c 12.88370
_cell_angle_alpha 90.00000
_cell_angle_beta  90.00000
_cell_angle_gamma 90.00000

_symmetry_space_group_name_	'P 1'
_symmetry_space_group_name_H-M	'P 1'

loop_
_symmetry_equiv_pos_as_xyz
  x,y,z

loop_
_atom_site_label
_atom_site_type_symbol
_atom_site_fract_x
_atom_site_fract_y
_atom_site_fract_z
_atom_site_charge
Co	Co	0.87590 0.12460 0.29780 1.21500
P 	P 	0.85200 0.85900 0.17990 0.60900
O 	O 	0.73000 0.76840 0.18300 -0.43100
O 	O 	0.91760 0.84800 0.07620 -0.39900
O 	O 	0.80910 0.00750 0.19660 -0.52000
O 	O 	0.88750 0.04810 0.43290 -0.38100
O 	O 	0.05460 0.18580 0.26640 -0.50000
Co	Co	0.12410 0.87540 0.29780 1.18700
P 	P 	0.14800 0.14100 0.17990 0.49000
O 	O 	0.27000 0.23160 0.18300 -0.45500
O 	O 	0.08240 0.15200 0.07620 -0.50100
O 	O 	0.19090 0.99250 0.19660 -0.41700
O 	O 	0.11250 0.95190 0.43290 -0.36300
O 	O 	0.94540 0.81420 0.26640 -0.39900
Co	Co	0.12460 0.12410 0.70220 1.17400
P 	P 	0.85900 0.14800 0.82010 0.60800
O 	O 	0.76840 0.27000 0.81700 -0.40800
O 	O 	0.84800 0.08240 0.92380 -0.36700
O 	O 	0.00750 0.19090 0.80340 -0.51500
O 	O 	0.04810 0.11250 0.56710 -0.45600
O 	O 	0.18580 0.94540 0.73360 -0.40300
Co	Co	0.87540 0.87590 0.70220 1.23200
P 	P 	0.14100 0.85200 0.82010 0.49300
O 	O 	0.23160 0.73000 0.81700 -0.41500
O 	O 	0.15200 0.91760 0.92380 -0.33400
O 	O 	0.99250 0.80910 0.80340 -0.36400
O 	O 	0.95190 0.88750 0.56710 -0.29700
O 	O 	0.81420 0.05460 0.73360 -0.47200
Co	Co	0.62410 0.62460 0.20220 1.20300
P 	P 	0.64800 0.35900 0.32010 0.55100
O 	O 	0.77000 0.26840 0.31700 -0.42100
O 	O 	0.58240 0.34800 0.42380 -0.42900
O 	O 	0.69090 0.50750 0.30340 -0.45100
O 	O 	0.61250 0.54810 0.06710 -0.44400
O 	O 	0.44540 0.68580 0.23360 -0.44900
Co	Co	0.37590 0.37540 0.20220 1.19500
P 	P 	0.35200 0.64100 0.32010 0.55100
O 	O 	0.23000 0.73160 0.31700 -0.44600
O 	O 	0.41760 0.65200 0.42380 -0.42000
O 	O 	0.30910 0.49250 0.30340 -0.47500
O 	O 	0.38750 0.45190 0.06710 -0.46100
O 	O 	0.55460 0.31420 0.23360 -0.46500
Co	Co	0.37540 0.62410 0.79780 1.20500
P 	P 	0.64100 0.64800 0.67990 0.55300
O 	O 	0.73160 0.77000 0.68300 -0.40100
O 	O 	0.65200 0.58240 0.57620 -0.41400
O 	O 	0.49250 0.69090 0.69660 -0.44800
O 	O 	0.45190 0.61250 0.93290 -0.33800
O 	O 	0.31420 0.44540 0.76640 -0.44300
Co	Co	0.62460 0.37590 0.79780 1.20600
P 	P 	0.35900 0.35200 0.67990 0.55000
O 	O 	0.26840 0.23000 0.68300 -0.44300
O 	O 	0.34800 0.41760 0.57620 -0.43500
O 	O 	0.50750 0.30910 0.69660 -0.46400
O 	O 	0.54810 0.38750 0.93290 -0.34500
O 	O 	0.68580 0.55460 0.76640 -0.42200
Co	Co	-0.00000 0.00000 -0.00000 1.04200
Co	Co	0.50000 0.50000 0.50000 1.17300
P 	P 	0.00000 0.00000 0.50000 0.34200
P 	P 	0.50000 0.50000 -0.00000 0.43200
