data_crystal

_cell_length_a 10.01030
_cell_length_b 9.98960
_cell_length_c 12.85200
_cell_angle_alpha 90.00000
_cell_angle_beta  91.11300
_cell_angle_gamma 90.00000

_symmetry_space_group_name_	'P 1'
_symmetry_space_group_name_H-M	'P 1'

loop_
_symmetry_equiv_pos_as_xyz
  x,y,z

loop_
_atom_site_label
_atom_site_type_symbol
_atom_site_fract_x
_atom_site_fract_y
_atom_site_fract_z
_atom_site_charge
Co	Co	0.37110 0.04940 0.54630 1.16200
Co	Co	0.11830 0.80090 0.54970 1.19700
Co	Co	0.12890 0.04340 0.95600 1.16900
Co	Co	0.37610 0.79310 0.94650 1.19900
Co	Co	0.25160 0.90530 0.24900 1.20300
P 	P 	0.11300 0.76230 0.06200 0.57200
P 	P 	0.39680 0.05500 0.07460 0.42900
P 	P 	0.10110 0.06090 0.42170 0.50500
P 	P 	0.24680 0.93560 0.75020 0.62300
P 	P 	0.39280 0.77800 0.43840 0.56800
O 	O 	0.29890 0.73860 0.52510 -0.44400
O 	O 	0.33280 0.75960 0.33260 -0.42800
O 	O 	0.48340 0.17520 0.08460 -0.41800
O 	O 	0.12530 0.89610 0.67970 -0.39600
O 	O 	0.44060 0.96660 0.98470 -0.37100
O 	O 	0.19830 0.10740 0.50810 -0.49000
O 	O 	0.29720 0.81450 0.80980 -0.43100
O 	O 	0.10430 0.81730 0.17110 -0.40500
O 	O 	0.35980 0.99260 0.68510 -0.37900
O 	O 	0.25930 0.71960 0.04520 -0.45200
O 	O 	0.43650 0.92340 0.45090 -0.41000
O 	O 	0.40950 0.97580 0.17460 -0.33000
O 	O 	0.17040 0.05680 0.31910 -0.47500
O 	O 	0.20070 0.04600 0.82240 -0.52200
O 	O 	0.06930 0.86720 0.98240 -0.42300
O 	O 	0.05340 0.92070 0.44380 -0.39600
O 	O 	0.51700 0.69190 0.45320 -0.42000
O 	O 	0.99030 0.15890 0.41050 -0.43200
O 	O 	0.02300 0.64320 0.04850 -0.42700
O 	O 	0.25320 0.10180 0.05910 -0.47500
Co	Co	0.62890 0.54940 0.45370 1.21200
Co	Co	0.88170 0.30090 0.45030 1.18900
Co	Co	0.87110 0.54340 0.04400 1.21000
Co	Co	0.62390 0.29310 0.05350 1.19400
Co	Co	0.74840 0.40530 0.75100 1.17800
P 	P 	0.88700 0.26230 0.93800 0.56300
P 	P 	0.60320 0.55500 0.92540 0.56200
P 	P 	0.89890 0.56090 0.57830 0.59100
P 	P 	0.75320 0.43560 0.24980 0.55100
P 	P 	0.60720 0.27800 0.56160 0.56800
O 	O 	0.70110 0.23860 0.47490 -0.46700
O 	O 	0.66720 0.25960 0.66740 -0.45200
O 	O 	0.51660 0.67520 0.91540 -0.41400
O 	O 	0.87470 0.39610 0.32030 -0.42000
O 	O 	0.55940 0.46660 0.01530 -0.45200
O 	O 	0.80170 0.60740 0.49190 -0.45800
O 	O 	0.70280 0.31450 0.19020 -0.44100
O 	O 	0.89570 0.31730 0.82890 -0.43300
O 	O 	0.64020 0.49260 0.31490 -0.43000
O 	O 	0.74070 0.21960 0.95480 -0.48300
O 	O 	0.56350 0.42340 0.54910 -0.46400
O 	O 	0.59050 0.47580 0.82540 -0.42200
O 	O 	0.82960 0.55680 0.68090 -0.42900
O 	O 	0.79930 0.54600 0.17760 -0.42900
O 	O 	0.93070 0.36720 0.01760 -0.45700
O 	O 	0.94660 0.42070 0.55620 -0.47300
O 	O 	0.48300 0.19190 0.54680 -0.45100
O 	O 	0.00970 0.65890 0.58950 -0.43200
O 	O 	0.97700 0.14320 0.95150 -0.45100
O 	O 	0.74680 0.60180 0.94090 -0.46300
