data_crystal

_cell_length_a 9.99370
_cell_length_b 9.99370
_cell_length_c 12.85190
_cell_angle_alpha 90.00000
_cell_angle_beta  90.00000
_cell_angle_gamma 90.00000

_symmetry_space_group_name_	'P 1'
_symmetry_space_group_name_H-M	'P 1'

loop_
_symmetry_equiv_pos_as_xyz
  x,y,z

loop_
_atom_site_label
_atom_site_type_symbol
_atom_site_fract_x
_atom_site_fract_y
_atom_site_fract_z
_atom_site_charge
Co	Co	0.87890 0.12610 0.29810 1.20300
P 	P 	0.85010 0.86140 0.17840 0.61800
O 	O 	0.72780 0.77760 0.17320 -0.42500
O 	O 	0.92270 0.84790 0.07570 -0.39900
O 	O 	0.80960 0.01010 0.19330 -0.51800
O 	O 	0.88000 0.04260 0.43370 -0.37000
O 	O 	0.05810 0.18570 0.26420 -0.50800
Co	Co	0.12110 0.87390 0.29810 1.17500
P 	P 	0.14990 0.13860 0.17840 0.50200
O 	O 	0.27220 0.22240 0.17320 -0.44700
O 	O 	0.07730 0.15210 0.07570 -0.49900
O 	O 	0.19040 0.98990 0.19330 -0.41900
O 	O 	0.12000 0.95740 0.43370 -0.34700
O 	O 	0.94190 0.81430 0.26420 -0.41200
Co	Co	0.12610 0.12110 0.70190 1.16200
P 	P 	0.86140 0.14990 0.82160 0.61800
O 	O 	0.77760 0.27220 0.82680 -0.39700
O 	O 	0.84790 0.07730 0.92430 -0.37000
O 	O 	0.01010 0.19040 0.80670 -0.51300
O 	O 	0.04260 0.12000 0.56630 -0.43900
O 	O 	0.18570 0.94190 0.73580 -0.41600
Co	Co	0.87390 0.87890 0.70190 1.22100
P 	P 	0.13860 0.85010 0.82160 0.50300
O 	O 	0.22240 0.72780 0.82680 -0.40400
O 	O 	0.15210 0.92270 0.92430 -0.33500
O 	O 	0.98990 0.80960 0.80670 -0.36600
O 	O 	0.95740 0.88000 0.56630 -0.28700
O 	O 	0.81430 0.05810 0.73580 -0.48100
Co	Co	0.62110 0.62610 0.20190 1.19100
P 	P 	0.64990 0.36140 0.32160 0.56100
O 	O 	0.77220 0.27760 0.32680 -0.41000
O 	O 	0.57730 0.34790 0.42430 -0.42900
O 	O 	0.69040 0.51010 0.30670 -0.45100
O 	O 	0.62000 0.54260 0.06630 -0.42700
O 	O 	0.44190 0.68570 0.23580 -0.46000
Co	Co	0.37890 0.37390 0.20190 1.18300
P 	P 	0.35010 0.63860 0.32160 0.56200
O 	O 	0.22780 0.72240 0.32680 -0.43600
O 	O 	0.42270 0.65210 0.42430 -0.42000
O 	O 	0.30960 0.48990 0.30670 -0.47400
O 	O 	0.38000 0.45740 0.06630 -0.44400
O 	O 	0.55810 0.31430 0.23580 -0.47500
Co	Co	0.37390 0.62110 0.79810 1.19300
P 	P 	0.63860 0.64990 0.67840 0.56200
O 	O 	0.72240 0.77220 0.67320 -0.39300
O 	O 	0.65210 0.57730 0.57570 -0.41400
O 	O 	0.48990 0.69040 0.69330 -0.44900
O 	O 	0.45740 0.62000 0.93370 -0.32300
O 	O 	0.31430 0.44190 0.76420 -0.45500
Co	Co	0.62610 0.37890 0.79810 1.19500
P 	P 	0.36140 0.35010 0.67840 0.56100
O 	O 	0.27760 0.22780 0.67320 -0.43500
O 	O 	0.34790 0.42270 0.57570 -0.43400
O 	O 	0.51010 0.30960 0.69330 -0.46400
O 	O 	0.54260 0.38000 0.93370 -0.33100
O 	O 	0.68570 0.55810 0.76420 -0.43400
Co	Co	-0.00000 0.00000 -0.00000 1.05400
Co	Co	0.50000 0.50000 0.50000 1.18200
P 	P 	0.00000 0.00000 0.50000 0.29000
P 	P 	0.50000 0.50000 -0.00000 0.37400
