data_crystal

_cell_length_a 6.68630
_cell_length_b 33.34000
_cell_length_c 11.32500
_cell_angle_alpha 90.00000
_cell_angle_beta  107.15600
_cell_angle_gamma 90.00000

_symmetry_space_group_name_	'P 1'
_symmetry_space_group_name_H-M	'P 1'

loop_
_symmetry_equiv_pos_as_xyz
  x,y,z

loop_
_atom_site_label
_atom_site_type_symbol
_atom_site_fract_x
_atom_site_fract_y
_atom_site_fract_z
_atom_site_charge
O 	O 	0.45160 0.95189 0.58470 -0.41800
O 	O 	0.10560 0.94686 0.55580 -0.44900
O 	O 	0.09170 0.53476 0.88730 -0.42200
O 	O 	0.78130 0.56532 0.81010 -0.29100
N 	N 	0.43380 0.77085 0.73740 -0.15100
N 	N 	0.38520 0.70943 0.78180 -0.15600
C 	C 	0.29630 0.74066 0.71400 0.10900
H 	H 	0.15850 0.74140 0.65850 -0.00800
C 	C 	0.61570 0.75834 0.82160 0.01800
H 	H 	0.73870 0.77390 0.85350 0.04200
C 	C 	0.58890 0.72012 0.85100 0.00700
H 	H 	0.68830 0.70360 0.90740 0.05100
C 	C 	0.39160 0.81093 0.69100 0.16500
C 	C 	0.54040 0.83130 0.65390 -0.18400
H 	H 	0.66680 0.81850 0.65310 0.10100
C 	C 	0.50370 0.87078 0.61770 0.10200
H 	H 	0.60600 0.88520 0.59200 0.01700
C 	C 	0.31950 0.88958 0.61830 -0.15700
C 	C 	0.16770 0.86841 0.65150 0.09800
H 	H 	0.03880 0.88100 0.64860 0.01000
C 	C 	0.20240 0.82882 0.68930 -0.17800
H 	H 	0.09920 0.81420 0.71360 0.09300
C 	C 	0.28830 0.93325 0.58230 0.40700
C 	C 	0.28860 0.67201 0.79140 0.21700
C 	C 	0.39900 0.63732 0.81870 -0.23000
H 	H 	0.54530 0.63740 0.82910 0.13300
C 	C 	0.30060 0.60196 0.83140 0.16400
H 	H 	0.38020 0.57810 0.85360 0.00100
C 	C 	0.08560 0.60111 0.81180 -0.21500
C 	C 	0.97070 0.63649 0.77610 0.19000
H 	H 	0.82250 0.63600 0.75720 -0.01700
C 	C 	0.07130 0.67206 0.76820 -0.26800
H 	H 	0.99390 0.69630 0.74720 0.13600
C 	C 	0.97700 0.56426 0.83770 0.41000
O 	O 	0.04840 0.45189 0.91530 -0.40700
O 	O 	0.39440 0.44686 0.94420 -0.41300
O 	O 	0.40830 0.03476 0.61270 -0.43900
O 	O 	0.71870 0.06532 0.68990 -0.28800
N 	N 	0.06620 0.27085 0.76260 -0.15600
N 	N 	0.11480 0.20943 0.71820 -0.16400
C 	C 	0.20370 0.24066 0.78600 0.10600
H 	H 	0.34150 0.24140 0.84150 0.00900
C 	C 	0.88430 0.25834 0.67840 0.02700
H 	H 	0.76130 0.27390 0.64650 0.02600
C 	C 	0.91110 0.22012 0.64900 0.01800
H 	H 	0.81170 0.20360 0.59260 0.03100
C 	C 	0.10840 0.31093 0.80900 0.14400
C 	C 	0.95960 0.33130 0.84610 -0.15400
H 	H 	0.83320 0.31850 0.84690 0.09800
C 	C 	0.99630 0.37078 0.88230 0.11600
H 	H 	0.89400 0.38520 0.90800 0.02600
C 	C 	0.18050 0.38958 0.88170 -0.16000
C 	C 	0.33230 0.36841 0.84850 0.09800
H 	H 	0.46120 0.38100 0.85140 0.01900
C 	C 	0.29760 0.32882 0.81070 -0.16600
H 	H 	0.40080 0.31420 0.78640 0.09200
C 	C 	0.21170 0.43325 0.91770 0.40800
C 	C 	0.21140 0.17201 0.70860 0.19500
C 	C 	0.10100 0.13732 0.68130 -0.25500
H 	H 	0.95470 0.13740 0.67090 0.14700
C 	C 	0.19940 0.10196 0.66860 0.14500
H 	H 	0.11980 0.07810 0.64640 -0.01500
C 	C 	0.41440 0.10111 0.68820 -0.16900
C 	C 	0.52930 0.13649 0.72390 0.11100
H 	H 	0.67750 0.13600 0.74280 0.01200
C 	C 	0.42870 0.17206 0.73180 -0.19700
H 	H 	0.50610 0.19630 0.75280 0.10500
C 	C 	0.52300 0.06426 0.66230 0.36700
O 	O 	0.54840 0.04811 0.41530 -0.44200
O 	O 	0.89440 0.05314 0.44420 -0.44300
O 	O 	0.90830 0.46524 0.11270 -0.41300
O 	O 	0.21870 0.43468 0.18990 -0.29200
N 	N 	0.56620 0.22915 0.26260 -0.15100
N 	N 	0.61480 0.29057 0.21820 -0.13600
C 	C 	0.70370 0.25934 0.28600 0.09400
H 	H 	0.84150 0.25860 0.34150 0.00600
C 	C 	0.38430 0.24166 0.17840 0.00700
H 	H 	0.26130 0.22610 0.14650 0.01200
C 	C 	0.41110 0.27988 0.14900 -0.01100
H 	H 	0.31170 0.29640 0.09260 0.01600
C 	C 	0.60840 0.18907 0.30900 0.15500
C 	C 	0.45960 0.16870 0.34610 -0.18800
H 	H 	0.33320 0.18150 0.34690 0.08900
C 	C 	0.49630 0.12922 0.38230 0.09400
H 	H 	0.39400 0.11480 0.40800 0.00700
C 	C 	0.68050 0.11042 0.38170 -0.16200
C 	C 	0.83230 0.13159 0.34850 0.09300
H 	H 	0.96120 0.11900 0.35140 0.01500
C 	C 	0.79760 0.17118 0.31070 -0.18100
H 	H 	0.90080 0.18580 0.28640 0.09300
C 	C 	0.71170 0.06675 0.41770 0.40500
C 	C 	0.71140 0.32799 0.20860 0.07900
C 	C 	0.60100 0.36268 0.18130 -0.11000
H 	H 	0.45470 0.36260 0.17090 0.07000
C 	C 	0.69940 0.39804 0.16860 0.00600
H 	H 	0.61980 0.42190 0.14640 0.02400
C 	C 	0.91440 0.39889 0.18820 -0.03400
C 	C 	0.02930 0.36351 0.22390 -0.08100
H 	H 	0.17750 0.36400 0.24280 0.06300
C 	C 	0.92870 0.32794 0.23180 -0.02100
H 	H 	0.00610 0.30370 0.25280 0.02100
C 	C 	0.02300 0.43574 0.16230 0.27200
O 	O 	0.95160 0.54811 0.08470 -0.43600
O 	O 	0.60560 0.55314 0.05580 -0.47100
O 	O 	0.59170 0.96524 0.38730 -0.42100
O 	O 	0.28130 0.93468 0.31010 -0.30400
N 	N 	0.93380 0.72915 0.23740 -0.14700
N 	N 	0.88520 0.79057 0.28180 -0.13700
C 	C 	0.79630 0.75934 0.21400 0.09900
H 	H 	0.65850 0.75860 0.15850 -0.01400
C 	C 	0.11570 0.74166 0.32160 -0.00100
H 	H 	0.23870 0.72610 0.35350 0.02900
C 	C 	0.08890 0.77988 0.35100 -0.01800
H 	H 	0.18830 0.79640 0.40740 0.03700
C 	C 	0.89160 0.68907 0.19100 0.17300
C 	C 	0.04040 0.66870 0.15390 -0.21400
H 	H 	0.16680 0.68150 0.15310 0.09100
C 	C 	0.00370 0.62922 0.11770 0.07600
H 	H 	0.10600 0.61480 0.09200 -0.00000
C 	C 	0.81950 0.61042 0.11830 -0.15400
C 	C 	0.66770 0.63159 0.15150 0.08900
H 	H 	0.53880 0.61900 0.14860 0.00500
C 	C 	0.70240 0.67118 0.18930 -0.19000
H 	H 	0.59920 0.68580 0.21360 0.09000
C 	C 	0.78830 0.56675 0.08230 0.39800
C 	C 	0.78860 0.82799 0.29140 0.13400
C 	C 	0.89900 0.86268 0.31870 -0.12300
H 	H 	0.04530 0.86260 0.32910 0.07100
C 	C 	0.80060 0.89804 0.33140 0.06500
H 	H 	0.88020 0.92190 0.35360 0.02600
C 	C 	0.58560 0.89889 0.31180 -0.13300
C 	C 	0.47070 0.86351 0.27610 0.06500
H 	H 	0.32250 0.86400 0.25720 0.01200
C 	C 	0.57130 0.82794 0.26820 -0.15900
H 	H 	0.49390 0.80370 0.24720 0.08000
C 	C 	0.47700 0.93574 0.33770 0.34900
Cu	Cu	0.50000 0.00000 0.50000 0.90100
Cu	Cu	-0.00000 0.50000 -0.00000 0.86900
Cu	Cu	-0.00000 0.00000 0.50000 0.83700
Cu	Cu	0.50000 0.50000 -0.00000 0.82600
