data_crystal

_cell_length_a 13.05700
_cell_length_b 13.26390
_cell_length_c 19.96600
_cell_angle_alpha 82.15730
_cell_angle_beta  73.90490
_cell_angle_gamma 60.51470

_symmetry_space_group_name_	'P 1'
_symmetry_space_group_name_H-M	'P 1'

loop_
_symmetry_equiv_pos_as_xyz
  x,y,z

loop_
_atom_site_label
_atom_site_type_symbol
_atom_site_fract_x
_atom_site_fract_y
_atom_site_fract_z
_atom_site_charge
Cu	Cu	0.50000 0.50000 0.50000 0.84500
Cu	Cu	-0.00000 0.50000 -0.00000 0.79500
Cu	Cu	-0.00000 0.00000 -0.00000 0.77000
Cu	Cu	-0.00000 0.00000 0.50000 0.79200
H 	H 	0.51040 0.64740 0.60060 -0.03100
H 	H 	0.63020 0.62440 0.67300 0.10300
H 	H 	0.80730 0.28380 0.63990 0.11300
H 	H 	0.68740 0.30700 0.56760 -0.03600
H 	H 	0.82630 0.50360 0.70130 0.08600
H 	H 	0.88280 0.36880 0.69990 0.09200
H 	H 	0.84540 0.21880 0.07330 -0.02500
H 	H 	0.66690 0.38720 0.07700 0.09500
H 	H 	0.60990 0.25580 0.93200 0.08400
H 	H 	0.79330 0.09360 0.92790 -0.02700
H 	H 	0.45400 0.43760 0.97760 0.17300
H 	H 	0.44310 0.45380 0.05620 0.13700
H 	H 	0.70820 0.43840 0.37650 -0.04300
H 	H 	0.81700 0.51560 0.29970 0.10500
H 	H 	0.61840 0.80820 0.41010 0.10000
H 	H 	0.51480 0.72200 0.48450 -0.03400
H 	H 	0.80710 0.70080 0.24480 0.09000
H 	H 	0.87780 0.69320 0.29850 0.09100
H 	H 	0.82680 0.91120 0.05720 -0.04200
H 	H 	0.72630 0.86540 0.15850 0.11000
H 	H 	0.88650 0.95680 0.26260 0.14500
H 	H 	0.97650 0.01000 0.15790 -0.10900
H 	H 	0.65730 0.88880 0.29310 0.08400
H 	H 	0.75380 0.87900 0.32970 0.08400
H 	H 	0.84220 0.64740 0.89940 -0.02200
H 	H 	0.74540 0.62440 0.82700 0.12100
H 	H 	0.90890 0.28380 0.86010 0.16000
H 	H 	0.00560 0.30700 0.93240 -0.13900
H 	H 	0.67010 0.50360 0.79870 0.08700
H 	H 	0.74840 0.36880 0.80010 0.08800
H 	H 	0.93580 0.21880 0.42670 -0.04600
H 	H 	0.94590 0.38720 0.42300 0.08100
H 	H 	0.13430 0.25580 0.56800 0.07900
H 	H 	0.11310 0.09360 0.57210 -0.05200
H 	H 	0.10840 0.43760 0.52240 0.07600
H 	H 	0.10310 0.45380 0.44380 0.07000
H 	H 	0.85340 0.43840 0.12350 -0.03200
H 	H 	0.66740 0.51560 0.20030 0.09100
H 	H 	0.57340 0.80820 0.08990 0.08900
H 	H 	0.76320 0.72200 0.01550 -0.03600
H 	H 	0.49210 0.70080 0.25520 0.07300
H 	H 	0.42900 0.69320 0.20150 0.06500
H 	H 	0.26200 0.91120 0.44280 -0.04200
H 	H 	0.40830 0.86540 0.34150 0.11300
H 	H 	0.15670 0.95680 0.23740 0.12700
H 	H 	0.01350 0.01000 0.34210 -0.16600
H 	H 	0.45390 0.88880 0.20690 0.08800
H 	H 	0.36720 0.87900 0.17030 0.08200
H 	H 	0.48960 0.35260 0.39940 -0.03600
H 	H 	0.36980 0.37560 0.32700 0.08400
H 	H 	0.19270 0.71620 0.36010 0.08900
H 	H 	0.31260 0.69300 0.43240 -0.03500
H 	H 	0.17370 0.49640 0.29870 0.06200
H 	H 	0.11720 0.63120 0.30010 0.05800
H 	H 	0.15460 0.78120 0.92670 -0.05700
H 	H 	0.33310 0.61280 0.92300 0.10400
H 	H 	0.39010 0.74420 0.06800 0.11000
H 	H 	0.20670 0.90640 0.07210 -0.04900
H 	H 	0.54600 0.56240 0.02240 -0.01400
H 	H 	0.55690 0.54620 0.94380 0.02100
H 	H 	0.29180 0.56160 0.62350 -0.04300
H 	H 	0.18300 0.48440 0.70030 0.08700
H 	H 	0.38160 0.19180 0.58990 0.08500
H 	H 	0.48520 0.27800 0.51550 -0.04000
H 	H 	0.19290 0.29920 0.75520 0.07600
H 	H 	0.12220 0.30680 0.70150 0.06200
H 	H 	0.17320 0.08880 0.94280 -0.03300
H 	H 	0.27370 0.13460 0.84150 0.08100
H 	H 	0.11350 0.04320 0.73740 0.03600
H 	H 	0.02350 0.99000 0.84210 0.04500
H 	H 	0.34270 0.11120 0.70690 0.05600
H 	H 	0.24620 0.12100 0.67030 0.04800
H 	H 	0.15780 0.35260 0.10060 -0.04400
H 	H 	0.25460 0.37560 0.17300 0.06500
H 	H 	0.09110 0.71620 0.13990 0.04000
H 	H 	0.99440 0.69300 0.06760 0.07700
H 	H 	0.32990 0.49640 0.20130 0.06000
H 	H 	0.25160 0.63120 0.19990 0.06100
H 	H 	0.06420 0.78120 0.57330 -0.04100
H 	H 	0.05410 0.61280 0.57700 0.11800
H 	H 	0.86570 0.74420 0.43200 0.11500
H 	H 	0.88690 0.90640 0.42790 -0.02700
H 	H 	0.89160 0.56240 0.47760 0.08000
H 	H 	0.89690 0.54620 0.55620 0.08800
H 	H 	0.14660 0.56160 0.87650 -0.04800
H 	H 	0.33260 0.48440 0.79970 0.09800
H 	H 	0.42660 0.19180 0.91010 0.09500
H 	H 	0.23680 0.27800 0.98450 -0.03200
H 	H 	0.50790 0.29920 0.74480 0.09000
H 	H 	0.57100 0.30680 0.79850 0.08400
H 	H 	0.73800 0.08880 0.55720 -0.03800
H 	H 	0.59170 0.13460 0.65850 0.08200
H 	H 	0.84330 0.04320 0.76260 0.06700
H 	H 	0.98650 0.99000 0.65790 0.07100
H 	H 	0.54610 0.11120 0.79310 0.05700
H 	H 	0.63280 0.12100 0.82970 0.05500
C 	C 	0.57040 0.57400 0.60860 0.10700
C 	C 	0.64180 0.56020 0.65160 -0.21300
C 	C 	0.73030 0.45180 0.66330 0.16200
C 	C 	0.74720 0.35740 0.63200 -0.21200
C 	C 	0.67580 0.37120 0.58890 0.11000
C 	C 	0.80700 0.44040 0.71130 -0.17400
C 	C 	0.79870 0.22780 0.04300 0.05300
C 	C 	0.69010 0.32820 0.04670 -0.20700
C 	C 	0.61630 0.34020 0.00500 0.15100
C 	C 	0.65740 0.25080 0.96080 -0.16700
C 	C 	0.76810 0.15340 0.95810 0.10100
C 	C 	0.49359 0.44642 0.00930 -0.41000
C 	C 	0.68860 0.51460 0.38300 0.12100
C 	C 	0.75460 0.56060 0.33640 -0.21700
C 	C 	0.72810 0.67400 0.34400 0.15300
C 	C 	0.63780 0.73280 0.40140 -0.21100
C 	C 	0.57530 0.68040 0.44620 0.11200
C 	C 	0.79730 0.72580 0.29060 -0.17700
C 	C 	0.84050 0.91960 0.09890 0.14100
C 	C 	0.78150 0.88980 0.15970 -0.23600
C 	C 	0.80280 0.89540 0.22330 0.20200
C 	C 	0.87430 0.94440 0.22140 -0.28400
C 	C 	0.92910 0.97600 0.15760 0.26000
C 	C 	0.74350 0.85420 0.28970 -0.19300
C 	C 	0.85560 0.57400 0.89140 0.14500
C 	C 	0.79800 0.56020 0.84840 -0.24900
C 	C 	0.81790 0.45180 0.83670 0.22200
C 	C 	0.89540 0.35740 0.86800 -0.31200
C 	C 	0.95300 0.37120 0.91110 0.29300
C 	C 	0.75260 0.44040 0.78870 -0.20500
C 	C 	0.97350 0.22780 0.45700 0.15400
C 	C 	0.98170 0.32820 0.45330 -0.12100
C 	C 	0.04350 0.34020 0.49500 0.06400
C 	C 	0.09180 0.25080 0.53920 -0.19200
C 	C 	0.07850 0.15340 0.54190 0.07800
C 	C 	0.05999 0.44642 0.49070 -0.20700
C 	C 	0.79680 0.51460 0.11700 0.11200
C 	C 	0.68480 0.56060 0.16360 -0.20200
C 	C 	0.59790 0.67400 0.15600 0.13300
C 	C 	0.62940 0.73280 0.09860 -0.19900
C 	C 	0.74430 0.68040 0.05380 0.10300
C 	C 	0.47690 0.72580 0.20940 -0.14800
C 	C 	0.23990 0.91960 0.40110 0.13900
C 	C 	0.32870 0.88980 0.34030 -0.24600
C 	C 	0.30180 0.89540 0.27670 0.20500
C 	C 	0.18130 0.94440 0.27860 -0.31000
C 	C 	0.09490 0.97600 0.34240 0.26600
C 	C 	0.40230 0.85420 0.21030 -0.21300
C 	C 	0.42960 0.42600 0.39140 0.09700
C 	C 	0.35820 0.43980 0.34840 -0.20300
C 	C 	0.26970 0.54820 0.33670 0.14200
C 	C 	0.25280 0.64260 0.36800 -0.20200
C 	C 	0.32420 0.62880 0.41110 0.09800
C 	C 	0.19300 0.55960 0.28870 -0.17400
C 	C 	0.20130 0.77220 0.95700 0.18200
C 	C 	0.30990 0.67180 0.95330 -0.22500
C 	C 	0.38370 0.65980 0.99500 0.16800
C 	C 	0.34260 0.74920 0.03920 -0.26900
C 	C 	0.23190 0.84660 0.04190 0.13300
C 	C 	0.50641 0.55358 0.99070 0.05400
C 	C 	0.31140 0.48540 0.61700 0.11300
C 	C 	0.24540 0.43940 0.66360 -0.21200
C 	C 	0.27190 0.32600 0.65600 0.14200
C 	C 	0.36220 0.26720 0.59860 -0.20500
C 	C 	0.42470 0.31960 0.55380 0.10600
C 	C 	0.20270 0.27420 0.70940 -0.18500
C 	C 	0.15950 0.08040 0.90110 0.07900
C 	C 	0.21850 0.11020 0.84030 -0.17200
C 	C 	0.19720 0.10460 0.77670 0.08600
C 	C 	0.12570 0.05560 0.77860 -0.12900
C 	C 	0.07090 0.02400 0.84240 -0.04300
C 	C 	0.25650 0.14580 0.71030 -0.13100
C 	C 	0.14440 0.42600 0.10860 0.05700
C 	C 	0.20200 0.43980 0.15160 -0.16500
C 	C 	0.18210 0.54820 0.16330 0.07900
C 	C 	0.10460 0.64260 0.13200 -0.09600
C 	C 	0.04700 0.62880 0.08890 -0.09200
C 	C 	0.24740 0.55960 0.21130 -0.14100
C 	C 	0.02650 0.77220 0.54300 0.08800
C 	C 	0.01830 0.67180 0.54670 -0.31000
C 	C 	0.95650 0.65980 0.50500 0.25200
C 	C 	0.90820 0.74920 0.46080 -0.24700
C 	C 	0.92150 0.84660 0.45810 0.15500
C 	C 	0.94001 0.55358 0.50930 -0.14700
C 	C 	0.20320 0.48540 0.88300 0.11800
C 	C 	0.31520 0.43940 0.83640 -0.22200
C 	C 	0.40210 0.32600 0.84400 0.15600
C 	C 	0.37060 0.26720 0.90140 -0.21300
C 	C 	0.25570 0.31960 0.94620 0.11300
C 	C 	0.52310 0.27420 0.79060 -0.20300
C 	C 	0.76010 0.08040 0.59890 0.08900
C 	C 	0.67130 0.11020 0.65970 -0.17500
C 	C 	0.69820 0.10460 0.72330 0.10000
C 	C 	0.81870 0.05560 0.72140 -0.13100
C 	C 	0.90510 0.02400 0.65760 -0.00500
C 	C 	0.59770 0.14580 0.78970 -0.12700
N 	N 	0.58750 0.47940 0.57720 -0.24400
N 	N 	0.84027 0.14266 0.99800 -0.20600
N 	N 	0.59875 0.57270 0.43654 -0.25600
N 	N 	0.91728 0.96024 0.09689 -0.25100
N 	N 	0.93310 0.47940 0.92280 -0.24700
N 	N 	0.01707 0.14266 0.50200 -0.30200
N 	N 	0.82855 0.57270 0.06346 -0.24300
N 	N 	0.12248 0.96024 0.40311 -0.27700
N 	N 	0.41250 0.52060 0.42280 -0.24200
N 	N 	0.15973 0.85734 0.00200 -0.28800
N 	N 	0.40125 0.42730 0.56346 -0.25500
N 	N 	0.08272 0.03976 0.90311 -0.22800
N 	N 	0.06690 0.52060 0.07720 -0.22600
N 	N 	0.98293 0.85734 0.49800 -0.20600
N 	N 	0.17145 0.42730 0.93654 -0.25100
N 	N 	0.87752 0.03976 0.59689 -0.21500
