data_crystal

_cell_length_a 10.28460
_cell_length_b 10.28460
_cell_length_c 20.02770
_cell_angle_alpha 90.00000
_cell_angle_beta  90.00000
_cell_angle_gamma 120.00000

_symmetry_space_group_name_	'P 1'
_symmetry_space_group_name_H-M	'P 1'

loop_
_symmetry_equiv_pos_as_xyz
  x,y,z

loop_
_atom_site_label
_atom_site_type_symbol
_atom_site_fract_x
_atom_site_fract_y
_atom_site_fract_z
_atom_site_charge
O 	O 	0.54260 0.49610 0.68110 -0.49000
O 	O 	0.43790 0.26250 0.64540 -0.49700
C 	C 	0.48980 0.39640 0.63540 0.43100
C 	C 	0.49510 0.45160 0.56500 -0.11400
C 	C 	0.45130 0.35070 0.51320 -0.02000
H 	H 	0.41680 0.24770 0.52190 0.04100
C 	C 	0.45800 0.39970 0.44810 -0.00100
H 	H 	0.42920 0.33020 0.41230 0.01500
O 	O 	0.50390 0.04650 0.68110 -0.49100
O 	O 	0.73750 0.17540 0.64540 -0.49800
C 	C 	0.60360 0.09340 0.63540 0.43000
C 	C 	0.54840 0.04350 0.56500 -0.11500
C 	C 	0.64930 0.10060 0.51320 -0.02100
H 	H 	0.75230 0.16910 0.52190 0.04000
C 	C 	0.60030 0.05830 0.44810 -0.00200
H 	H 	0.66980 0.09900 0.41230 0.01400
O 	O 	0.95350 0.45740 0.68110 -0.49100
O 	O 	0.82460 0.56210 0.64540 -0.49800
C 	C 	0.90660 0.51020 0.63540 0.43000
C 	C 	0.95650 0.50490 0.56500 -0.11500
C 	C 	0.89940 0.54870 0.51320 -0.02100
H 	H 	0.83090 0.58320 0.52190 0.04000
C 	C 	0.94170 0.54200 0.44810 -0.00200
H 	H 	0.90100 0.57080 0.41230 0.01400
O 	O 	0.45740 0.50390 0.18110 -0.49100
O 	O 	0.56210 0.73750 0.14540 -0.49800
C 	C 	0.51020 0.60360 0.13540 0.43000
C 	C 	0.50490 0.54840 0.06500 -0.11500
C 	C 	0.54870 0.64930 0.01320 -0.02100
H 	H 	0.58320 0.75230 0.02190 0.04000
C 	C 	0.54200 0.60030 0.94810 -0.00200
H 	H 	0.57080 0.66980 0.91230 0.01400
O 	O 	0.49610 0.95350 0.18110 -0.49100
O 	O 	0.26250 0.82460 0.14540 -0.49800
C 	C 	0.39640 0.90660 0.13540 0.43000
C 	C 	0.45160 0.95650 0.06500 -0.11500
C 	C 	0.35070 0.89940 0.01320 -0.02100
H 	H 	0.24770 0.83090 0.02190 0.04000
C 	C 	0.39970 0.94170 0.94810 -0.00200
H 	H 	0.33020 0.90100 0.91230 0.01400
O 	O 	0.04650 0.54260 0.18110 -0.49100
O 	O 	0.17540 0.43790 0.14540 -0.49800
C 	C 	0.09340 0.48980 0.13540 0.43000
C 	C 	0.04350 0.49510 0.06500 -0.11500
C 	C 	0.10060 0.45130 0.01320 -0.02100
H 	H 	0.16910 0.41680 0.02190 0.04000
C 	C 	0.05830 0.45800 0.94810 -0.00200
H 	H 	0.09900 0.42920 0.91230 0.01400
O 	O 	0.45740 0.50390 0.31890 -0.49100
O 	O 	0.56210 0.73750 0.35460 -0.49800
C 	C 	0.51020 0.60360 0.36460 0.43000
C 	C 	0.50490 0.54840 0.43500 -0.11500
C 	C 	0.54870 0.64930 0.48680 -0.02100
H 	H 	0.58320 0.75230 0.47810 0.04000
C 	C 	0.54200 0.60030 0.55190 -0.00200
H 	H 	0.57080 0.66980 0.58770 0.01400
O 	O 	0.49610 0.95350 0.31890 -0.49100
O 	O 	0.26250 0.82460 0.35460 -0.49800
C 	C 	0.39640 0.90660 0.36460 0.43000
C 	C 	0.45160 0.95650 0.43500 -0.11500
C 	C 	0.35070 0.89940 0.48680 -0.02100
H 	H 	0.24770 0.83090 0.47810 0.04000
C 	C 	0.39970 0.94170 0.55190 -0.00200
H 	H 	0.33020 0.90100 0.58770 0.01400
O 	O 	0.04650 0.54260 0.31890 -0.49100
O 	O 	0.17540 0.43790 0.35460 -0.49800
C 	C 	0.09340 0.48980 0.36460 0.43000
C 	C 	0.04350 0.49510 0.43500 -0.11500
C 	C 	0.10060 0.45130 0.48680 -0.02100
H 	H 	0.16910 0.41680 0.47810 0.04000
C 	C 	0.05830 0.45800 0.55190 -0.00200
H 	H 	0.09900 0.42920 0.58770 0.01400
O 	O 	0.54260 0.49610 0.81890 -0.49100
O 	O 	0.43790 0.26250 0.85460 -0.49800
C 	C 	0.48980 0.39640 0.86460 0.43000
C 	C 	0.49510 0.45160 0.93500 -0.11500
C 	C 	0.45130 0.35070 0.98680 -0.02100
H 	H 	0.41680 0.24770 0.97810 0.04000
C 	C 	0.45800 0.39970 0.05190 -0.00200
H 	H 	0.42920 0.33020 0.08770 0.01400
O 	O 	0.50390 0.04650 0.81890 -0.49100
O 	O 	0.73750 0.17540 0.85460 -0.49800
C 	C 	0.60360 0.09340 0.86460 0.43000
C 	C 	0.54840 0.04350 0.93500 -0.11500
C 	C 	0.64930 0.10060 0.98680 -0.02100
H 	H 	0.75230 0.16910 0.97810 0.04000
C 	C 	0.60030 0.05830 0.05190 -0.00200
H 	H 	0.66980 0.09900 0.08770 0.01400
O 	O 	0.95350 0.45740 0.81890 -0.49100
O 	O 	0.82460 0.56210 0.85460 -0.49800
C 	C 	0.90660 0.51020 0.86460 0.43000
C 	C 	0.95650 0.50490 0.93500 -0.11500
C 	C 	0.89940 0.54870 0.98680 -0.02100
H 	H 	0.83090 0.58320 0.97810 0.04000
C 	C 	0.94170 0.54200 0.05190 -0.00200
H 	H 	0.90100 0.57080 0.08770 0.01400
Er	Er	0.74683 0.58530 0.75000 1.47700
Er	Er	0.41470 0.16153 0.75000 1.47700
Er	Er	0.83847 0.25317 0.75000 1.47700
Er	Er	0.25317 0.41470 0.25000 1.47700
Er	Er	0.58530 0.83847 0.25000 1.47700
Er	Er	0.16153 0.74683 0.25000 1.47700
O 	O 	0.66667 0.33333 0.75000 -0.57700
O 	O 	0.33333 0.66667 0.25000 -0.57700
