data_crystal

_cell_length_a 23.38360
_cell_length_b 23.38360
_cell_length_c 23.38360
_cell_angle_alpha 90.00000
_cell_angle_beta  90.00000
_cell_angle_gamma 90.00000

_symmetry_space_group_name_	'P 1'
_symmetry_space_group_name_H-M	'P 1'

loop_
_symmetry_equiv_pos_as_xyz
  x,y,z

loop_
_atom_site_label
_atom_site_type_symbol
_atom_site_fract_x
_atom_site_fract_y
_atom_site_fract_z
_atom_site_charge
Zn	Zn	0.32086 0.73722 0.20690 1.22900
O 	O 	0.43770 0.94410 0.95310 -0.39600
O 	O 	0.44380 0.93410 0.04760 -0.42100
C 	C 	0.37860 0.87700 0.99720 0.00400
O 	O 	0.33360 0.78540 0.14280 -0.47000
C 	C 	0.35370 0.86000 0.94590 0.02200
H 	H 	0.36600 0.87680 0.91100 0.06100
O 	O 	0.30460 0.83020 0.84310 -0.48900
C 	C 	0.42130 0.92210 0.00010 0.26700
C 	C 	0.36320 0.84820 0.04800 -0.02800
H 	H 	0.38080 0.85790 0.08330 0.07100
O 	O 	0.25760 0.75780 0.88590 -0.47200
C 	C 	0.32090 0.80430 0.04540 -0.15100
C 	C 	0.29420 0.79020 0.99490 0.11700
H 	H 	0.26530 0.76170 0.99370 0.03800
C 	C 	0.31110 0.81910 0.94530 -0.11000
O 	O 	0.26850 0.73570 0.09940 -0.31700
C 	C 	0.30310 0.77870 0.10050 0.35800
C 	C 	0.28850 0.80150 0.88640 0.39700
Zn	Zn	0.82086 0.23722 0.70690 1.23100
O 	O 	0.93770 0.44410 0.45310 -0.45800
O 	O 	0.94380 0.43410 0.54760 -0.44100
C 	C 	0.87860 0.37700 0.49720 -0.14200
O 	O 	0.83360 0.28540 0.64280 -0.46400
C 	C 	0.85370 0.36000 0.44590 0.08000
H 	H 	0.86600 0.37680 0.41100 0.03800
O 	O 	0.80460 0.33020 0.34310 -0.49300
C 	C 	0.92130 0.42210 0.50010 0.40800
C 	C 	0.86320 0.34820 0.54800 0.06900
H 	H 	0.88080 0.35790 0.58330 0.04400
O 	O 	0.75760 0.25780 0.38590 -0.47800
C 	C 	0.82090 0.30430 0.54540 -0.12300
C 	C 	0.79420 0.29020 0.49490 0.07100
H 	H 	0.76530 0.26170 0.49370 0.03700
C 	C 	0.81110 0.31910 0.44530 -0.13000
O 	O 	0.76850 0.23570 0.59940 -0.30200
C 	C 	0.80310 0.27870 0.60050 0.35400
C 	C 	0.78850 0.30150 0.38640 0.40100
Zn	Zn	0.67914 0.26278 0.20690 1.23000
O 	O 	0.56230 0.05590 0.95310 -0.42800
O 	O 	0.55620 0.06590 0.04760 -0.44900
C 	C 	0.62140 0.12300 0.99720 -0.00800
O 	O 	0.66640 0.21460 0.14280 -0.47300
C 	C 	0.64630 0.14000 0.94590 0.02700
H 	H 	0.63400 0.12320 0.91100 0.05200
O 	O 	0.69540 0.16980 0.84310 -0.49500
C 	C 	0.57870 0.07790 0.00010 0.27100
C 	C 	0.63680 0.15180 0.04800 -0.02500
H 	H 	0.61920 0.14210 0.08330 0.06300
O 	O 	0.74240 0.24220 0.88590 -0.47200
C 	C 	0.67910 0.19570 0.04540 -0.15600
C 	C 	0.70580 0.20980 0.99490 0.11900
H 	H 	0.73470 0.23830 0.99370 0.03800
C 	C 	0.68890 0.18090 0.94530 -0.11700
O 	O 	0.73150 0.26430 0.09940 -0.31500
C 	C 	0.69690 0.22130 0.10050 0.35700
C 	C 	0.71150 0.19850 0.88640 0.39900
Zn	Zn	0.17914 0.76278 0.70690 1.23000
O 	O 	0.06230 0.55590 0.45310 -0.49100
O 	O 	0.05620 0.56590 0.54760 -0.47700
C 	C 	0.12140 0.62300 0.49720 -0.15700
O 	O 	0.16640 0.71460 0.64280 -0.47100
C 	C 	0.14630 0.64000 0.44590 0.08400
H 	H 	0.13400 0.62320 0.41100 0.02900
O 	O 	0.19540 0.66980 0.34310 -0.49800
C 	C 	0.07870 0.57790 0.50010 0.41400
C 	C 	0.13680 0.65180 0.54800 0.07300
H 	H 	0.11920 0.64210 0.58330 0.03500
O 	O 	0.24240 0.74220 0.38590 -0.47800
C 	C 	0.17910 0.69570 0.54540 -0.13100
C 	C 	0.20580 0.70980 0.49490 0.07300
H 	H 	0.23470 0.73830 0.49370 0.03700
C 	C 	0.18890 0.68090 0.44530 -0.13600
O 	O 	0.23150 0.76430 0.59940 -0.30100
C 	C 	0.19690 0.72130 0.60050 0.35600
C 	C 	0.21150 0.69850 0.38640 0.40100
Zn	Zn	0.67914 0.73722 0.79310 1.23100
O 	O 	0.56230 0.94410 0.04690 -0.52100
O 	O 	0.55620 0.93410 0.95240 -0.46800
C 	C 	0.62140 0.87700 0.00280 -0.28900
O 	O 	0.66640 0.78540 0.85720 -0.46200
C 	C 	0.64630 0.86000 0.05410 0.13800
H 	H 	0.63400 0.87680 0.08900 0.01600
O 	O 	0.69540 0.83020 0.15690 -0.49400
C 	C 	0.57870 0.92210 0.99990 0.55200
C 	C 	0.63680 0.84820 0.95200 0.16700
H 	H 	0.61920 0.85790 0.91670 0.01600
O 	O 	0.74240 0.75780 0.11410 -0.48100
C 	C 	0.67910 0.80430 0.95460 -0.09500
C 	C 	0.70580 0.79020 0.00510 0.02500
H 	H 	0.73470 0.76170 0.00630 0.04000
C 	C 	0.68890 0.81910 0.05470 -0.14600
O 	O 	0.73150 0.73570 0.90060 -0.28300
C 	C 	0.69690 0.77870 0.89950 0.35400
C 	C 	0.71150 0.80150 0.11360 0.40400
Zn	Zn	0.17914 0.23722 0.29310 1.23000
O 	O 	0.06230 0.44410 0.54690 -0.49100
O 	O 	0.05620 0.43410 0.45240 -0.47700
C 	C 	0.12140 0.37700 0.50280 -0.15800
O 	O 	0.16640 0.28540 0.35720 -0.47200
C 	C 	0.14630 0.36000 0.55410 0.08500
H 	H 	0.13400 0.37680 0.58900 0.02900
O 	O 	0.19540 0.33020 0.65690 -0.49800
C 	C 	0.07870 0.42210 0.49990 0.41400
C 	C 	0.13680 0.34820 0.45200 0.07300
H 	H 	0.11920 0.35790 0.41670 0.03400
O 	O 	0.24240 0.25780 0.61410 -0.48000
C 	C 	0.17910 0.30430 0.45460 -0.13200
C 	C 	0.20580 0.29020 0.50510 0.07400
H 	H 	0.23470 0.26170 0.50630 0.03500
C 	C 	0.18890 0.31910 0.55470 -0.13800
O 	O 	0.23150 0.23570 0.40060 -0.30400
C 	C 	0.19690 0.27870 0.39950 0.35700
C 	C 	0.21150 0.30150 0.61360 0.40100
Zn	Zn	0.32086 0.26278 0.79310 1.23100
O 	O 	0.43770 0.05590 0.04690 -0.55500
O 	O 	0.44380 0.06590 0.95240 -0.49900
C 	C 	0.37860 0.12300 0.00280 -0.30500
O 	O 	0.33360 0.21460 0.85720 -0.46700
C 	C 	0.35370 0.14000 0.05410 0.14200
H 	H 	0.36600 0.12320 0.08900 0.00600
O 	O 	0.30460 0.16980 0.15690 -0.50300
C 	C 	0.42130 0.07790 0.99990 0.55500
C 	C 	0.36320 0.15180 0.95200 0.17000
H 	H 	0.38080 0.14210 0.91670 0.00800
O 	O 	0.25760 0.24220 0.11410 -0.48700
C 	C 	0.32090 0.19570 0.95460 -0.10500
C 	C 	0.29420 0.20980 0.00510 0.02800
H 	H 	0.26530 0.23830 0.00630 0.03400
C 	C 	0.31110 0.18090 0.05470 -0.15900
O 	O 	0.26850 0.26430 0.90060 -0.29000
C 	C 	0.30310 0.22130 0.89950 0.35100
C 	C 	0.28850 0.19850 0.11360 0.40400
Zn	Zn	0.82086 0.76278 0.29310 1.23100
O 	O 	0.93770 0.55590 0.54690 -0.45800
O 	O 	0.94380 0.56590 0.45240 -0.44100
C 	C 	0.87860 0.62300 0.50280 -0.14100
O 	O 	0.83360 0.71460 0.35720 -0.46400
C 	C 	0.85370 0.64000 0.55410 0.08000
H 	H 	0.86600 0.62320 0.58900 0.03800
O 	O 	0.80460 0.66980 0.65690 -0.49300
C 	C 	0.92130 0.57790 0.49990 0.40800
C 	C 	0.86320 0.65180 0.45200 0.06900
H 	H 	0.88080 0.64210 0.41670 0.04500
O 	O 	0.75760 0.74220 0.61410 -0.47600
C 	C 	0.82090 0.69570 0.45460 -0.12200
C 	C 	0.79420 0.70980 0.50510 0.07000
H 	H 	0.76530 0.73830 0.50630 0.04000
C 	C 	0.81110 0.68090 0.55470 -0.12900
O 	O 	0.76850 0.76430 0.40060 -0.29900
C 	C 	0.80310 0.72130 0.39950 0.35300
C 	C 	0.78850 0.69850 0.61360 0.40100
Zn	Zn	0.20690 0.32086 0.73722 1.23000
O 	O 	0.95310 0.43770 0.94410 -0.39500
O 	O 	0.04760 0.44380 0.93410 -0.42000
C 	C 	0.99720 0.37860 0.87700 0.00500
O 	O 	0.14280 0.33360 0.78540 -0.46900
C 	C 	0.94590 0.35370 0.86000 0.02300
H 	H 	0.91100 0.36600 0.87680 0.06100
O 	O 	0.84310 0.30460 0.83020 -0.48900
C 	C 	0.00010 0.42130 0.92210 0.26700
C 	C 	0.04800 0.36320 0.84820 -0.02800
H 	H 	0.08330 0.38080 0.85790 0.07100
O 	O 	0.88590 0.25760 0.75780 -0.47200
C 	C 	0.04540 0.32090 0.80430 -0.15100
C 	C 	0.99490 0.29420 0.79020 0.11700
H 	H 	0.99370 0.26530 0.76170 0.03800
C 	C 	0.94530 0.31110 0.81910 -0.11000
O 	O 	0.09940 0.26850 0.73570 -0.31700
C 	C 	0.10050 0.30310 0.77870 0.35800
C 	C 	0.88640 0.28850 0.80150 0.39700
Zn	Zn	0.70690 0.82086 0.23722 1.23100
O 	O 	0.45310 0.93770 0.44410 -0.45800
O 	O 	0.54760 0.94380 0.43410 -0.44100
C 	C 	0.49720 0.87860 0.37700 -0.14200
O 	O 	0.64280 0.83360 0.28540 -0.46400
C 	C 	0.44590 0.85370 0.36000 0.08000
H 	H 	0.41100 0.86600 0.37680 0.03800
O 	O 	0.34310 0.80460 0.33020 -0.49300
C 	C 	0.50010 0.92130 0.42210 0.40800
C 	C 	0.54800 0.86320 0.34820 0.06900
H 	H 	0.58330 0.88080 0.35790 0.04400
O 	O 	0.38590 0.75760 0.25780 -0.47800
C 	C 	0.54540 0.82090 0.30430 -0.12300
C 	C 	0.49490 0.79420 0.29020 0.07100
H 	H 	0.49370 0.76530 0.26170 0.03700
C 	C 	0.44530 0.81110 0.31910 -0.13000
O 	O 	0.59940 0.76850 0.23570 -0.30200
C 	C 	0.60050 0.80310 0.27870 0.35400
C 	C 	0.38640 0.78850 0.30150 0.40100
Zn	Zn	0.20690 0.67914 0.26278 1.23000
O 	O 	0.95310 0.56230 0.05590 -0.42800
O 	O 	0.04760 0.55620 0.06590 -0.44900
C 	C 	0.99720 0.62140 0.12300 -0.00800
O 	O 	0.14280 0.66640 0.21460 -0.47300
C 	C 	0.94590 0.64630 0.14000 0.02700
H 	H 	0.91100 0.63400 0.12320 0.05200
O 	O 	0.84310 0.69540 0.16980 -0.49500
C 	C 	0.00010 0.57870 0.07790 0.27100
C 	C 	0.04800 0.63680 0.15180 -0.02500
H 	H 	0.08330 0.61920 0.14210 0.06300
O 	O 	0.88590 0.74240 0.24220 -0.47200
C 	C 	0.04540 0.67910 0.19570 -0.15600
C 	C 	0.99490 0.70580 0.20980 0.11900
H 	H 	0.99370 0.73470 0.23830 0.03800
C 	C 	0.94530 0.68890 0.18090 -0.11700
O 	O 	0.09940 0.73150 0.26430 -0.31500
C 	C 	0.10050 0.69690 0.22130 0.35700
C 	C 	0.88640 0.71150 0.19850 0.39900
Zn	Zn	0.70690 0.17914 0.76278 1.23000
O 	O 	0.45310 0.06230 0.55590 -0.49100
O 	O 	0.54760 0.05620 0.56590 -0.47700
C 	C 	0.49720 0.12140 0.62300 -0.15700
O 	O 	0.64280 0.16640 0.71460 -0.47100
C 	C 	0.44590 0.14630 0.64000 0.08400
H 	H 	0.41100 0.13400 0.62320 0.02900
O 	O 	0.34310 0.19540 0.66980 -0.49800
C 	C 	0.50010 0.07870 0.57790 0.41400
C 	C 	0.54800 0.13680 0.65180 0.07300
H 	H 	0.58330 0.11920 0.64210 0.03500
O 	O 	0.38590 0.24240 0.74220 -0.47800
C 	C 	0.54540 0.17910 0.69570 -0.13100
C 	C 	0.49490 0.20580 0.70980 0.07300
H 	H 	0.49370 0.23470 0.73830 0.03700
C 	C 	0.44530 0.18890 0.68090 -0.13600
O 	O 	0.59940 0.23150 0.76430 -0.30100
C 	C 	0.60050 0.19690 0.72130 0.35600
C 	C 	0.38640 0.21150 0.69850 0.40100
Zn	Zn	0.79310 0.67914 0.73722 1.23100
O 	O 	0.04690 0.56230 0.94410 -0.52100
O 	O 	0.95240 0.55620 0.93410 -0.46800
C 	C 	0.00280 0.62140 0.87700 -0.28900
O 	O 	0.85720 0.66640 0.78540 -0.46200
C 	C 	0.05410 0.64630 0.86000 0.13800
H 	H 	0.08900 0.63400 0.87680 0.01600
O 	O 	0.15690 0.69540 0.83020 -0.49400
C 	C 	0.99990 0.57870 0.92210 0.55200
C 	C 	0.95200 0.63680 0.84820 0.16700
H 	H 	0.91670 0.61920 0.85790 0.01600
O 	O 	0.11410 0.74240 0.75780 -0.48100
C 	C 	0.95460 0.67910 0.80430 -0.09500
C 	C 	0.00510 0.70580 0.79020 0.02500
H 	H 	0.00630 0.73470 0.76170 0.04000
C 	C 	0.05470 0.68890 0.81910 -0.14600
O 	O 	0.90060 0.73150 0.73570 -0.28300
C 	C 	0.89950 0.69690 0.77870 0.35400
C 	C 	0.11360 0.71150 0.80150 0.40400
Zn	Zn	0.29310 0.17914 0.23722 1.23000
O 	O 	0.54690 0.06230 0.44410 -0.49100
O 	O 	0.45240 0.05620 0.43410 -0.47700
C 	C 	0.50280 0.12140 0.37700 -0.15800
O 	O 	0.35720 0.16640 0.28540 -0.47200
C 	C 	0.55410 0.14630 0.36000 0.08500
H 	H 	0.58900 0.13400 0.37680 0.02900
O 	O 	0.65690 0.19540 0.33020 -0.49800
C 	C 	0.49990 0.07870 0.42210 0.41400
C 	C 	0.45200 0.13680 0.34820 0.07300
H 	H 	0.41670 0.11920 0.35790 0.03400
O 	O 	0.61410 0.24240 0.25780 -0.48000
C 	C 	0.45460 0.17910 0.30430 -0.13200
C 	C 	0.50510 0.20580 0.29020 0.07400
H 	H 	0.50630 0.23470 0.26170 0.03500
C 	C 	0.55470 0.18890 0.31910 -0.13800
O 	O 	0.40060 0.23150 0.23570 -0.30400
C 	C 	0.39950 0.19690 0.27870 0.35700
C 	C 	0.61360 0.21150 0.30150 0.40100
Zn	Zn	0.79310 0.32086 0.26278 1.23100
O 	O 	0.04690 0.43770 0.05590 -0.55500
O 	O 	0.95240 0.44380 0.06590 -0.49900
C 	C 	0.00280 0.37860 0.12300 -0.30500
O 	O 	0.85720 0.33360 0.21460 -0.46700
C 	C 	0.05410 0.35370 0.14000 0.14200
H 	H 	0.08900 0.36600 0.12320 0.00600
O 	O 	0.15690 0.30460 0.16980 -0.50300
C 	C 	0.99990 0.42130 0.07790 0.55500
C 	C 	0.95200 0.36320 0.15180 0.17000
H 	H 	0.91670 0.38080 0.14210 0.00800
O 	O 	0.11410 0.25760 0.24220 -0.48700
C 	C 	0.95460 0.32090 0.19570 -0.10500
C 	C 	0.00510 0.29420 0.20980 0.02800
H 	H 	0.00630 0.26530 0.23830 0.03400
C 	C 	0.05470 0.31110 0.18090 -0.15900
O 	O 	0.90060 0.26850 0.26430 -0.29000
C 	C 	0.89950 0.30310 0.22130 0.35100
C 	C 	0.11360 0.28850 0.19850 0.40400
Zn	Zn	0.29310 0.82086 0.76278 1.23100
O 	O 	0.54690 0.93770 0.55590 -0.45800
O 	O 	0.45240 0.94380 0.56590 -0.44100
C 	C 	0.50280 0.87860 0.62300 -0.14100
O 	O 	0.35720 0.83360 0.71460 -0.46400
C 	C 	0.55410 0.85370 0.64000 0.08000
H 	H 	0.58900 0.86600 0.62320 0.03800
O 	O 	0.65690 0.80460 0.66980 -0.49300
C 	C 	0.49990 0.92130 0.57790 0.40800
C 	C 	0.45200 0.86320 0.65180 0.06900
H 	H 	0.41670 0.88080 0.64210 0.04500
O 	O 	0.61410 0.75760 0.74220 -0.47600
C 	C 	0.45460 0.82090 0.69570 -0.12200
C 	C 	0.50510 0.79420 0.70980 0.07000
H 	H 	0.50630 0.76530 0.73830 0.04000
C 	C 	0.55470 0.81110 0.68090 -0.12900
O 	O 	0.40060 0.76850 0.76430 -0.29900
C 	C 	0.39950 0.80310 0.72130 0.35300
C 	C 	0.61360 0.78850 0.69850 0.40100
Zn	Zn	0.73722 0.20690 0.32086 1.23000
O 	O 	0.94410 0.95310 0.43770 -0.39500
O 	O 	0.93410 0.04760 0.44380 -0.42000
C 	C 	0.87700 0.99720 0.37860 0.00500
O 	O 	0.78540 0.14280 0.33360 -0.46900
C 	C 	0.86000 0.94590 0.35370 0.02300
H 	H 	0.87680 0.91100 0.36600 0.06100
O 	O 	0.83020 0.84310 0.30460 -0.48900
C 	C 	0.92210 0.00010 0.42130 0.26700
C 	C 	0.84820 0.04800 0.36320 -0.02800
H 	H 	0.85790 0.08330 0.38080 0.07100
O 	O 	0.75780 0.88590 0.25760 -0.47200
C 	C 	0.80430 0.04540 0.32090 -0.15100
C 	C 	0.79020 0.99490 0.29420 0.11700
H 	H 	0.76170 0.99370 0.26530 0.03800
C 	C 	0.81910 0.94530 0.31110 -0.11000
O 	O 	0.73570 0.09940 0.26850 -0.31700
C 	C 	0.77870 0.10050 0.30310 0.35800
C 	C 	0.80150 0.88640 0.28850 0.39700
Zn	Zn	0.23722 0.70690 0.82086 1.23100
O 	O 	0.44410 0.45310 0.93770 -0.45800
O 	O 	0.43410 0.54760 0.94380 -0.44100
C 	C 	0.37700 0.49720 0.87860 -0.14200
O 	O 	0.28540 0.64280 0.83360 -0.46400
C 	C 	0.36000 0.44590 0.85370 0.08000
H 	H 	0.37680 0.41100 0.86600 0.03800
O 	O 	0.33020 0.34310 0.80460 -0.49300
C 	C 	0.42210 0.50010 0.92130 0.40800
C 	C 	0.34820 0.54800 0.86320 0.06900
H 	H 	0.35790 0.58330 0.88080 0.04400
O 	O 	0.25780 0.38590 0.75760 -0.47800
C 	C 	0.30430 0.54540 0.82090 -0.12300
C 	C 	0.29020 0.49490 0.79420 0.07100
H 	H 	0.26170 0.49370 0.76530 0.03700
C 	C 	0.31910 0.44530 0.81110 -0.13000
O 	O 	0.23570 0.59940 0.76850 -0.30200
C 	C 	0.27870 0.60050 0.80310 0.35400
C 	C 	0.30150 0.38640 0.78850 0.40100
Zn	Zn	0.26278 0.20690 0.67914 1.23000
O 	O 	0.05590 0.95310 0.56230 -0.42800
O 	O 	0.06590 0.04760 0.55620 -0.44900
C 	C 	0.12300 0.99720 0.62140 -0.00800
O 	O 	0.21460 0.14280 0.66640 -0.47300
C 	C 	0.14000 0.94590 0.64630 0.02700
H 	H 	0.12320 0.91100 0.63400 0.05200
O 	O 	0.16980 0.84310 0.69540 -0.49500
C 	C 	0.07790 0.00010 0.57870 0.27100
C 	C 	0.15180 0.04800 0.63680 -0.02500
H 	H 	0.14210 0.08330 0.61920 0.06300
O 	O 	0.24220 0.88590 0.74240 -0.47200
C 	C 	0.19570 0.04540 0.67910 -0.15600
C 	C 	0.20980 0.99490 0.70580 0.11900
H 	H 	0.23830 0.99370 0.73470 0.03800
C 	C 	0.18090 0.94530 0.68890 -0.11700
O 	O 	0.26430 0.09940 0.73150 -0.31500
C 	C 	0.22130 0.10050 0.69690 0.35700
C 	C 	0.19850 0.88640 0.71150 0.39900
Zn	Zn	0.76278 0.70690 0.17914 1.23000
O 	O 	0.55590 0.45310 0.06230 -0.49100
O 	O 	0.56590 0.54760 0.05620 -0.47700
C 	C 	0.62300 0.49720 0.12140 -0.15700
O 	O 	0.71460 0.64280 0.16640 -0.47100
C 	C 	0.64000 0.44590 0.14630 0.08400
H 	H 	0.62320 0.41100 0.13400 0.02900
O 	O 	0.66980 0.34310 0.19540 -0.49800
C 	C 	0.57790 0.50010 0.07870 0.41400
C 	C 	0.65180 0.54800 0.13680 0.07300
H 	H 	0.64210 0.58330 0.11920 0.03500
O 	O 	0.74220 0.38590 0.24240 -0.47800
C 	C 	0.69570 0.54540 0.17910 -0.13100
C 	C 	0.70980 0.49490 0.20580 0.07300
H 	H 	0.73830 0.49370 0.23470 0.03700
C 	C 	0.68090 0.44530 0.18890 -0.13600
O 	O 	0.76430 0.59940 0.23150 -0.30100
C 	C 	0.72130 0.60050 0.19690 0.35600
C 	C 	0.69850 0.38640 0.21150 0.40100
Zn	Zn	0.73722 0.79310 0.67914 1.23100
O 	O 	0.94410 0.04690 0.56230 -0.52100
O 	O 	0.93410 0.95240 0.55620 -0.46800
C 	C 	0.87700 0.00280 0.62140 -0.28900
O 	O 	0.78540 0.85720 0.66640 -0.46200
C 	C 	0.86000 0.05410 0.64630 0.13800
H 	H 	0.87680 0.08900 0.63400 0.01600
O 	O 	0.83020 0.15690 0.69540 -0.49400
C 	C 	0.92210 0.99990 0.57870 0.55200
C 	C 	0.84820 0.95200 0.63680 0.16700
H 	H 	0.85790 0.91670 0.61920 0.01600
O 	O 	0.75780 0.11410 0.74240 -0.48100
C 	C 	0.80430 0.95460 0.67910 -0.09500
C 	C 	0.79020 0.00510 0.70580 0.02500
H 	H 	0.76170 0.00630 0.73470 0.04000
C 	C 	0.81910 0.05470 0.68890 -0.14600
O 	O 	0.73570 0.90060 0.73150 -0.28300
C 	C 	0.77870 0.89950 0.69690 0.35400
C 	C 	0.80150 0.11360 0.71150 0.40400
Zn	Zn	0.23722 0.29310 0.17914 1.23000
O 	O 	0.44410 0.54690 0.06230 -0.49100
O 	O 	0.43410 0.45240 0.05620 -0.47700
C 	C 	0.37700 0.50280 0.12140 -0.15800
O 	O 	0.28540 0.35720 0.16640 -0.47200
C 	C 	0.36000 0.55410 0.14630 0.08500
H 	H 	0.37680 0.58900 0.13400 0.02900
O 	O 	0.33020 0.65690 0.19540 -0.49800
C 	C 	0.42210 0.49990 0.07870 0.41400
C 	C 	0.34820 0.45200 0.13680 0.07300
H 	H 	0.35790 0.41670 0.11920 0.03400
O 	O 	0.25780 0.61410 0.24240 -0.48000
C 	C 	0.30430 0.45460 0.17910 -0.13200
C 	C 	0.29020 0.50510 0.20580 0.07400
H 	H 	0.26170 0.50630 0.23470 0.03500
C 	C 	0.31910 0.55470 0.18890 -0.13800
O 	O 	0.23570 0.40060 0.23150 -0.30400
C 	C 	0.27870 0.39950 0.19690 0.35700
C 	C 	0.30150 0.61360 0.21150 0.40100
Zn	Zn	0.26278 0.79310 0.32086 1.23100
O 	O 	0.05590 0.04690 0.43770 -0.55500
O 	O 	0.06590 0.95240 0.44380 -0.49900
C 	C 	0.12300 0.00280 0.37860 -0.30500
O 	O 	0.21460 0.85720 0.33360 -0.46700
C 	C 	0.14000 0.05410 0.35370 0.14200
H 	H 	0.12320 0.08900 0.36600 0.00600
O 	O 	0.16980 0.15690 0.30460 -0.50300
C 	C 	0.07790 0.99990 0.42130 0.55500
C 	C 	0.15180 0.95200 0.36320 0.17000
H 	H 	0.14210 0.91670 0.38080 0.00800
O 	O 	0.24220 0.11410 0.25760 -0.48700
C 	C 	0.19570 0.95460 0.32090 -0.10500
C 	C 	0.20980 0.00510 0.29420 0.02800
H 	H 	0.23830 0.00630 0.26530 0.03400
C 	C 	0.18090 0.05470 0.31110 -0.15900
O 	O 	0.26430 0.90060 0.26850 -0.29000
C 	C 	0.22130 0.89950 0.30310 0.35100
C 	C 	0.19850 0.11360 0.28850 0.40400
Zn	Zn	0.76278 0.29310 0.82086 1.23100
O 	O 	0.55590 0.54690 0.93770 -0.45800
O 	O 	0.56590 0.45240 0.94380 -0.44100
C 	C 	0.62300 0.50280 0.87860 -0.14100
O 	O 	0.71460 0.35720 0.83360 -0.46400
C 	C 	0.64000 0.55410 0.85370 0.08000
H 	H 	0.62320 0.58900 0.86600 0.03800
O 	O 	0.66980 0.65690 0.80460 -0.49300
C 	C 	0.57790 0.49990 0.92130 0.40800
C 	C 	0.65180 0.45200 0.86320 0.06900
H 	H 	0.64210 0.41670 0.88080 0.04500
O 	O 	0.74220 0.61410 0.75760 -0.47600
C 	C 	0.69570 0.45460 0.82090 -0.12200
C 	C 	0.70980 0.50510 0.79420 0.07000
H 	H 	0.73830 0.50630 0.76530 0.04000
C 	C 	0.68090 0.55470 0.81110 -0.12900
O 	O 	0.76430 0.40060 0.76850 -0.29900
C 	C 	0.72130 0.39950 0.80310 0.35300
C 	C 	0.69850 0.61360 0.78850 0.40100
Zn	Zn	0.50000 0.00000 0.93624 1.19100
Zn	Zn	0.00000 0.50000 0.43624 1.18700
Zn	Zn	0.50000 0.00000 0.06376 1.18400
Zn	Zn	0.00000 0.50000 0.56376 1.18700
Zn	Zn	0.93624 0.50000 -0.00000 1.19100
Zn	Zn	0.43624 0.00000 0.50000 1.18700
Zn	Zn	0.06376 0.50000 -0.00000 1.18400
Zn	Zn	0.56376 0.00000 0.50000 1.18700
Zn	Zn	0.00000 0.93624 0.50000 1.19100
Zn	Zn	0.50000 0.43624 -0.00000 1.18700
Zn	Zn	0.00000 0.06376 0.50000 1.18400
Zn	Zn	0.50000 0.56376 -0.00000 1.18700
O 	O 	0.24990 0.75010 0.24990 -0.72600
O 	O 	0.74990 0.25010 0.74990 -0.72400
O 	O 	0.75010 0.24990 0.24990 -0.72600
O 	O 	0.25010 0.74990 0.74990 -0.72400
O 	O 	0.75010 0.75010 0.75010 -0.72000
O 	O 	0.25010 0.25010 0.25010 -0.72600
O 	O 	0.24990 0.24990 0.75010 -0.72600
O 	O 	0.74990 0.74990 0.25010 -0.72400
