data_crystal

_cell_length_a 20.49680
_cell_length_b 20.49680
_cell_length_c 17.81830
_cell_angle_alpha 90.00000
_cell_angle_beta  90.00000
_cell_angle_gamma 90.00000

_symmetry_space_group_name_	'P 1'
_symmetry_space_group_name_H-M	'P 1'

loop_
_symmetry_equiv_pos_as_xyz
  x,y,z

loop_
_atom_site_label
_atom_site_type_symbol
_atom_site_fract_x
_atom_site_fract_y
_atom_site_fract_z
_atom_site_charge
Zn	Zn	0.25772 0.11906 0.85942 1.23200
C 	C 	0.14210 0.21550 0.69890 -0.13100
C 	C 	0.14370 0.22620 0.62220 0.06700
H 	H 	0.17960 0.20980 0.59320 0.03700
C 	C 	0.09430 0.26080 0.58730 -0.11300
C 	C 	0.04090 0.28390 0.62970 0.06100
H 	H 	0.00730 0.30920 0.60590 0.03700
C 	C 	0.03750 0.27030 0.70650 -0.12400
C 	C 	0.08800 0.23630 0.74070 0.07300
H 	H 	0.08600 0.22690 0.79340 0.04800
C 	C 	0.19750 0.18010 0.73650 0.39900
C 	C 	0.09250 0.27190 0.50400 0.34300
C 	C 	0.97860 0.28970 0.74900 0.37900
O 	O 	0.24201 0.15970 0.69700 -0.47200
O 	O 	0.19216 0.17310 0.80719 -0.46400
O 	O 	0.13010 0.23660 0.46440 -0.44800
O 	O 	0.05430 0.31090 0.47680 -0.30700
O 	O 	0.94565 0.33756 0.72310 -0.43000
O 	O 	0.96571 0.25720 0.80790 -0.44900
Zn	Zn	0.75772 0.61906 0.35942 1.23200
C 	C 	0.64210 0.71550 0.19890 -0.11800
C 	C 	0.64370 0.72620 0.12220 0.02700
H 	H 	0.67960 0.70980 0.09320 0.03400
C 	C 	0.59430 0.76080 0.08730 -0.05500
C 	C 	0.54090 0.78390 0.12970 0.02300
H 	H 	0.50730 0.80920 0.10590 0.03300
C 	C 	0.53750 0.77030 0.20650 -0.11300
C 	C 	0.58800 0.73630 0.24070 0.05800
H 	H 	0.58600 0.72690 0.29340 0.04600
C 	C 	0.69750 0.68010 0.23650 0.39400
C 	C 	0.59250 0.77190 0.00400 0.12800
C 	C 	0.47860 0.78970 0.24900 0.37400
O 	O 	0.74201 0.65970 0.19700 -0.47800
O 	O 	0.69216 0.67310 0.30719 -0.46900
O 	O 	0.63010 0.73660 0.96440 -0.33600
O 	O 	0.55430 0.81090 0.97680 -0.18600
O 	O 	0.44565 0.83756 0.22310 -0.43600
O 	O 	0.46571 0.75720 0.30790 -0.45500
Zn	Zn	0.74228 0.88094 0.85942 1.23300
C 	C 	0.85790 0.78450 0.69890 -0.13000
C 	C 	0.85630 0.77380 0.62220 0.06800
H 	H 	0.82040 0.79020 0.59320 0.03800
C 	C 	0.90570 0.73920 0.58730 -0.11200
C 	C 	0.95910 0.71610 0.62970 0.06200
H 	H 	0.99270 0.69080 0.60590 0.03800
C 	C 	0.96250 0.72970 0.70650 -0.12300
C 	C 	0.91200 0.76370 0.74070 0.07300
H 	H 	0.91400 0.77310 0.79340 0.04800
C 	C 	0.80250 0.81990 0.73650 0.39900
C 	C 	0.90750 0.72810 0.50400 0.34300
C 	C 	0.02140 0.71030 0.74900 0.37900
O 	O 	0.75799 0.84030 0.69700 -0.47200
O 	O 	0.80784 0.82690 0.80719 -0.46400
O 	O 	0.86990 0.76340 0.46440 -0.44800
O 	O 	0.94570 0.68910 0.47680 -0.30700
O 	O 	0.05435 0.66244 0.72310 -0.43000
O 	O 	0.03429 0.74280 0.80790 -0.44900
Zn	Zn	0.24228 0.38094 0.35942 1.23200
C 	C 	0.35790 0.28450 0.19890 -0.11800
C 	C 	0.35630 0.27380 0.12220 0.02700
H 	H 	0.32040 0.29020 0.09320 0.03400
C 	C 	0.40570 0.23920 0.08730 -0.05500
C 	C 	0.45910 0.21610 0.12970 0.02300
H 	H 	0.49270 0.19080 0.10590 0.03300
C 	C 	0.46250 0.22970 0.20650 -0.11300
C 	C 	0.41200 0.26370 0.24070 0.05800
H 	H 	0.41400 0.27310 0.29340 0.04600
C 	C 	0.30250 0.31990 0.23650 0.39400
C 	C 	0.40750 0.22810 0.00400 0.12800
C 	C 	0.52140 0.21030 0.24900 0.37400
O 	O 	0.25799 0.34030 0.19700 -0.47800
O 	O 	0.30784 0.32690 0.30719 -0.46900
O 	O 	0.36990 0.26340 0.96440 -0.33600
O 	O 	0.44570 0.18910 0.97680 -0.18600
O 	O 	0.55435 0.16244 0.22310 -0.43600
O 	O 	0.53429 0.24280 0.30790 -0.45500
Zn	Zn	0.88094 0.25772 0.85942 1.23300
C 	C 	0.78450 0.14210 0.69890 -0.13000
C 	C 	0.77380 0.14370 0.62220 0.06800
H 	H 	0.79020 0.17960 0.59320 0.03800
C 	C 	0.73920 0.09430 0.58730 -0.11200
C 	C 	0.71610 0.04090 0.62970 0.06200
H 	H 	0.69080 0.00730 0.60590 0.03800
C 	C 	0.72970 0.03750 0.70650 -0.12300
C 	C 	0.76370 0.08800 0.74070 0.07300
H 	H 	0.77310 0.08600 0.79340 0.04800
C 	C 	0.81990 0.19750 0.73650 0.39900
C 	C 	0.72810 0.09250 0.50400 0.34300
C 	C 	0.71030 0.97860 0.74900 0.37900
O 	O 	0.84030 0.24201 0.69700 -0.47200
O 	O 	0.82690 0.19216 0.80719 -0.46400
O 	O 	0.76340 0.13010 0.46440 -0.44800
O 	O 	0.68910 0.05430 0.47680 -0.30700
O 	O 	0.66244 0.94565 0.72310 -0.43000
O 	O 	0.74280 0.96571 0.80790 -0.44900
Zn	Zn	0.38094 0.75772 0.35942 1.23200
C 	C 	0.28450 0.64210 0.19890 -0.11800
C 	C 	0.27380 0.64370 0.12220 0.02700
H 	H 	0.29020 0.67960 0.09320 0.03400
C 	C 	0.23920 0.59430 0.08730 -0.05500
C 	C 	0.21610 0.54090 0.12970 0.02300
H 	H 	0.19080 0.50730 0.10590 0.03300
C 	C 	0.22970 0.53750 0.20650 -0.11300
C 	C 	0.26370 0.58800 0.24070 0.05800
H 	H 	0.27310 0.58600 0.29340 0.04600
C 	C 	0.31990 0.69750 0.23650 0.39400
C 	C 	0.22810 0.59250 0.00400 0.12800
C 	C 	0.21030 0.47860 0.24900 0.37400
O 	O 	0.34030 0.74201 0.19700 -0.47800
O 	O 	0.32690 0.69216 0.30719 -0.46900
O 	O 	0.26340 0.63010 0.96440 -0.33600
O 	O 	0.18910 0.55430 0.97680 -0.18600
O 	O 	0.16244 0.44565 0.22310 -0.43600
O 	O 	0.24280 0.46571 0.30790 -0.45500
Zn	Zn	0.11906 0.74228 0.85942 1.23300
C 	C 	0.21550 0.85790 0.69890 -0.13000
C 	C 	0.22620 0.85630 0.62220 0.06800
H 	H 	0.20980 0.82040 0.59320 0.03800
C 	C 	0.26080 0.90570 0.58730 -0.11200
C 	C 	0.28390 0.95910 0.62970 0.06200
H 	H 	0.30920 0.99270 0.60590 0.03800
C 	C 	0.27030 0.96250 0.70650 -0.12300
C 	C 	0.23630 0.91200 0.74070 0.07300
H 	H 	0.22690 0.91400 0.79340 0.04800
C 	C 	0.18010 0.80250 0.73650 0.39900
C 	C 	0.27190 0.90750 0.50400 0.34300
C 	C 	0.28970 0.02140 0.74900 0.37900
O 	O 	0.15970 0.75799 0.69700 -0.47200
O 	O 	0.17310 0.80784 0.80719 -0.46400
O 	O 	0.23660 0.86990 0.46440 -0.44800
O 	O 	0.31090 0.94570 0.47680 -0.30700
O 	O 	0.33756 0.05435 0.72310 -0.43000
O 	O 	0.25720 0.03429 0.80790 -0.44900
Zn	Zn	0.61906 0.24228 0.35942 1.23200
C 	C 	0.71550 0.35790 0.19890 -0.11800
C 	C 	0.72620 0.35630 0.12220 0.02700
H 	H 	0.70980 0.32040 0.09320 0.03400
C 	C 	0.76080 0.40570 0.08730 -0.05500
C 	C 	0.78390 0.45910 0.12970 0.02300
H 	H 	0.80920 0.49270 0.10590 0.03300
C 	C 	0.77030 0.46250 0.20650 -0.11300
C 	C 	0.73630 0.41200 0.24070 0.05800
H 	H 	0.72690 0.41400 0.29340 0.04600
C 	C 	0.68010 0.30250 0.23650 0.39400
C 	C 	0.77190 0.40750 0.00400 0.12800
C 	C 	0.78970 0.52140 0.24900 0.37400
O 	O 	0.65970 0.25799 0.19700 -0.47800
O 	O 	0.67310 0.30784 0.30719 -0.46900
O 	O 	0.73660 0.36990 0.96440 -0.33600
O 	O 	0.81090 0.44570 0.97680 -0.18600
O 	O 	0.83756 0.55435 0.22310 -0.43600
O 	O 	0.75720 0.53429 0.30790 -0.45500
Zn	Zn	0.25772 0.88094 0.35942 1.23200
C 	C 	0.14210 0.78450 0.19890 -0.11800
C 	C 	0.14370 0.77380 0.12220 0.02800
H 	H 	0.17960 0.79020 0.09320 0.03400
C 	C 	0.09430 0.73920 0.08730 -0.05500
C 	C 	0.04090 0.71610 0.12970 0.02300
H 	H 	0.00730 0.69080 0.10590 0.03300
C 	C 	0.03750 0.72970 0.20650 -0.11300
C 	C 	0.08800 0.76370 0.24070 0.05800
H 	H 	0.08600 0.77310 0.29340 0.04600
C 	C 	0.19750 0.81990 0.23650 0.39400
C 	C 	0.09250 0.72810 0.00400 0.13000
C 	C 	0.97860 0.71030 0.24900 0.37400
O 	O 	0.24201 0.84030 0.19700 -0.47800
O 	O 	0.19216 0.82690 0.30719 -0.46900
O 	O 	0.13010 0.76340 0.96440 -0.33700
O 	O 	0.05430 0.68910 0.97680 -0.18700
O 	O 	0.94565 0.66244 0.22310 -0.43600
O 	O 	0.96571 0.74280 0.30790 -0.45500
Zn	Zn	0.75772 0.38094 0.85942 1.23300
C 	C 	0.64210 0.28450 0.69890 -0.13000
C 	C 	0.64370 0.27380 0.62220 0.06800
H 	H 	0.67960 0.29020 0.59320 0.03800
C 	C 	0.59430 0.23920 0.58730 -0.11200
C 	C 	0.54090 0.21610 0.62970 0.06200
H 	H 	0.50730 0.19080 0.60590 0.03800
C 	C 	0.53750 0.22970 0.70650 -0.12300
C 	C 	0.58800 0.26370 0.74070 0.07300
H 	H 	0.58600 0.27310 0.79340 0.04800
C 	C 	0.69750 0.31990 0.73650 0.39900
C 	C 	0.59250 0.22810 0.50400 0.34300
C 	C 	0.47860 0.21030 0.74900 0.37900
O 	O 	0.74201 0.34030 0.69700 -0.47200
O 	O 	0.69216 0.32690 0.80719 -0.46300
O 	O 	0.63010 0.26340 0.46440 -0.44800
O 	O 	0.55430 0.18910 0.47680 -0.30700
O 	O 	0.44565 0.16244 0.72310 -0.43000
O 	O 	0.46571 0.24280 0.80790 -0.44900
Zn	Zn	0.74228 0.11906 0.35942 1.23200
C 	C 	0.85790 0.21550 0.19890 -0.11800
C 	C 	0.85630 0.22620 0.12220 0.02800
H 	H 	0.82040 0.20980 0.09320 0.03400
C 	C 	0.90570 0.26080 0.08730 -0.05500
C 	C 	0.95910 0.28390 0.12970 0.02300
H 	H 	0.99270 0.30920 0.10590 0.03300
C 	C 	0.96250 0.27030 0.20650 -0.11300
C 	C 	0.91200 0.23630 0.24070 0.05800
H 	H 	0.91400 0.22690 0.29340 0.04600
C 	C 	0.80250 0.18010 0.23650 0.39400
C 	C 	0.90750 0.27190 0.00400 0.13000
C 	C 	0.02140 0.28970 0.24900 0.37400
O 	O 	0.75799 0.15970 0.19700 -0.47800
O 	O 	0.80784 0.17310 0.30719 -0.46900
O 	O 	0.86990 0.23660 0.96440 -0.33700
O 	O 	0.94570 0.31090 0.97680 -0.18700
O 	O 	0.05435 0.33756 0.22310 -0.43600
O 	O 	0.03429 0.25720 0.30790 -0.45500
Zn	Zn	0.24228 0.61906 0.85942 1.23300
C 	C 	0.35790 0.71550 0.69890 -0.13000
C 	C 	0.35630 0.72620 0.62220 0.06800
H 	H 	0.32040 0.70980 0.59320 0.03800
C 	C 	0.40570 0.76080 0.58730 -0.11200
C 	C 	0.45910 0.78390 0.62970 0.06200
H 	H 	0.49270 0.80920 0.60590 0.03800
C 	C 	0.46250 0.77030 0.70650 -0.12300
C 	C 	0.41200 0.73630 0.74070 0.07300
H 	H 	0.41400 0.72690 0.79340 0.04800
C 	C 	0.30250 0.68010 0.73650 0.39900
C 	C 	0.40750 0.77190 0.50400 0.34300
C 	C 	0.52140 0.78970 0.74900 0.37900
O 	O 	0.25799 0.65970 0.69700 -0.47200
O 	O 	0.30784 0.67310 0.80719 -0.46300
O 	O 	0.36990 0.73660 0.46440 -0.44800
O 	O 	0.44570 0.81090 0.47680 -0.30700
O 	O 	0.55435 0.83756 0.72310 -0.43000
O 	O 	0.53429 0.75720 0.80790 -0.44900
Zn	Zn	0.88094 0.74228 0.35942 1.23200
C 	C 	0.78450 0.85790 0.19890 -0.11800
C 	C 	0.77380 0.85630 0.12220 0.02800
H 	H 	0.79020 0.82040 0.09320 0.03400
C 	C 	0.73920 0.90570 0.08730 -0.05500
C 	C 	0.71610 0.95910 0.12970 0.02300
H 	H 	0.69080 0.99270 0.10590 0.03300
C 	C 	0.72970 0.96250 0.20650 -0.11300
C 	C 	0.76370 0.91200 0.24070 0.05800
H 	H 	0.77310 0.91400 0.29340 0.04600
C 	C 	0.81990 0.80250 0.23650 0.39400
C 	C 	0.72810 0.90750 0.00400 0.13000
C 	C 	0.71030 0.02140 0.24900 0.37400
O 	O 	0.84030 0.75799 0.19700 -0.47800
O 	O 	0.82690 0.80784 0.30719 -0.46900
O 	O 	0.76340 0.86990 0.96440 -0.33700
O 	O 	0.68910 0.94570 0.97680 -0.18700
O 	O 	0.66244 0.05435 0.22310 -0.43600
O 	O 	0.74280 0.03429 0.30790 -0.45500
Zn	Zn	0.38094 0.24228 0.85942 1.23300
C 	C 	0.28450 0.35790 0.69890 -0.13000
C 	C 	0.27380 0.35630 0.62220 0.06800
H 	H 	0.29020 0.32040 0.59320 0.03800
C 	C 	0.23920 0.40570 0.58730 -0.11200
C 	C 	0.21610 0.45910 0.62970 0.06200
H 	H 	0.19080 0.49270 0.60590 0.03800
C 	C 	0.22970 0.46250 0.70650 -0.12300
C 	C 	0.26370 0.41200 0.74070 0.07300
H 	H 	0.27310 0.41400 0.79340 0.04800
C 	C 	0.31990 0.30250 0.73650 0.39900
C 	C 	0.22810 0.40750 0.50400 0.34300
C 	C 	0.21030 0.52140 0.74900 0.37900
O 	O 	0.34030 0.25799 0.69700 -0.47200
O 	O 	0.32690 0.30784 0.80719 -0.46300
O 	O 	0.26340 0.36990 0.46440 -0.44800
O 	O 	0.18910 0.44570 0.47680 -0.30700
O 	O 	0.16244 0.55435 0.72310 -0.43000
O 	O 	0.24280 0.53429 0.80790 -0.44900
Zn	Zn	0.11906 0.25772 0.35942 1.23200
C 	C 	0.21550 0.14210 0.19890 -0.11800
C 	C 	0.22620 0.14370 0.12220 0.02800
H 	H 	0.20980 0.17960 0.09320 0.03400
C 	C 	0.26080 0.09430 0.08730 -0.05500
C 	C 	0.28390 0.04090 0.12970 0.02300
H 	H 	0.30920 0.00730 0.10590 0.03300
C 	C 	0.27030 0.03750 0.20650 -0.11300
C 	C 	0.23630 0.08800 0.24070 0.05800
H 	H 	0.22690 0.08600 0.29340 0.04600
C 	C 	0.18010 0.19750 0.23650 0.39400
C 	C 	0.27190 0.09250 0.00400 0.13000
C 	C 	0.28970 0.97860 0.24900 0.37400
O 	O 	0.15970 0.24201 0.19700 -0.47800
O 	O 	0.17310 0.19216 0.30719 -0.46900
O 	O 	0.23660 0.13010 0.96440 -0.33700
O 	O 	0.31090 0.05430 0.97680 -0.18700
O 	O 	0.33756 0.94565 0.22310 -0.43600
O 	O 	0.25720 0.96571 0.30790 -0.45500
Zn	Zn	0.61906 0.75772 0.85942 1.23300
C 	C 	0.71550 0.64210 0.69890 -0.13000
C 	C 	0.72620 0.64370 0.62220 0.06800
H 	H 	0.70980 0.67960 0.59320 0.03800
C 	C 	0.76080 0.59430 0.58730 -0.11200
C 	C 	0.78390 0.54090 0.62970 0.06200
H 	H 	0.80920 0.50730 0.60590 0.03800
C 	C 	0.77030 0.53750 0.70650 -0.12300
C 	C 	0.73630 0.58800 0.74070 0.07300
H 	H 	0.72690 0.58600 0.79340 0.04800
C 	C 	0.68010 0.69750 0.73650 0.39900
C 	C 	0.77190 0.59250 0.50400 0.34300
C 	C 	0.78970 0.47860 0.74900 0.37900
O 	O 	0.65970 0.74201 0.69700 -0.47200
O 	O 	0.67310 0.69216 0.80719 -0.46300
O 	O 	0.73660 0.63010 0.46440 -0.44800
O 	O 	0.81090 0.55430 0.47680 -0.30700
O 	O 	0.83756 0.44565 0.72310 -0.43000
O 	O 	0.75720 0.46571 0.80790 -0.44900
Zn	Zn	0.34443 0.15557 0.71367 1.21400
O 	O 	0.34070 0.15930 0.83140 -0.66000
Zn	Zn	0.65557 0.84443 0.71367 1.21400
O 	O 	0.65930 0.84070 0.83140 -0.66000
Zn	Zn	0.15557 0.34443 0.21367 1.21100
O 	O 	0.15930 0.34070 0.33140 -0.66300
Zn	Zn	0.84443 0.34443 0.71367 1.21400
O 	O 	0.84070 0.34070 0.83140 -0.66000
Zn	Zn	0.15557 0.65557 0.71367 1.21400
O 	O 	0.15930 0.65930 0.83140 -0.66000
Zn	Zn	0.34443 0.84443 0.21367 1.21100
O 	O 	0.34070 0.84070 0.33140 -0.66300
Zn	Zn	0.65557 0.15557 0.21367 1.21100
O 	O 	0.65930 0.15930 0.33140 -0.66300
Zn	Zn	0.84443 0.65557 0.21367 1.21100
O 	O 	0.84070 0.65930 0.33140 -0.66300
