data_crystal

_cell_length_a 14.15040
_cell_length_b 19.25700
_cell_length_c 19.43000
_cell_angle_alpha 69.87300
_cell_angle_beta  82.01100
_cell_angle_gamma 75.48400

_symmetry_space_group_name_	'P 1'
_symmetry_space_group_name_H-M	'P 1'

loop_
_symmetry_equiv_pos_as_xyz
  x,y,z

loop_
_atom_site_label
_atom_site_type_symbol
_atom_site_fract_x
_atom_site_fract_y
_atom_site_fract_z
_atom_site_charge
Zn	Zn	0.14162 0.69482 0.07492 1.15700
Zn	Zn	0.64648 0.87853 0.71009 1.21000
Zn	Zn	0.65016 0.47337 0.42777 1.20900
C 	C 	0.74900 0.87124 0.83751 0.13300
H 	H 	0.69210 0.90530 0.84460 -0.03400
O 	O 	0.69393 0.79488 0.66766 -0.42400
O 	O 	0.54488 0.84442 0.62735 -0.30200
O 	O 	0.65850 0.97134 0.63065 -0.44300
C 	C 	0.38490 0.59009 0.31822 -0.18500
H 	H 	0.33260 0.62860 0.32370 0.10000
C 	C 	0.45810 0.55915 0.36744 0.09400
H 	H 	0.45440 0.57820 0.40590 -0.00600
C 	C 	0.53860 0.47478 0.30688 0.10400
H 	H 	0.58990 0.43490 0.30320 -0.01500
O 	O 	0.60732 0.55435 0.47305 -0.44700
O 	O 	0.75725 0.50603 0.51297 -0.32000
C 	C 	0.74460 0.63029 0.56437 0.13300
H 	H 	0.80670 0.60050 0.56080 -0.00300
O 	O 	0.65724 0.37478 0.50240 -0.44900
O 	O 	0.70380 0.33604 0.40571 -0.32000
C 	C 	0.69610 0.18490 0.49320 -0.03000
H 	H 	0.72110 0.19260 0.44490 0.05500
C 	C 	0.90410 0.79365 0.88045 0.19500
N 	N 	0.14839 0.74672 0.96186 -0.28800
C 	C 	0.39880 0.78576 0.88992 0.16300
C 	C 	0.47580 0.88769 0.82273 0.11200
H 	H 	0.47960 0.93790 0.81180 -0.01400
N 	N 	0.53968 0.84455 0.78713 -0.28200
N 	N 	0.76067 0.84977 0.77759 -0.27900
C 	C 	0.55980 0.72000 0.57312 -0.11400
C 	C 	0.73040 0.68810 0.59402 -0.26900
C 	C 	0.63330 0.02230 0.65860 0.29400
C 	C 	0.64670 0.10164 0.60894 -0.02100
N 	N 	0.29237 0.67305 0.07258 -0.28800
C 	C 	0.39200 0.56154 0.25978 0.14900
N 	N 	0.53496 0.50232 0.36213 -0.26900
C 	C 	0.46860 0.50366 0.25514 -0.19700
H 	H 	0.47380 0.48360 0.21720 0.09900
N 	N 	0.14455 0.61465 0.17880 -0.28500
C 	C 	0.89720 0.57144 0.24869 0.16600
N 	N 	0.75469 0.51000 0.34936 -0.28500
C 	C 	0.66440 0.61713 0.53987 -0.14100
C 	C 	0.57320 0.66350 0.54395 0.06700
H 	H 	0.52020 0.65570 0.52640 0.02100
C 	C 	0.67090 0.24432 0.52095 -0.06700
C 	C 	0.82760 0.46705 0.32482 0.12900
H 	H 	0.83060 0.41520 0.34050 -0.02100
C 	C 	0.94380 0.64610 0.12386 0.09600
C 	C 	0.85090 0.65450 0.09674 -0.08500
H 	H 	0.79900 0.63410 0.12380 0.05900
C 	C 	0.85180 0.69740 0.02501 -0.09000
H 	H 	0.80160 0.71130 0.99350 0.06000
C 	C 	0.94620 0.71742 0.00705 0.10400
C 	C 	0.97860 0.76020 0.93723 -0.18000
C 	C 	0.81950 0.84410 0.88956 -0.26600
C 	C 	0.07140 0.77354 0.91607 0.10800
C 	C 	0.10480 0.81781 0.84464 -0.09100
H 	H 	0.06720 0.84250 0.80400 0.06500
C 	C 	0.19950 0.81733 0.84689 -0.08200
H 	H 	0.23930 0.84170 0.80870 0.06300
C 	C 	0.22710 0.77126 0.92052 0.09800
C 	C 	0.32130 0.75321 0.94508 -0.16400
C 	C 	0.40580 0.86073 0.87407 -0.20700
H 	H 	0.36370 0.89180 0.89800 0.09700
C 	C 	0.84410 0.80191 0.76664 0.12300
H 	H 	0.85330 0.78740 0.72480 -0.02300
C 	C 	0.62230 0.79615 0.63256 0.25600
C 	C 	0.63780 0.73337 0.59934 0.06000
C 	C 	0.62050 0.16160 0.63530 -0.10100
C 	C 	0.68410 0.11310 0.53790 -0.01100
C 	C 	0.53350 0.77310 0.80437 0.12300
H 	H 	0.57780 0.74210 0.78140 -0.03000
C 	C 	0.46440 0.74284 0.85480 -0.21600
H 	H 	0.46250 0.69230 0.86500 0.10500
C 	C 	0.35190 0.70632 0.01489 0.09600
C 	C 	0.44970 0.68725 0.03816 -0.08600
H 	H 	0.50380 0.70250 0.00950 0.05900
C 	C 	0.44880 0.64307 0.10943 -0.08600
H 	H 	0.50210 0.62190 0.13870 0.05900
C 	C 	0.34950 0.63499 0.13139 0.09800
C 	C 	0.31630 0.59683 0.20220 -0.15800
C 	C 	0.22060 0.58838 0.22507 0.10000
C 	C 	0.06460 0.59031 0.22103 0.09800
C 	C 	0.97370 0.60363 0.19504 -0.16600
C 	C 	0.81520 0.61780 0.27072 -0.20700
H 	H 	0.80610 0.67030 0.25160 0.10000
C 	C 	0.74690 0.58446 0.32184 0.11400
H 	H 	0.69330 0.61580 0.33750 -0.02800
C 	C 	0.67960 0.55429 0.50741 0.32800
C 	C 	0.67840 0.32341 0.47252 0.30800
C 	C 	0.63270 0.23386 0.59200 0.01000
H 	H 	0.61540 0.27400 0.61070 0.04000
C 	C 	0.90210 0.49530 0.27562 -0.21600
H 	H 	0.95480 0.46220 0.26140 0.10600
C 	C 	0.09190 0.54911 0.29598 -0.08000
H 	H 	0.05130 0.52770 0.33530 0.06600
C 	C 	0.18820 0.54780 0.29781 -0.08800
H 	H 	0.22590 0.52490 0.33860 0.07700
N 	N 	0.00208 0.68433 0.06737 -0.29000
O 	O 	0.59887 0.01361 0.72418 -0.32700
C 	C 	0.91640 0.77390 0.81633 -0.24200
H 	H 	0.73800 0.08300 0.51000 0.04500
H 	H 	0.76600 0.69830 0.61370 0.17900
H 	H 	0.96500 0.73880 0.80520 0.12100
H 	H 	0.49400 0.74500 0.58100 0.08500
H 	H 	0.80400 0.85620 0.92980 0.12900
H 	H 	0.59200 0.16320 0.67310 0.08900
Zn	Zn	0.85838 0.30518 0.92508 1.15800
Zn	Zn	0.35352 0.12147 0.28991 1.21100
Zn	Zn	0.34984 0.52663 0.57223 1.21000
C 	C 	0.25100 0.12876 0.16249 0.13400
H 	H 	0.30790 0.09470 0.15540 -0.03300
O 	O 	0.30607 0.20512 0.33234 -0.42300
O 	O 	0.45512 0.15558 0.37265 -0.30100
O 	O 	0.34150 0.02866 0.36935 -0.44200
C 	C 	0.61510 0.40991 0.68178 -0.18500
H 	H 	0.66740 0.37140 0.67630 0.10000
C 	C 	0.54190 0.44085 0.63256 0.09400
H 	H 	0.54560 0.42180 0.59410 -0.00600
C 	C 	0.46140 0.52522 0.69312 0.10400
H 	H 	0.41010 0.56510 0.69680 -0.01500
O 	O 	0.39268 0.44565 0.52695 -0.44700
O 	O 	0.24275 0.49397 0.48703 -0.32000
C 	C 	0.25540 0.36971 0.43563 0.13300
H 	H 	0.19330 0.39950 0.43920 -0.00300
O 	O 	0.34276 0.62522 0.49760 -0.44900
O 	O 	0.29620 0.66396 0.59429 -0.32000
C 	C 	0.30390 0.81510 0.50680 -0.03000
H 	H 	0.27890 0.80740 0.55510 0.05500
C 	C 	0.09590 0.20635 0.11955 0.19500
N 	N 	0.85161 0.25328 0.03814 -0.28800
C 	C 	0.60120 0.21424 0.11008 0.16300
C 	C 	0.52420 0.11231 0.17727 0.11200
H 	H 	0.52040 0.06210 0.18820 -0.01400
N 	N 	0.46032 0.15545 0.21287 -0.28200
N 	N 	0.23933 0.15023 0.22241 -0.27900
C 	C 	0.44020 0.28000 0.42688 -0.11400
C 	C 	0.26960 0.31190 0.40598 -0.26900
C 	C 	0.36670 0.97770 0.34140 0.29400
C 	C 	0.35330 0.89836 0.39106 -0.02100
N 	N 	0.70763 0.32695 0.92742 -0.28800
C 	C 	0.60800 0.43846 0.74022 0.14900
N 	N 	0.46504 0.49768 0.63787 -0.26900
C 	C 	0.53140 0.49634 0.74486 -0.19700
H 	H 	0.52620 0.51640 0.78280 0.09900
N 	N 	0.85545 0.38535 0.82120 -0.28500
C 	C 	0.10280 0.42856 0.75131 0.16600
N 	N 	0.24531 0.49000 0.65064 -0.28500
C 	C 	0.33560 0.38287 0.46013 -0.14100
C 	C 	0.42680 0.33650 0.45605 0.06700
H 	H 	0.47980 0.34430 0.47360 0.02100
C 	C 	0.32910 0.75568 0.47905 -0.06700
C 	C 	0.17240 0.53295 0.67518 0.12900
H 	H 	0.16940 0.58480 0.65950 -0.02100
C 	C 	0.05620 0.35390 0.87614 0.09600
C 	C 	0.14910 0.34550 0.90326 -0.08500
H 	H 	0.20100 0.36590 0.87620 0.05900
C 	C 	0.14820 0.30260 0.97499 -0.09000
H 	H 	0.19840 0.28870 0.00650 0.06000
C 	C 	0.05380 0.28258 0.99295 0.10400
C 	C 	0.02140 0.23980 0.06277 -0.18000
C 	C 	0.18050 0.15590 0.11044 -0.26600
C 	C 	0.92860 0.22646 0.08393 0.10800
C 	C 	0.89520 0.18219 0.15536 -0.09100
H 	H 	0.93280 0.15750 0.19600 0.06500
C 	C 	0.80050 0.18267 0.15311 -0.08200
H 	H 	0.76070 0.15830 0.19130 0.06300
C 	C 	0.77290 0.22874 0.07948 0.09800
C 	C 	0.67870 0.24679 0.05492 -0.16400
C 	C 	0.59420 0.13927 0.12593 -0.20700
H 	H 	0.63630 0.10820 0.10200 0.09700
C 	C 	0.15590 0.19809 0.23336 0.12300
H 	H 	0.14670 0.21260 0.27520 -0.02300
C 	C 	0.37770 0.20385 0.36744 0.25600
C 	C 	0.36220 0.26663 0.40066 0.06000
C 	C 	0.37950 0.83840 0.36470 -0.10100
C 	C 	0.31590 0.88690 0.46210 -0.01100
C 	C 	0.46650 0.22690 0.19563 0.12300
H 	H 	0.42220 0.25790 0.21860 -0.03000
C 	C 	0.53560 0.25716 0.14520 -0.21600
H 	H 	0.53750 0.30770 0.13500 0.10500
C 	C 	0.64810 0.29368 0.98511 0.09600
C 	C 	0.55030 0.31275 0.96184 -0.08600
H 	H 	0.49620 0.29750 0.99050 0.05900
C 	C 	0.55120 0.35693 0.89057 -0.08600
H 	H 	0.49790 0.37810 0.86130 0.05900
C 	C 	0.65050 0.36501 0.86861 0.09800
C 	C 	0.68370 0.40317 0.79780 -0.15800
C 	C 	0.77940 0.41162 0.77493 0.10000
C 	C 	0.93540 0.40969 0.77897 0.09800
C 	C 	0.02630 0.39637 0.80496 -0.16600
C 	C 	0.18480 0.38220 0.72928 -0.20700
H 	H 	0.19390 0.32970 0.74840 0.10000
C 	C 	0.25310 0.41554 0.67816 0.11400
H 	H 	0.30670 0.38420 0.66250 -0.02800
C 	C 	0.32040 0.44571 0.49259 0.32800
C 	C 	0.32160 0.67659 0.52748 0.30800
C 	C 	0.36730 0.76614 0.40800 0.01000
H 	H 	0.38460 0.72600 0.38930 0.04000
C 	C 	0.09790 0.50470 0.72438 -0.21600
H 	H 	0.04520 0.53780 0.73860 0.10600
C 	C 	0.90810 0.45089 0.70402 -0.08000
H 	H 	0.94870 0.47230 0.66470 0.06600
C 	C 	0.81180 0.45220 0.70219 -0.08800
H 	H 	0.77410 0.47510 0.66140 0.07700
N 	N 	0.99792 0.31567 0.93263 -0.29000
O 	O 	0.40113 0.98639 0.27582 -0.32700
C 	C 	0.08360 0.22610 0.18367 -0.24200
H 	H 	0.26200 0.91700 0.49000 0.04500
H 	H 	0.23400 0.30170 0.38630 0.17900
H 	H 	0.03500 0.26120 0.19480 0.12100
H 	H 	0.50600 0.25500 0.41900 0.08500
H 	H 	0.19600 0.14380 0.07020 0.12900
H 	H 	0.40800 0.83680 0.32690 0.08900
