data_crystal

_cell_length_a 14.12300
_cell_length_b 36.16600
_cell_length_c 18.34100
_cell_angle_alpha 90.00000
_cell_angle_beta  99.38000
_cell_angle_gamma 90.00000

_symmetry_space_group_name_	'P 1'
_symmetry_space_group_name_H-M	'P 1'

loop_
_symmetry_equiv_pos_as_xyz
  x,y,z

loop_
_atom_site_label
_atom_site_type_symbol
_atom_site_fract_x
_atom_site_fract_y
_atom_site_fract_z
_atom_site_charge
Zn	Zn	0.77763 0.57299 0.11491 1.21100
C 	C 	0.31690 0.63660 0.05520 -0.08600
H 	H 	0.35950 0.61690 0.06450 0.06600
O 	O 	0.75210 0.44894 0.70630 -0.50000
C 	C 	0.79150 0.43390 0.76130 0.44100
C 	C 	0.87500 0.46260 0.87100 0.07300
H 	H 	0.93160 0.45690 0.85380 0.01400
C 	C 	0.47930 0.84510 0.94800 0.33400
N 	N 	0.61460 0.89449 0.91070 -0.33400
C 	C 	0.79080 0.45140 0.83450 -0.17600
O 	O 	0.82890 0.40450 0.75450 -0.37500
O 	O 	0.73810 0.54025 0.02960 -0.44400
C 	C 	0.80440 0.51670 0.02880 0.29500
C 	C 	0.79670 0.49080 0.96400 -0.02300
C 	C 	0.70750 0.47620 0.92910 -0.02400
C 	C 	0.62270 0.47943 0.96060 0.01500
H 	H 	0.62400 0.49180 0.00510 0.03000
C 	C 	0.53780 0.46410 0.92490 -0.10600
H 	H 	0.48220 0.46650 0.94550 0.07000
C 	C 	0.53520 0.44600 0.86170 0.04700
H 	H 	0.47730 0.43620 0.83820 0.01200
C 	C 	0.61730 0.44150 0.82980 -0.14300
H 	H 	0.61420 0.42850 0.78570 0.08600
C 	C 	0.70530 0.45664 0.86440 0.11400
C 	C 	0.87650 0.48220 0.93390 -0.08600
H 	H 	0.93570 0.49050 0.95830 0.08300
O 	O 	0.87610 0.51606 0.07740 -0.32700
N 	N 	0.66360 0.61048 0.08950 -0.27200
C 	C 	0.64320 0.63390 0.13780 0.11300
H 	H 	0.67960 0.63420 0.18480 -0.02400
C 	C 	0.56490 0.65960 0.11970 -0.21600
H 	H 	0.55080 0.67630 0.15490 0.09900
C 	C 	0.51170 0.65930 0.05090 0.18100
C 	C 	0.43190 0.68630 0.03190 -0.18100
C 	C 	0.45690 0.72280 0.01710 0.10800
C 	C 	0.55220 0.73490 0.00920 -0.11000
H 	H 	0.60780 0.72070 0.01670 0.06300
C 	C 	0.54520 0.77030 0.98910 -0.07900
H 	H 	0.59510 0.78540 0.97960 0.05900
C 	C 	0.44660 0.78090 0.98500 0.13700
C 	C 	0.41100 0.81580 0.96550 -0.23300
N 	N 	0.39490 0.75144 0.00220 -0.30900
N 	N 	0.25860 0.69545 0.02550 -0.29800
C 	C 	0.53330 0.63420 0.00020 -0.23900
H 	H 	0.49820 0.63300 0.95270 0.12400
C 	C 	0.61020 0.61050 0.02320 0.09900
H 	H 	0.62520 0.59340 0.98910 -0.00000
C 	C 	0.55420 0.87790 0.86410 0.23400
H 	H 	0.55630 0.88150 0.81410 -0.05200
C 	C 	0.48350 0.85410 0.88400 -0.38500
H 	H 	0.43740 0.84470 0.84650 0.17100
C 	C 	0.54260 0.86380 0.00160 -0.37400
H 	H 	0.53960 0.86020 0.05140 0.15300
C 	C 	0.22080 0.63580 0.05620 -0.09000
H 	H 	0.18530 0.61540 0.06660 0.07300
C 	C 	0.33990 0.67420 0.03670 0.10500
C 	C 	0.31550 0.82800 0.96170 0.12700
C 	C 	0.60920 0.88740 0.98120 0.24800
H 	H 	0.65230 0.89900 0.01780 -0.08300
Zn	Zn	0.72237 0.07299 0.38509 1.21300
C 	C 	0.18310 0.13660 0.44480 -0.07800
H 	H 	0.14050 0.11690 0.43550 0.06500
O 	O 	0.74790 0.94894 0.79370 -0.49600
C 	C 	0.70850 0.93390 0.73870 0.43100
C 	C 	0.62500 0.96260 0.62900 0.04200
H 	H 	0.56840 0.95690 0.64620 0.02500
C 	C 	0.02070 0.34510 0.55200 0.26600
N 	N 	0.88540 0.39449 0.58930 -0.31200
C 	C 	0.70920 0.95140 0.66550 -0.15200
O 	O 	0.67110 0.90450 0.74550 -0.37100
O 	O 	0.76190 0.04025 0.47040 -0.44500
C 	C 	0.69560 0.01670 0.47120 0.32000
C 	C 	0.70330 0.99080 0.53600 -0.06400
C 	C 	0.79250 0.97620 0.57090 0.01700
C 	C 	0.87730 0.97943 0.53940 -0.05300
H 	H 	0.87600 0.99180 0.49490 0.06300
C 	C 	0.96220 0.96410 0.57510 -0.05400
H 	H 	0.01780 0.96650 0.55450 0.05000
C 	C 	0.96480 0.94600 0.63830 -0.00100
H 	H 	0.02270 0.93620 0.66180 0.03000
C 	C 	0.88270 0.94150 0.67020 -0.10600
H 	H 	0.88580 0.92850 0.71430 0.07300
C 	C 	0.79470 0.95664 0.63560 0.08100
C 	C 	0.62350 0.98220 0.56610 -0.05300
H 	H 	0.56430 0.99050 0.54170 0.06700
O 	O 	0.62390 0.01606 0.42260 -0.32900
N 	N 	0.83640 0.11048 0.41050 -0.27300
C 	C 	0.85680 0.13390 0.36220 0.11000
H 	H 	0.82040 0.13420 0.31520 -0.02200
C 	C 	0.93510 0.15960 0.38030 -0.21000
H 	H 	0.94920 0.17630 0.34510 0.09700
C 	C 	0.98830 0.15930 0.44910 0.16900
C 	C 	0.06810 0.18630 0.46810 -0.17000
C 	C 	0.04310 0.22280 0.48290 0.10200
C 	C 	0.94780 0.23490 0.49080 -0.08200
H 	H 	0.89220 0.22070 0.48330 0.05700
C 	C 	0.95480 0.27030 0.51090 -0.10300
H 	H 	0.90490 0.28540 0.52040 0.06300
C 	C 	0.05340 0.28090 0.51500 0.12400
C 	C 	0.08900 0.31580 0.53450 -0.20900
N 	N 	0.10510 0.25144 0.49780 -0.29900
N 	N 	0.24140 0.19545 0.47450 -0.29600
C 	C 	0.96670 0.13420 0.49980 -0.21900
H 	H 	0.00180 0.13300 0.54730 0.10800
C 	C 	0.88980 0.11050 0.47680 0.11500
H 	H 	0.87480 0.09340 0.51090 -0.01600
C 	C 	0.94580 0.37790 0.63590 0.19700
H 	H 	0.94370 0.38150 0.68590 -0.04000
C 	C 	0.01650 0.35410 0.61600 -0.32600
H 	H 	0.06260 0.34470 0.65350 0.15200
C 	C 	0.95740 0.36380 0.49840 -0.27700
H 	H 	0.96040 0.36020 0.44860 0.12300
C 	C 	0.27920 0.13580 0.44380 -0.09700
H 	H 	0.31470 0.11540 0.43340 0.07700
C 	C 	0.16010 0.17420 0.46330 0.10200
C 	C 	0.18450 0.32800 0.53830 0.11500
C 	C 	0.89080 0.38740 0.51880 0.16000
H 	H 	0.84770 0.39900 0.48220 -0.04300
Zn	Zn	0.72237 0.92701 0.88509 1.21300
C 	C 	0.18310 0.86340 0.94480 -0.07100
H 	H 	0.14050 0.88310 0.93550 0.06400
O 	O 	0.74790 0.05106 0.29370 -0.49400
C 	C 	0.70850 0.06610 0.23870 0.42300
C 	C 	0.62500 0.03740 0.12900 0.01300
H 	H 	0.56840 0.04310 0.14620 0.03400
C 	C 	0.02070 0.65490 0.05200 0.19800
N 	N 	0.88540 0.60551 0.08930 -0.29200
C 	C 	0.70920 0.04860 0.16550 -0.13000
O 	O 	0.67110 0.09550 0.24550 -0.36900
O 	O 	0.76190 0.95975 0.97040 -0.44600
C 	C 	0.69560 0.98330 0.97120 0.34300
C 	C 	0.70330 0.00920 0.03600 -0.10200
C 	C 	0.79250 0.02380 0.07090 0.05700
C 	C 	0.87730 0.02057 0.03940 -0.12100
H 	H 	0.87600 0.00820 0.99490 0.09600
C 	C 	0.96220 0.03590 0.07510 0.00100
H 	H 	0.01780 0.03350 0.05450 0.02800
C 	C 	0.96480 0.05400 0.13830 -0.04600
H 	H 	0.02270 0.06380 0.16180 0.04600
C 	C 	0.88270 0.05850 0.17020 -0.07000
H 	H 	0.88580 0.07150 0.21430 0.06100
C 	C 	0.79470 0.04336 0.13560 0.04900
C 	C 	0.62350 0.01780 0.06610 -0.02200
H 	H 	0.56430 0.00950 0.04170 0.05200
O 	O 	0.62390 0.98394 0.92260 -0.33100
N 	N 	0.83640 0.88952 0.91050 -0.27300
C 	C 	0.85680 0.86610 0.86220 0.10700
H 	H 	0.82040 0.86580 0.81520 -0.02100
C 	C 	0.93510 0.84040 0.88030 -0.20300
H 	H 	0.94920 0.82370 0.84510 0.09500
C 	C 	0.98830 0.84070 0.94910 0.15700
C 	C 	0.06810 0.81370 0.96810 -0.15900
C 	C 	0.04310 0.77720 0.98290 0.09600
C 	C 	0.94780 0.76510 0.99080 -0.05500
H 	H 	0.89220 0.77930 0.98330 0.05000
C 	C 	0.95480 0.72970 0.01090 -0.12300
H 	H 	0.90490 0.71460 0.02040 0.06700
C 	C 	0.05340 0.71910 0.01500 0.10800
C 	C 	0.08900 0.68420 0.03450 -0.18400
N 	N 	0.10510 0.74856 0.99780 -0.28600
N 	N 	0.24140 0.80455 0.97450 -0.29400
C 	C 	0.96670 0.86580 0.99980 -0.19400
H 	H 	0.00180 0.86700 0.04730 0.08800
C 	C 	0.88980 0.88950 0.97680 0.12800
H 	H 	0.87480 0.90660 0.01090 -0.03200
C 	C 	0.94580 0.62210 0.13590 0.16400
H 	H 	0.94370 0.61850 0.18590 -0.02900
C 	C 	0.01650 0.64590 0.11600 -0.27100
H 	H 	0.06260 0.65530 0.15350 0.13300
C 	C 	0.95740 0.63620 0.99840 -0.17900
H 	H 	0.96040 0.63980 0.94860 0.09500
C 	C 	0.27920 0.86420 0.94380 -0.10500
H 	H 	0.31470 0.88460 0.93340 0.08100
C 	C 	0.16010 0.82580 0.96330 0.09800
C 	C 	0.18450 0.67200 0.03830 0.10200
C 	C 	0.89080 0.61260 0.01880 0.07400
H 	H 	0.84770 0.60100 0.98220 -0.00300
Zn	Zn	0.77763 0.42701 0.61491 1.21300
C 	C 	0.31690 0.36340 0.55520 -0.07800
H 	H 	0.35950 0.38310 0.56450 0.06500
O 	O 	0.75210 0.55106 0.20630 -0.49800
C 	C 	0.79150 0.56610 0.26130 0.43200
C 	C 	0.87500 0.53740 0.37100 0.04300
H 	H 	0.93160 0.54310 0.35380 0.02300
C 	C 	0.47930 0.15490 0.44800 0.26500
N 	N 	0.61460 0.10551 0.41070 -0.31300
C 	C 	0.79080 0.54860 0.33450 -0.15300
O 	O 	0.82890 0.59550 0.25450 -0.37300
O 	O 	0.73810 0.45975 0.52960 -0.44500
C 	C 	0.80440 0.48330 0.52880 0.32000
C 	C 	0.79670 0.50920 0.46400 -0.06300
C 	C 	0.70750 0.52380 0.42910 0.01800
C 	C 	0.62270 0.52057 0.46060 -0.05400
H 	H 	0.62400 0.50820 0.50510 0.06400
C 	C 	0.53780 0.53590 0.42490 -0.05100
H 	H 	0.48220 0.53350 0.44550 0.04700
C 	C 	0.53520 0.55400 0.36170 0.00000
H 	H 	0.47730 0.56380 0.33820 0.02900
C 	C 	0.61730 0.55850 0.32980 -0.10600
H 	H 	0.61420 0.57150 0.28570 0.07300
C 	C 	0.70530 0.54336 0.36440 0.08100
C 	C 	0.87650 0.51780 0.43390 -0.05400
H 	H 	0.93570 0.50950 0.45830 0.06700
O 	O 	0.87610 0.48394 0.57740 -0.32900
N 	N 	0.66360 0.38952 0.58950 -0.27200
C 	C 	0.64320 0.36610 0.63780 0.11000
H 	H 	0.67960 0.36580 0.68480 -0.02300
C 	C 	0.56490 0.34040 0.61970 -0.21000
H 	H 	0.55080 0.32370 0.65490 0.09800
C 	C 	0.51170 0.34070 0.55090 0.16900
C 	C 	0.43190 0.31370 0.53190 -0.17100
C 	C 	0.45690 0.27720 0.51710 0.10100
C 	C 	0.55220 0.26510 0.50920 -0.08100
H 	H 	0.60780 0.27930 0.51670 0.05600
C 	C 	0.54520 0.22970 0.48910 -0.10100
H 	H 	0.59510 0.21460 0.47960 0.06300
C 	C 	0.44660 0.21910 0.48500 0.12200
C 	C 	0.41100 0.18420 0.46550 -0.20800
N 	N 	0.39490 0.24856 0.50220 -0.29800
N 	N 	0.25860 0.30455 0.52550 -0.29700
C 	C 	0.53330 0.36580 0.50020 -0.21400
H 	H 	0.49820 0.36700 0.45270 0.10400
C 	C 	0.61020 0.38950 0.52320 0.11300
H 	H 	0.62520 0.40660 0.48910 -0.01600
C 	C 	0.55420 0.12210 0.36410 0.20000
H 	H 	0.55630 0.11850 0.31410 -0.04100
C 	C 	0.48350 0.14590 0.38400 -0.32800
H 	H 	0.43740 0.15530 0.34650 0.15100
C 	C 	0.54260 0.13620 0.50160 -0.27400
H 	H 	0.53960 0.13980 0.55140 0.12400
C 	C 	0.22080 0.36420 0.55620 -0.09800
H 	H 	0.18530 0.38460 0.56660 0.07700
C 	C 	0.33990 0.32580 0.53670 0.10100
C 	C 	0.31550 0.17200 0.46170 0.11500
C 	C 	0.60920 0.11260 0.48120 0.15900
H 	H 	0.65230 0.10100 0.51780 -0.04200
Zn	Zn	0.25000 0.75000 -0.00000 1.16100
Zn	Zn	0.25000 0.25000 0.50000 1.16500
Zn	Zn	0.27763 0.07299 0.11491 1.21200
C 	C 	0.81690 0.13660 0.05520 -0.08500
H 	H 	0.85950 0.11690 0.06450 0.06600
O 	O 	0.25210 0.94894 0.70630 -0.49900
C 	C 	0.29150 0.93390 0.76130 0.44100
C 	C 	0.37500 0.96260 0.87100 0.07300
H 	H 	0.43160 0.95690 0.85380 0.01400
C 	C 	0.97930 0.34510 0.94800 0.33200
N 	N 	0.11460 0.39449 0.91070 -0.33400
C 	C 	0.29080 0.95140 0.83450 -0.17600
O 	O 	0.32890 0.90450 0.75450 -0.37400
O 	O 	0.23810 0.04025 0.02960 -0.44400
C 	C 	0.30440 0.01670 0.02880 0.29600
C 	C 	0.29670 0.99080 0.96400 -0.02300
C 	C 	0.20750 0.97620 0.92910 -0.02400
C 	C 	0.12270 0.97943 0.96060 0.01500
H 	H 	0.12400 0.99180 0.00510 0.03000
C 	C 	0.03780 0.96410 0.92490 -0.10400
H 	H 	0.98220 0.96650 0.94550 0.06700
C 	C 	0.03520 0.94600 0.86170 0.05000
H 	H 	0.97730 0.93620 0.83820 0.01000
C 	C 	0.11730 0.94150 0.82980 -0.14400
H 	H 	0.11420 0.92850 0.78570 0.08700
C 	C 	0.20530 0.95664 0.86440 0.11500
C 	C 	0.37650 0.98220 0.93390 -0.08600
H 	H 	0.43570 0.99050 0.95830 0.08300
O 	O 	0.37610 0.01606 0.07740 -0.32600
N 	N 	0.16360 0.11048 0.08950 -0.27100
C 	C 	0.14320 0.13390 0.13780 0.11200
H 	H 	0.17960 0.13420 0.18480 -0.02400
C 	C 	0.06490 0.15960 0.11970 -0.21500
H 	H 	0.05080 0.17630 0.15490 0.09900
C 	C 	0.01170 0.15930 0.05090 0.18000
C 	C 	0.93190 0.18630 0.03190 -0.18100
C 	C 	0.95690 0.22280 0.01710 0.10700
C 	C 	0.05220 0.23490 0.00920 -0.11000
H 	H 	0.10780 0.22070 0.01670 0.06300
C 	C 	0.04520 0.27030 0.98910 -0.07500
H 	H 	0.09510 0.28540 0.97960 0.05800
C 	C 	0.94660 0.28090 0.98500 0.13400
C 	C 	0.91100 0.31580 0.96550 -0.23200
N 	N 	0.89490 0.25144 0.00220 -0.30900
N 	N 	0.75860 0.19545 0.02550 -0.29800
C 	C 	0.03330 0.13420 0.00020 -0.23400
H 	H 	0.99820 0.13300 0.95270 0.12000
C 	C 	0.11020 0.11050 0.02320 0.09700
H 	H 	0.12520 0.09340 0.98910 0.00100
C 	C 	0.05420 0.37790 0.86410 0.23700
H 	H 	0.05630 0.38150 0.81410 -0.05200
C 	C 	0.98350 0.35410 0.88400 -0.38700
H 	H 	0.93740 0.34470 0.84650 0.17100
C 	C 	0.04260 0.36380 0.00160 -0.37200
H 	H 	0.03960 0.36020 0.05140 0.15300
C 	C 	0.72080 0.13580 0.05620 -0.08900
H 	H 	0.68530 0.11540 0.06660 0.07300
C 	C 	0.83990 0.17420 0.03670 0.10500
C 	C 	0.81550 0.32800 0.96170 0.12600
C 	C 	0.10920 0.38740 0.98120 0.24800
H 	H 	0.15230 0.39900 0.01780 -0.08300
Zn	Zn	0.22237 0.57299 0.38509 1.21300
C 	C 	0.68310 0.63660 0.44480 -0.07800
H 	H 	0.64050 0.61690 0.43550 0.06500
O 	O 	0.24790 0.44894 0.79370 -0.49600
C 	C 	0.20850 0.43390 0.73870 0.43100
C 	C 	0.12500 0.46260 0.62900 0.04300
H 	H 	0.06840 0.45690 0.64620 0.02500
C 	C 	0.52070 0.84510 0.55200 0.26400
N 	N 	0.38540 0.89449 0.58930 -0.31300
C 	C 	0.20920 0.45140 0.66550 -0.15200
O 	O 	0.17110 0.40450 0.74550 -0.37100
O 	O 	0.26190 0.54025 0.47040 -0.44500
C 	C 	0.19560 0.51670 0.47120 0.31900
C 	C 	0.20330 0.49080 0.53600 -0.06300
C 	C 	0.29250 0.47620 0.57090 0.01700
C 	C 	0.37730 0.47943 0.53940 -0.05400
H 	H 	0.37600 0.49180 0.49490 0.06300
C 	C 	0.46220 0.46410 0.57510 -0.05200
H 	H 	0.51780 0.46650 0.55450 0.04800
C 	C 	0.46480 0.44600 0.63830 0.00200
H 	H 	0.52270 0.43620 0.66180 0.02800
C 	C 	0.38270 0.44150 0.67020 -0.10700
H 	H 	0.38580 0.42850 0.71430 0.07400
C 	C 	0.29470 0.45664 0.63560 0.08200
C 	C 	0.12350 0.48220 0.56610 -0.05300
H 	H 	0.06430 0.49050 0.54170 0.06800
O 	O 	0.12390 0.51606 0.42260 -0.32900
N 	N 	0.33640 0.61048 0.41050 -0.27200
C 	C 	0.35680 0.63390 0.36220 0.11000
H 	H 	0.32040 0.63420 0.31520 -0.02200
C 	C 	0.43510 0.65960 0.38030 -0.20900
H 	H 	0.44920 0.67630 0.34510 0.09700
C 	C 	0.48830 0.65930 0.44910 0.16900
C 	C 	0.56810 0.68630 0.46810 -0.17100
C 	C 	0.54310 0.72280 0.48290 0.10100
C 	C 	0.44780 0.73490 0.49080 -0.08100
H 	H 	0.39220 0.72070 0.48330 0.05600
C 	C 	0.45480 0.77030 0.51090 -0.10100
H 	H 	0.40490 0.78540 0.52040 0.06300
C 	C 	0.55340 0.78090 0.51500 0.12100
C 	C 	0.58900 0.81580 0.53450 -0.20800
N 	N 	0.60510 0.75144 0.49780 -0.29800
N 	N 	0.74140 0.69545 0.47450 -0.29600
C 	C 	0.46670 0.63420 0.49980 -0.21400
H 	H 	0.50180 0.63300 0.54730 0.10500
C 	C 	0.38980 0.61050 0.47680 0.11300
H 	H 	0.37480 0.59340 0.51090 -0.01500
C 	C 	0.44580 0.87790 0.63590 0.20000
H 	H 	0.44370 0.88150 0.68590 -0.04000
C 	C 	0.51650 0.85410 0.61600 -0.32800
H 	H 	0.56260 0.84470 0.65350 0.15200
C 	C 	0.45740 0.86380 0.49840 -0.27400
H 	H 	0.46040 0.86020 0.44860 0.12300
C 	C 	0.77920 0.63580 0.44380 -0.09700
H 	H 	0.81470 0.61540 0.43340 0.07600
C 	C 	0.66010 0.67420 0.46330 0.10200
C 	C 	0.68450 0.82800 0.53830 0.11400
C 	C 	0.39080 0.88740 0.51880 0.15900
H 	H 	0.34770 0.89900 0.48220 -0.04200
Zn	Zn	0.22237 0.42701 0.88509 1.21400
C 	C 	0.68310 0.36340 0.94480 -0.07100
H 	H 	0.64050 0.38310 0.93550 0.06400
O 	O 	0.24790 0.55106 0.29370 -0.49400
C 	C 	0.20850 0.56610 0.23870 0.42200
C 	C 	0.12500 0.53740 0.12900 0.01200
H 	H 	0.06840 0.54310 0.14620 0.03500
C 	C 	0.52070 0.15490 0.05200 0.19400
N 	N 	0.38540 0.10551 0.08930 -0.29100
C 	C 	0.20920 0.54860 0.16550 -0.12900
O 	O 	0.17110 0.59550 0.24550 -0.36900
O 	O 	0.26190 0.45975 0.97040 -0.44600
C 	C 	0.19560 0.48330 0.97120 0.34400
C 	C 	0.20330 0.50920 0.03600 -0.10400
C 	C 	0.29250 0.52380 0.07090 0.05900
C 	C 	0.37730 0.52057 0.03940 -0.12400
H 	H 	0.37600 0.50820 0.99490 0.09800
C 	C 	0.46220 0.53590 0.07510 0.00500
H 	H 	0.51780 0.53350 0.05450 0.02500
C 	C 	0.46480 0.55400 0.13830 -0.04600
H 	H 	0.52270 0.56380 0.16180 0.04500
C 	C 	0.38270 0.55850 0.17020 -0.07000
H 	H 	0.38580 0.57150 0.21430 0.06100
C 	C 	0.29470 0.54336 0.13560 0.04800
C 	C 	0.12350 0.51780 0.06610 -0.02000
H 	H 	0.06430 0.50950 0.04170 0.05100
O 	O 	0.12390 0.48394 0.92260 -0.33100
N 	N 	0.33640 0.38952 0.91050 -0.27300
C 	C 	0.35680 0.36610 0.86220 0.10700
H 	H 	0.32040 0.36580 0.81520 -0.02100
C 	C 	0.43510 0.34040 0.88030 -0.20300
H 	H 	0.44920 0.32370 0.84510 0.09500
C 	C 	0.48830 0.34070 0.94910 0.15800
C 	C 	0.56810 0.31370 0.96810 -0.16000
C 	C 	0.54310 0.27720 0.98290 0.09300
C 	C 	0.44780 0.26510 0.99080 -0.05100
H 	H 	0.39220 0.27930 0.98330 0.05000
C 	C 	0.45480 0.22970 0.01090 -0.12300
H 	H 	0.40490 0.21460 0.02040 0.06700
C 	C 	0.55340 0.21910 0.01500 0.10600
C 	C 	0.58900 0.18420 0.03450 -0.18300
N 	N 	0.60510 0.24856 0.99780 -0.28600
N 	N 	0.74140 0.30455 0.97450 -0.29400
C 	C 	0.46670 0.36580 0.99980 -0.19000
H 	H 	0.50180 0.36700 0.04730 0.08600
C 	C 	0.38980 0.38950 0.97680 0.12700
H 	H 	0.37480 0.40660 0.01090 -0.03200
C 	C 	0.44580 0.12210 0.13590 0.16500
H 	H 	0.44370 0.11850 0.18590 -0.02900
C 	C 	0.51650 0.14590 0.11600 -0.27100
H 	H 	0.56260 0.15530 0.15350 0.13200
C 	C 	0.45740 0.13620 0.99840 -0.17400
H 	H 	0.46040 0.13980 0.94860 0.09400
C 	C 	0.77920 0.36420 0.94380 -0.10500
H 	H 	0.81470 0.38460 0.93340 0.08000
C 	C 	0.66010 0.32580 0.96330 0.09800
C 	C 	0.68450 0.17200 0.03830 0.10200
C 	C 	0.39080 0.11260 0.01880 0.07000
H 	H 	0.34770 0.10100 0.98220 -0.00100
Zn	Zn	0.27763 0.92701 0.61491 1.21300
C 	C 	0.81690 0.86340 0.55520 -0.07800
H 	H 	0.85950 0.88310 0.56450 0.06500
O 	O 	0.25210 0.05106 0.20630 -0.49700
C 	C 	0.29150 0.06610 0.26130 0.43200
C 	C 	0.37500 0.03740 0.37100 0.04300
H 	H 	0.43160 0.04310 0.35380 0.02400
C 	C 	0.97930 0.65490 0.44800 0.26300
N 	N 	0.11460 0.60551 0.41070 -0.31300
C 	C 	0.29080 0.04860 0.33450 -0.15300
O 	O 	0.32890 0.09550 0.25450 -0.37300
O 	O 	0.23810 0.95975 0.52960 -0.44500
C 	C 	0.30440 0.98330 0.52880 0.31900
C 	C 	0.29670 0.00920 0.46400 -0.06200
C 	C 	0.20750 0.02380 0.42910 0.01800
C 	C 	0.12270 0.02057 0.46060 -0.05500
H 	H 	0.12400 0.00820 0.50510 0.06500
C 	C 	0.03780 0.03590 0.42490 -0.04800
H 	H 	0.98220 0.03350 0.44550 0.04600
C 	C 	0.03520 0.05400 0.36170 0.00300
H 	H 	0.97730 0.06380 0.33820 0.02700
C 	C 	0.11730 0.05850 0.32980 -0.10700
H 	H 	0.11420 0.07150 0.28570 0.07400
C 	C 	0.20530 0.04336 0.36440 0.08100
C 	C 	0.37650 0.01780 0.43390 -0.05400
H 	H 	0.43570 0.00950 0.45830 0.06800
O 	O 	0.37610 0.98394 0.57740 -0.32800
N 	N 	0.16360 0.88952 0.58950 -0.27200
C 	C 	0.14320 0.86610 0.63780 0.11000
H 	H 	0.17960 0.86580 0.68480 -0.02200
C 	C 	0.06490 0.84040 0.61970 -0.20900
H 	H 	0.05080 0.82370 0.65490 0.09800
C 	C 	0.01170 0.84070 0.55090 0.17000
C 	C 	0.93190 0.81370 0.53190 -0.17200
C 	C 	0.95690 0.77720 0.51710 0.09900
C 	C 	0.05220 0.76510 0.50920 -0.07900
H 	H 	0.10780 0.77930 0.51670 0.05600
C 	C 	0.04520 0.72970 0.48910 -0.09900
H 	H 	0.09510 0.71460 0.47960 0.06300
C 	C 	0.94660 0.71910 0.48500 0.11900
C 	C 	0.91100 0.68420 0.46550 -0.20700
N 	N 	0.89490 0.74856 0.50220 -0.29800
N 	N 	0.75860 0.80455 0.52550 -0.29700
C 	C 	0.03330 0.86580 0.50020 -0.21000
H 	H 	0.99820 0.86700 0.45270 0.10200
C 	C 	0.11020 0.88950 0.52320 0.11100
H 	H 	0.12520 0.90660 0.48910 -0.01500
C 	C 	0.05420 0.62210 0.36410 0.20200
H 	H 	0.05630 0.61850 0.31410 -0.04100
C 	C 	0.98350 0.64590 0.38400 -0.33000
H 	H 	0.93740 0.65530 0.34650 0.15200
C 	C 	0.04260 0.63620 0.50160 -0.27100
H 	H 	0.03960 0.63980 0.55140 0.12400
C 	C 	0.72080 0.86420 0.55620 -0.09700
H 	H 	0.68530 0.88460 0.56660 0.07600
C 	C 	0.83990 0.82580 0.53670 0.10100
C 	C 	0.81550 0.67200 0.46170 0.11400
C 	C 	0.10920 0.61260 0.48120 0.15900
H 	H 	0.15230 0.60100 0.51780 -0.04100
Zn	Zn	0.75000 0.75000 0.50000 1.16500
Zn	Zn	0.75000 0.25000 -0.00000 1.16100
