data_crystal

_cell_length_a 14.44470
_cell_length_b 15.66090
_cell_length_c 20.45630
_cell_angle_alpha 90.00000
_cell_angle_beta  90.00000
_cell_angle_gamma 90.00000

_symmetry_space_group_name_	'P 1'
_symmetry_space_group_name_H-M	'P 1'

loop_
_symmetry_equiv_pos_as_xyz
  x,y,z

loop_
_atom_site_label
_atom_site_type_symbol
_atom_site_fract_x
_atom_site_fract_y
_atom_site_fract_z
_atom_site_charge
V 	V 	0.23600 0.74200 0.27950 1.87000
V 	V 	0.73000 0.24600 0.39550 1.87700
V 	V 	0.23500 0.74400 0.43200 1.79900
V 	V 	0.76400 0.24200 0.72050 1.87000
V 	V 	0.27000 0.74600 0.60450 1.87700
V 	V 	0.76500 0.24400 0.56800 1.79900
V 	V 	0.26400 0.74200 0.77950 1.87000
V 	V 	0.77000 0.24600 0.89550 1.87600
V 	V 	0.26500 0.74400 0.93200 1.79900
V 	V 	0.73600 0.24200 0.22050 1.87000
V 	V 	0.23000 0.74600 0.10450 1.87700
V 	V 	0.73500 0.24400 0.06800 1.80000
C 	C 	0.43570 0.56400 0.49490 -0.08400
C 	C 	0.46360 0.53620 0.55530 0.00100
C 	C 	0.52790 0.47220 0.56040 -0.00400
C 	C 	0.47210 0.52780 0.43960 0.00400
C 	C 	0.53640 0.46380 0.44470 -0.00600
C 	C 	0.56430 0.43600 0.50510 -0.07400
C 	C 	0.36530 0.63400 0.48940 0.34200
C 	C 	0.63470 0.36600 0.51060 0.32600
C 	C 	0.06360 0.56400 0.33600 -0.14500
C 	C 	0.02490 0.52510 0.39000 0.03000
C 	C 	0.96130 0.46110 0.38200 -0.01900
C 	C 	0.03870 0.53890 0.27500 0.03800
C 	C 	0.97510 0.47490 0.26700 -0.02100
C 	C 	0.93640 0.43600 0.32000 -0.06200
C 	C 	0.13320 0.63410 0.34600 0.49900
C 	C 	0.86680 0.36590 0.31100 0.34000
C 	C 	0.43540 0.56400 0.16400 -0.07500
C 	C 	0.46760 0.53220 0.22200 -0.00700
C 	C 	0.53220 0.46810 0.22200 0.00900
C 	C 	0.46780 0.53190 0.10600 -0.00500
C 	C 	0.53240 0.46780 0.10600 0.00700
C 	C 	0.56460 0.43600 0.16400 -0.09400
C 	C 	0.36460 0.63410 0.16400 0.34100
C 	C 	0.63540 0.36590 0.16400 0.37700
C 	C 	0.56430 0.06400 0.50510 -0.08100
C 	C 	0.53640 0.03620 0.44470 -0.00400
C 	C 	0.47210 0.97220 0.43960 0.00100
C 	C 	0.52790 0.02780 0.56040 -0.00100
C 	C 	0.46360 0.96380 0.55530 -0.00200
C 	C 	0.43570 0.93600 0.49490 -0.07600
C 	C 	0.63470 0.13400 0.51060 0.34100
C 	C 	0.36530 0.86600 0.48940 0.32700
C 	C 	0.93640 0.06400 0.66400 -0.14500
C 	C 	0.97510 0.02510 0.61000 0.03000
C 	C 	0.03870 0.96110 0.61800 -0.01900
C 	C 	0.96130 0.03890 0.72500 0.03800
C 	C 	0.02490 0.97490 0.73300 -0.02200
C 	C 	0.06360 0.93600 0.68000 -0.06200
C 	C 	0.86680 0.13410 0.65400 0.49900
C 	C 	0.13320 0.86590 0.68900 0.34000
C 	C 	0.56460 0.06400 0.83600 -0.07400
C 	C 	0.53240 0.03220 0.77800 -0.00800
C 	C 	0.46780 0.96810 0.77800 0.01100
C 	C 	0.53220 0.03190 0.89400 -0.00700
C 	C 	0.46760 0.96780 0.89400 0.00800
C 	C 	0.43540 0.93600 0.83600 -0.09500
C 	C 	0.63540 0.13410 0.83600 0.34100
C 	C 	0.36460 0.86590 0.83600 0.37700
C 	C 	0.06430 0.56400 0.99490 -0.08500
C 	C 	0.03640 0.53620 0.05530 0.00400
C 	C 	0.97210 0.47220 0.06040 -0.00500
C 	C 	0.02790 0.52780 0.93960 -0.00000
C 	C 	0.96360 0.46380 0.94470 -0.00000
C 	C 	0.93570 0.43600 0.00510 -0.07700
C 	C 	0.13470 0.63400 0.98940 0.34000
C 	C 	0.86530 0.36600 0.01060 0.32500
C 	C 	0.43640 0.56400 0.83600 -0.14500
C 	C 	0.47510 0.52510 0.89000 0.03100
C 	C 	0.53870 0.46110 0.88200 -0.01900
C 	C 	0.46130 0.53890 0.77500 0.03700
C 	C 	0.52490 0.47490 0.76700 -0.02100
C 	C 	0.56360 0.43600 0.82000 -0.06200
C 	C 	0.36680 0.63410 0.84600 0.49900
C 	C 	0.63320 0.36590 0.81100 0.34000
C 	C 	0.06460 0.56400 0.66400 -0.07300
C 	C 	0.03240 0.53220 0.72200 -0.01000
C 	C 	0.96780 0.46810 0.72200 0.01200
C 	C 	0.03220 0.53190 0.60600 -0.00800
C 	C 	0.96760 0.46780 0.60600 0.00900
C 	C 	0.93540 0.43600 0.66400 -0.09500
C 	C 	0.13540 0.63410 0.66400 0.34100
C 	C 	0.86460 0.36590 0.66400 0.37700
C 	C 	0.93570 0.06400 0.00510 -0.08600
C 	C 	0.96360 0.03620 0.94470 0.00600
C 	C 	0.02790 0.97220 0.93960 -0.00600
C 	C 	0.97210 0.02780 0.06040 -0.00400
C 	C 	0.03640 0.96380 0.05530 0.00500
C 	C 	0.06430 0.93600 0.99490 -0.07900
C 	C 	0.86530 0.13400 0.01060 0.33900
C 	C 	0.13470 0.86600 0.98940 0.32500
C 	C 	0.56360 0.06400 0.16400 -0.14100
C 	C 	0.52490 0.02510 0.11000 0.02300
C 	C 	0.46130 0.96110 0.11800 -0.01100
C 	C 	0.53870 0.03890 0.22500 0.03000
C 	C 	0.47510 0.97490 0.23300 -0.01400
C 	C 	0.43640 0.93600 0.18000 -0.06600
C 	C 	0.63320 0.13410 0.15400 0.49700
C 	C 	0.36680 0.86590 0.18900 0.34200
C 	C 	0.93540 0.06400 0.33600 -0.07100
C 	C 	0.96760 0.03220 0.27800 -0.01300
C 	C 	0.03220 0.96810 0.27800 0.01500
C 	C 	0.96780 0.03190 0.39400 -0.01100
C 	C 	0.03240 0.96780 0.39400 0.01200
C 	C 	0.06460 0.93600 0.33600 -0.09700
C 	C 	0.86460 0.13410 0.33600 0.34000
C 	C 	0.13540 0.86590 0.33600 0.37800
O 	O 	0.31000 0.72900 0.35500 -0.57400
O 	O 	0.76422 0.25813 0.46104 -0.74400
O 	O 	0.20300 0.75814 0.19173 -0.65600
O 	O 	0.33880 0.66040 0.43200 -0.41000
O 	O 	0.66920 0.33170 0.45800 -0.40600
O 	O 	0.33080 0.66830 0.54200 -0.47800
O 	O 	0.66120 0.33960 0.56800 -0.39600
O 	O 	0.16990 0.67100 0.29500 -0.77800
O 	O 	0.84310 0.34210 0.25200 -0.36500
O 	O 	0.15690 0.65790 0.40400 -0.59900
O 	O 	0.83010 0.32900 0.36200 -0.41600
O 	O 	0.33410 0.66440 0.10900 -0.44600
O 	O 	0.66620 0.33540 0.10900 -0.55600
O 	O 	0.33380 0.66460 0.21900 -0.41200
O 	O 	0.66590 0.33560 0.22000 -0.53100
O 	O 	0.69000 0.22900 0.64500 -0.57400
O 	O 	0.23578 0.75813 0.53896 -0.74400
O 	O 	0.79700 0.25814 0.80827 -0.65600
O 	O 	0.66120 0.16040 0.56800 -0.41000
O 	O 	0.33080 0.83170 0.54200 -0.40600
O 	O 	0.66920 0.16830 0.45800 -0.47800
O 	O 	0.33880 0.83960 0.43200 -0.39600
O 	O 	0.83010 0.17100 0.70500 -0.77800
O 	O 	0.15690 0.84210 0.74800 -0.36500
O 	O 	0.84310 0.15790 0.59600 -0.59900
O 	O 	0.16990 0.82900 0.63800 -0.41600
O 	O 	0.66590 0.16440 0.89100 -0.44600
O 	O 	0.33380 0.83540 0.89100 -0.55600
O 	O 	0.66620 0.16460 0.78100 -0.41200
O 	O 	0.33410 0.83560 0.78000 -0.53100
O 	O 	0.19000 0.72900 0.85500 -0.57400
O 	O 	0.73578 0.25813 0.96104 -0.74400
O 	O 	0.29700 0.75814 0.69173 -0.65600
O 	O 	0.16120 0.66040 0.93200 -0.41000
O 	O 	0.83080 0.33170 0.95800 -0.40400
O 	O 	0.16920 0.66830 0.04200 -0.47700
O 	O 	0.83880 0.33960 0.06800 -0.39600
O 	O 	0.33010 0.67100 0.79500 -0.77800
O 	O 	0.65690 0.34210 0.75200 -0.36500
O 	O 	0.34310 0.65790 0.90400 -0.59900
O 	O 	0.66990 0.32900 0.86200 -0.41600
O 	O 	0.16590 0.66440 0.60900 -0.44600
O 	O 	0.83380 0.33540 0.60900 -0.55600
O 	O 	0.16620 0.66460 0.71900 -0.41200
O 	O 	0.83410 0.33560 0.72000 -0.53100
O 	O 	0.81000 0.22900 0.14500 -0.57400
O 	O 	0.26422 0.75813 0.03896 -0.74400
O 	O 	0.70300 0.25814 0.30827 -0.65600
O 	O 	0.83880 0.16040 0.06800 -0.41000
O 	O 	0.16920 0.83170 0.04200 -0.40300
O 	O 	0.83080 0.16830 0.95800 -0.47600
O 	O 	0.16120 0.83960 0.93200 -0.39600
O 	O 	0.66990 0.17100 0.20500 -0.77700
O 	O 	0.34310 0.84210 0.24800 -0.36500
O 	O 	0.65690 0.15790 0.09600 -0.59900
O 	O 	0.33010 0.82900 0.13800 -0.41600
O 	O 	0.83410 0.16440 0.39100 -0.44600
O 	O 	0.16620 0.83540 0.39100 -0.55600
O 	O 	0.83380 0.16460 0.28100 -0.41200
O 	O 	0.16590 0.83560 0.28000 -0.53100
H 	H 	0.43332 0.56632 0.60131 0.02500
H 	H 	0.55109 0.44909 0.61064 0.05000
H 	H 	0.44890 0.55092 0.38936 0.05000
H 	H 	0.56669 0.43367 0.39870 0.03400
H 	H 	0.04588 0.54624 0.44123 0.03500
H 	H 	0.92929 0.42892 0.42659 0.04900
H 	H 	0.07072 0.57109 0.23042 0.03100
H 	H 	0.95417 0.45380 0.21575 0.05100
H 	H 	0.44070 0.55902 0.27020 0.04900
H 	H 	0.55904 0.44142 0.27026 0.04500
H 	H 	0.44101 0.55852 0.05771 0.04600
H 	H 	0.55920 0.44108 0.05774 0.03800
H 	H 	0.56668 0.06632 0.39869 0.02600
H 	H 	0.44891 0.94909 0.38936 0.04900
H 	H 	0.55110 0.05092 0.61064 0.05100
H 	H 	0.43331 0.93367 0.60130 0.03400
H 	H 	0.95412 0.04624 0.55877 0.03400
H 	H 	0.07071 0.92892 0.57341 0.04900
H 	H 	0.92928 0.07109 0.76958 0.03100
H 	H 	0.04583 0.95380 0.78425 0.05100
H 	H 	0.55930 0.05902 0.72980 0.04900
H 	H 	0.44096 0.94142 0.72974 0.04500
H 	H 	0.55899 0.05852 0.94229 0.04700
H 	H 	0.44080 0.94108 0.94226 0.03800
H 	H 	0.06668 0.56632 0.10131 0.02500
H 	H 	0.94891 0.44909 0.11064 0.05000
H 	H 	0.05110 0.55092 0.88936 0.05100
H 	H 	0.93331 0.43367 0.89870 0.03400
H 	H 	0.45412 0.54624 0.94123 0.03500
H 	H 	0.57071 0.42892 0.92659 0.04900
H 	H 	0.42928 0.57109 0.73042 0.03100
H 	H 	0.54583 0.45380 0.71575 0.05100
H 	H 	0.05930 0.55902 0.77020 0.04900
H 	H 	0.94096 0.44142 0.77026 0.04500
H 	H 	0.05899 0.55852 0.55771 0.04700
H 	H 	0.94080 0.44108 0.55774 0.03800
H 	H 	0.93332 0.06632 0.89869 0.02400
H 	H 	0.05109 0.94909 0.88936 0.05000
H 	H 	0.94890 0.05092 0.11064 0.05100
H 	H 	0.06669 0.93367 0.10130 0.03300
H 	H 	0.54588 0.04624 0.05877 0.03500
H 	H 	0.42929 0.92892 0.07341 0.04800
H 	H 	0.57072 0.07109 0.26958 0.03200
H 	H 	0.45417 0.95380 0.28425 0.05000
H 	H 	0.94070 0.05902 0.22980 0.04900
H 	H 	0.05904 0.94142 0.22974 0.04400
H 	H 	0.94101 0.05852 0.44229 0.04700
H 	H 	0.05920 0.94108 0.44226 0.03700
