data_crystal

_cell_length_a 20.27600
_cell_length_b 7.53230
_cell_length_c 6.76000
_cell_angle_alpha 90.00000
_cell_angle_beta  100.72000
_cell_angle_gamma 90.00000

_symmetry_space_group_name_	'P 1'
_symmetry_space_group_name_H-M	'P 1'

loop_
_symmetry_equiv_pos_as_xyz
  x,y,z

loop_
_atom_site_label
_atom_site_type_symbol
_atom_site_fract_x
_atom_site_fract_y
_atom_site_fract_z
_atom_site_charge
Al	Al	0.99872 0.00020 0.99870 2.36300
O 	O 	0.99980 0.88990 0.74450 -1.03300
O 	O 	0.21503 0.22064 0.19301 0.12500
O 	O 	0.28083 0.26844 0.25201 -0.15200
C 	C 	0.07920 0.12171 0.06219 -0.14300
C 	C 	0.41735 0.36737 0.36533 -0.50500
C 	C 	0.18884 0.19673 0.99238 -0.22400
C 	C 	0.22846 0.22064 0.85075 0.17300
C 	C 	0.29427 0.26844 0.90974 -0.33400
C 	C 	0.32045 0.29235 0.11037 0.38200
C 	C 	0.11679 0.14439 0.92780 -0.04200
C 	C 	0.09195 0.12171 0.73742 -0.23000
C 	C 	0.39250 0.34469 0.17496 0.35100
C 	C 	0.43010 0.36737 0.04056 -0.50000
Al	Al	0.49872 0.50020 0.99870 2.36900
O 	O 	0.49980 0.38990 0.74450 -0.94900
O 	O 	0.71503 0.72064 0.19301 0.12000
O 	O 	0.78083 0.76844 0.25201 -0.15400
C 	C 	0.57920 0.62171 0.06219 -0.24500
C 	C 	0.91735 0.86737 0.36533 -0.54400
C 	C 	0.68884 0.69673 0.99238 -0.24000
C 	C 	0.72846 0.72064 0.85075 0.16800
C 	C 	0.79427 0.76844 0.90974 -0.32900
C 	C 	0.82045 0.79235 0.11037 0.36500
C 	C 	0.61679 0.64439 0.92780 -0.00100
C 	C 	0.59195 0.62171 0.73742 -0.31100
C 	C 	0.89250 0.84469 0.17496 0.37200
C 	C 	0.93010 0.86737 0.04056 -0.55100
Al	Al	0.99872 0.99980 0.49870 2.38700
O 	O 	0.99980 0.11010 0.24450 -0.89100
O 	O 	0.21503 0.77936 0.69301 -0.11900
O 	O 	0.28083 0.73156 0.75201 -0.11000
C 	C 	0.07920 0.87829 0.56219 -0.54700
C 	C 	0.41735 0.63263 0.86533 -0.79200
C 	C 	0.18884 0.80327 0.49238 0.03700
C 	C 	0.22846 0.77936 0.35075 0.08100
C 	C 	0.29427 0.73156 0.40974 0.11600
C 	C 	0.32045 0.70765 0.61037 -0.08200
C 	C 	0.11679 0.85561 0.42780 0.28000
C 	C 	0.09195 0.87829 0.23742 -0.24100
C 	C 	0.39250 0.65531 0.67496 0.58600
C 	C 	0.43010 0.63263 0.54056 -0.81600
Al	Al	0.49872 0.49980 0.49870 2.39400
O 	O 	0.49980 0.61010 0.24450 -0.81900
O 	O 	0.71503 0.27936 0.69301 -0.11900
O 	O 	0.78083 0.23156 0.75201 -0.11000
C 	C 	0.57920 0.37829 0.56219 -0.63800
C 	C 	0.91735 0.13263 0.86533 -0.81500
C 	C 	0.68884 0.30327 0.49238 0.02100
C 	C 	0.72846 0.27936 0.35075 0.08800
C 	C 	0.79427 0.23156 0.40974 0.11800
C 	C 	0.82045 0.20765 0.61037 -0.08500
C 	C 	0.61679 0.35561 0.42780 0.31800
C 	C 	0.59195 0.37829 0.23742 -0.30000
C 	C 	0.89250 0.15531 0.67496 0.59900
C 	C 	0.93010 0.13263 0.54056 -0.84200
