data_crystal

_cell_length_a 19.80600
_cell_length_b 7.36600
_cell_length_c 7.05500
_cell_angle_alpha 90.00000
_cell_angle_beta  104.36000
_cell_angle_gamma 90.00000

_symmetry_space_group_name_	'P 1'
_symmetry_space_group_name_H-M	'P 1'

loop_
_symmetry_equiv_pos_as_xyz
  x,y,z

loop_
_atom_site_label
_atom_site_type_symbol
_atom_site_fract_x
_atom_site_fract_y
_atom_site_fract_z
_atom_site_charge
Al	Al	0.99872 0.00020 0.99870 2.37600
O 	O 	0.99980 0.88990 0.74450 -0.87800
O 	O 	0.22000 0.22000 0.19000 0.15200
O 	O 	0.29000 0.27000 0.25000 -0.17800
C 	C 	0.07000 0.12000 0.06000 -0.26400
C 	C 	0.93000 0.13000 0.86000 -1.01000
C 	C 	0.19000 0.20000 0.99000 -0.28700
C 	C 	0.22000 0.22000 0.86000 0.22500
C 	C 	0.29000 0.27000 0.91000 -0.34800
C 	C 	0.32000 0.29000 0.11000 0.41100
C 	C 	0.11000 0.14000 0.93000 0.03100
C 	C 	0.08000 0.88000 0.25000 -0.26100
C 	C 	0.90000 0.15000 0.67000 0.73400
C 	C 	0.93000 0.87000 0.04000 -0.59400
Al	Al	0.49872 0.50020 0.99870 2.38200
O 	O 	0.49980 0.38990 0.74450 -0.77600
O 	O 	0.72000 0.72000 0.19000 0.14600
O 	O 	0.79000 0.77000 0.25000 -0.18000
C 	C 	0.57000 0.62000 0.06000 -0.38900
C 	C 	0.43000 0.63000 0.86000 -0.96900
C 	C 	0.69000 0.70000 0.99000 -0.30400
C 	C 	0.72000 0.72000 0.86000 0.22000
C 	C 	0.79000 0.77000 0.91000 -0.34400
C 	C 	0.82000 0.79000 0.11000 0.39300
C 	C 	0.61000 0.64000 0.93000 0.07900
C 	C 	0.58000 0.38000 0.25000 -0.34700
C 	C 	0.40000 0.65000 0.67000 0.71400
C 	C 	0.43000 0.37000 0.04000 -0.52800
Al	Al	0.99872 0.99980 0.49870 2.40000
O 	O 	0.99980 0.11010 0.24450 -0.74600
O 	O 	0.22000 0.78000 0.69000 -0.11000
O 	O 	0.29000 0.73000 0.75000 -0.11300
C 	C 	0.07000 0.88000 0.56000 -0.66300
C 	C 	0.93000 0.87000 0.36000 -0.72800
C 	C 	0.19000 0.80000 0.49000 0.02600
C 	C 	0.22000 0.78000 0.36000 0.08500
C 	C 	0.29000 0.73000 0.41000 0.11500
C 	C 	0.32000 0.71000 0.61000 -0.06000
C 	C 	0.11000 0.86000 0.43000 0.34000
C 	C 	0.08000 0.12000 0.75000 -0.24000
C 	C 	0.90000 0.85000 0.17000 0.50500
C 	C 	0.93000 0.13000 0.54000 -0.90300
Al	Al	0.49872 0.49980 0.49870 2.40800
O 	O 	0.49980 0.61010 0.24450 -0.65500
O 	O 	0.72000 0.28000 0.69000 -0.11000
O 	O 	0.79000 0.23000 0.75000 -0.11300
C 	C 	0.57000 0.38000 0.56000 -0.77900
C 	C 	0.43000 0.37000 0.36000 -0.66800
C 	C 	0.69000 0.30000 0.49000 0.00700
C 	C 	0.72000 0.28000 0.36000 0.09300
C 	C 	0.79000 0.23000 0.41000 0.11700
C 	C 	0.82000 0.21000 0.61000 -0.06500
C 	C 	0.61000 0.36000 0.43000 0.38800
C 	C 	0.58000 0.62000 0.75000 -0.34800
C 	C 	0.40000 0.35000 0.17000 0.47500
C 	C 	0.43000 0.63000 0.54000 -0.86400
