data_crystal

_cell_length_a 10.12400
_cell_length_b 10.28100
_cell_length_c 16.33000
_cell_angle_alpha 90.00000
_cell_angle_beta  95.34000
_cell_angle_gamma 90.00000

_symmetry_space_group_name_	'P 1'
_symmetry_space_group_name_H-M	'P 1'

loop_
_symmetry_equiv_pos_as_xyz
  x,y,z

loop_
_atom_site_label
_atom_site_type_symbol
_atom_site_fract_x
_atom_site_fract_y
_atom_site_fract_z
_atom_site_charge
Co	Co	0.22691 0.75397 0.07756 1.09500
Co	Co	0.77309 0.25397 0.42244 1.11300
Co	Co	0.77309 0.24603 0.92244 1.12600
Co	Co	0.22691 0.74603 0.57756 1.10600
Co	Co	0.00000 0.50000 0.50000 1.08200
Co	Co	-0.00000 0.00000 -0.00000 1.02700
H 	H 	0.32620 0.27040 0.41990 0.04400
H 	H 	0.43160 0.06140 0.23880 0.03300
H 	H 	0.05460 0.14340 0.24770 0.00100
H 	H 	0.67380 0.77040 0.08010 0.02100
H 	H 	0.56840 0.56140 0.26120 0.03300
H 	H 	0.94540 0.64340 0.25230 0.04500
H 	H 	0.67380 0.72960 0.58010 0.03200
H 	H 	0.56840 0.93860 0.76120 0.04900
H 	H 	0.94540 0.85660 0.75230 0.04900
H 	H 	0.32620 0.22960 0.91990 0.05700
H 	H 	0.43160 0.43860 0.73880 0.04900
H 	H 	0.05460 0.35660 0.74770 0.00600
C 	C 	0.13860 0.14830 0.27170 0.02200
C 	C 	0.30260 0.22750 0.37420 0.01500
C 	C 	0.17100 0.21750 0.34380 -0.11300
C 	C 	0.40290 0.16950 0.33490 -0.09800
C 	C 	0.20090 0.01630 0.15160 0.31300
C 	C 	0.06430 0.27990 0.38930 0.25400
C 	C 	0.54530 0.18760 0.36700 0.29600
C 	C 	0.36870 0.09910 0.26300 0.02100
C 	C 	0.23750 0.08970 0.23050 -0.12100
C 	C 	0.86140 0.64830 0.22830 0.09000
C 	C 	0.69740 0.72750 0.12580 0.08100
C 	C 	0.82900 0.71750 0.15620 -0.16900
C 	C 	0.59710 0.66950 0.16510 -0.12400
C 	C 	0.79910 0.51630 0.34840 0.39200
C 	C 	0.93570 0.77990 0.11070 0.50900
C 	C 	0.45470 0.68760 0.13300 0.31400
C 	C 	0.63130 0.59910 0.23700 0.06400
C 	C 	0.76250 0.58970 0.26950 -0.13500
C 	C 	0.86140 0.85170 0.72830 0.09500
C 	C 	0.69740 0.77250 0.62580 0.07700
C 	C 	0.82900 0.78250 0.65620 -0.16000
C 	C 	0.59710 0.83050 0.66510 -0.11000
C 	C 	0.79910 0.98370 0.84840 0.45100
C 	C 	0.93570 0.72010 0.61070 0.50700
C 	C 	0.45470 0.81240 0.63300 0.31200
C 	C 	0.63130 0.90090 0.73700 0.06800
C 	C 	0.76250 0.91030 0.76950 -0.13400
C 	C 	0.13860 0.35170 0.77170 0.03000
C 	C 	0.30260 0.27250 0.87420 0.01200
C 	C 	0.17100 0.28250 0.84380 -0.10300
C 	C 	0.40290 0.33050 0.83490 -0.08400
C 	C 	0.20090 0.48370 0.65160 0.38800
C 	C 	0.06430 0.22010 0.88930 0.25500
C 	C 	0.54530 0.31240 0.86700 0.29400
C 	C 	0.36870 0.40090 0.76300 0.02900
C 	C 	0.23750 0.41030 0.73050 -0.12500
O 	O 	0.27930 0.92890 0.13280 -0.39200
O 	O 	0.10350 0.36020 0.44470 -0.46700
O 	O 	0.63770 0.16150 0.32310 -0.36900
O 	O 	0.94660 0.24670 0.36840 -0.38100
O 	O 	0.56920 0.23190 0.43970 -0.40400
O 	O 	0.09430 0.04990 0.11210 -0.51100
O 	O 	0.72070 0.42890 0.36720 -0.43800
O 	O 	0.89650 0.86020 0.05530 -0.46300
O 	O 	0.36230 0.66150 0.17690 -0.37400
O 	O 	0.05340 0.74670 0.13160 -0.57800
O 	O 	0.43080 0.73190 0.06030 -0.42100
O 	O 	0.90570 0.54990 0.38790 -0.42700
O 	O 	0.72070 0.07110 0.86720 -0.48000
O 	O 	0.89650 0.63980 0.55530 -0.46200
O 	O 	0.36230 0.83850 0.67690 -0.35700
O 	O 	0.05340 0.75330 0.63160 -0.56900
O 	O 	0.43080 0.76810 0.56030 -0.39700
O 	O 	0.90570 0.95010 0.88790 -0.39900
O 	O 	0.27930 0.57110 0.63280 -0.44600
O 	O 	0.10350 0.13980 0.94470 -0.44200
O 	O 	0.63770 0.33850 0.82310 -0.35200
O 	O 	0.94660 0.25330 0.86840 -0.37300
O 	O 	0.56920 0.26810 0.93970 -0.37800
O 	O 	0.09430 0.45010 0.61210 -0.50100
