data_crystal

_cell_length_a 10.10700
_cell_length_b 10.25800
_cell_length_c 16.27600
_cell_angle_alpha 90.00000
_cell_angle_beta  95.38000
_cell_angle_gamma 90.00000

_symmetry_space_group_name_	'P 1'
_symmetry_space_group_name_H-M	'P 1'

loop_
_symmetry_equiv_pos_as_xyz
  x,y,z

loop_
_atom_site_label
_atom_site_type_symbol
_atom_site_fract_x
_atom_site_fract_y
_atom_site_fract_z
_atom_site_charge
Co	Co	0.22700 0.25396 0.57763 1.09600
Co	Co	0.77300 0.75396 0.92237 1.13300
Co	Co	0.77300 0.74604 0.42237 1.12400
Co	Co	0.22700 0.24604 0.07763 1.09100
Co	Co	-0.00000 0.00000 -0.00000 1.02400
Co	Co	0.00000 0.50000 0.50000 1.08100
H 	H 	0.05060 0.64070 0.75030 0.00600
H 	H 	0.43640 0.55680 0.73680 0.04800
H 	H 	0.32480 0.77470 0.92290 0.06200
H 	H 	0.94940 0.14070 0.74970 0.04600
H 	H 	0.56360 0.05680 0.76320 0.02600
H 	H 	0.67520 0.27470 0.57710 0.02600
H 	H 	0.94940 0.35930 0.24970 0.03700
H 	H 	0.56360 0.44320 0.26320 0.02700
H 	H 	0.67520 0.22530 0.07710 0.00600
H 	H 	0.05060 0.85930 0.25030 -0.00300
H 	H 	0.43640 0.94320 0.23680 0.04900
H 	H 	0.32480 0.72530 0.42290 0.04000
C 	C 	0.06420 0.77980 0.88970 0.26300
C 	C 	0.17030 0.71700 0.84410 -0.10200
C 	C 	0.13890 0.64800 0.77160 0.04300
C 	C 	0.23770 0.58970 0.73040 -0.12900
C 	C 	0.37020 0.59850 0.76300 0.04500
C 	C 	0.40300 0.67000 0.83470 -0.08700
C 	C 	0.30280 0.72780 0.87470 0.02800
C 	C 	0.20110 0.51610 0.65210 0.39000
C 	C 	0.54540 0.68760 0.86760 0.30800
C 	C 	0.93580 0.27980 0.61030 0.53000
C 	C 	0.82970 0.21700 0.65590 -0.17600
C 	C 	0.86110 0.14800 0.72840 0.08300
C 	C 	0.76230 0.08970 0.76960 -0.12000
C 	C 	0.62980 0.09850 0.73700 0.05400
C 	C 	0.59700 0.17000 0.66530 -0.12700
C 	C 	0.69720 0.22780 0.62530 0.08000
C 	C 	0.79890 0.01610 0.84790 0.31000
C 	C 	0.45460 0.18760 0.63240 0.32300
C 	C 	0.93580 0.22020 0.11030 0.53800
C 	C 	0.82970 0.28300 0.15590 -0.20100
C 	C 	0.86110 0.35200 0.22840 0.10700
C 	C 	0.76230 0.41030 0.26960 -0.15400
C 	C 	0.62980 0.40150 0.23700 0.07800
C 	C 	0.59700 0.33000 0.16530 -0.14900
C 	C 	0.69720 0.27220 0.12530 0.09600
C 	C 	0.79890 0.48390 0.34790 0.39500
C 	C 	0.45460 0.31240 0.13240 0.33100
C 	C 	0.06420 0.72020 0.38970 0.26800
C 	C 	0.17030 0.78300 0.34410 -0.12800
C 	C 	0.13890 0.85200 0.27160 0.06600
C 	C 	0.23770 0.91030 0.23040 -0.16300
C 	C 	0.37020 0.90150 0.26300 0.06900
C 	C 	0.40300 0.83000 0.33470 -0.10800
C 	C 	0.30280 0.77220 0.37470 0.04500
C 	C 	0.20110 0.98390 0.15210 0.47800
C 	C 	0.54540 0.81240 0.36760 0.31700
O 	O 	0.94680 0.74660 0.86890 -0.35700
O 	O 	0.10320 0.86080 0.94450 -0.41400
O 	O 	0.09400 0.55020 0.61210 -0.49500
O 	O 	0.27950 0.42860 0.63330 -0.44700
O 	O 	0.63710 0.66140 0.82350 -0.34900
O 	O 	0.56950 0.73230 0.93960 -0.37400
O 	O 	0.05320 0.24660 0.63110 -0.60200
O 	O 	0.89680 0.36080 0.55550 -0.47400
O 	O 	0.90600 0.05020 0.88790 -0.39900
O 	O 	0.72050 0.92860 0.86670 -0.35900
O 	O 	0.36290 0.16140 0.67650 -0.38700
O 	O 	0.43050 0.23230 0.56040 -0.42200
O 	O 	0.05320 0.25340 0.13110 -0.61600
O 	O 	0.89680 0.13920 0.05550 -0.50600
O 	O 	0.90600 0.44980 0.38790 -0.43100
O 	O 	0.72050 0.57140 0.36670 -0.43900
O 	O 	0.36290 0.33860 0.17650 -0.39000
O 	O 	0.43050 0.26770 0.06040 -0.44100
O 	O 	0.94680 0.75340 0.36890 -0.36800
O 	O 	0.10320 0.63920 0.44450 -0.46900
O 	O 	0.09400 0.94980 0.11210 -0.50500
O 	O 	0.27950 0.07140 0.13330 -0.53000
O 	O 	0.63710 0.83860 0.32350 -0.35200
O 	O 	0.56950 0.76770 0.43960 -0.39400
