data_crystal

_cell_length_a 6.82750
_cell_length_b 14.57280
_cell_length_c 16.20150
_cell_angle_alpha 63.75300
_cell_angle_beta  78.63100
_cell_angle_gamma 82.32600

_symmetry_space_group_name_	'P 1'
_symmetry_space_group_name_H-M	'P 1'

loop_
_symmetry_equiv_pos_as_xyz
  x,y,z

loop_
_atom_site_label
_atom_site_type_symbol
_atom_site_fract_x
_atom_site_fract_y
_atom_site_fract_z
_atom_site_charge
U 	U 	0.23189 0.74524 0.25747 0.01400
U 	U 	0.37878 0.75711 0.57800 0.02000
U 	U 	0.12787 0.74733 0.93440 0.02200
O 	O 	0.10920 0.87810 0.91400 -0.13200
O 	O 	0.89120 0.80340 0.29940 -0.18300
O 	O 	0.11850 0.90270 0.28770 -0.18900
O 	O 	0.44840 0.78560 0.42200 -0.14800
O 	O 	0.48520 0.83680 0.26950 -0.20700
O 	O 	0.34800 0.58690 0.22880 -0.17400
O 	O 	0.57510 0.69220 0.20770 -0.21400
O 	O 	0.04210 0.70700 0.09240 -0.20300
O 	O 	0.97630 0.65070 0.24570 -0.15700
O 	O 	0.06330 0.76970 0.52670 -0.14800
O 	O 	0.73770 0.76620 0.53280 -0.15100
O 	O 	0.11300 0.73430 0.70250 -0.18100
O 	O 	0.97530 0.80410 0.79860 -0.18300
O 	O 	0.43960 0.73020 0.98980 -0.18700
O 	O 	0.76430 0.74380 0.97480 -0.19900
O 	O 	0.39530 0.77150 0.81060 -0.17600
O 	O 	0.53560 0.70370 0.71230 -0.18000
C 	C 	0.93680 0.88560 0.29890 0.28500
C 	C 	0.78070 0.96240 0.30790 -0.11100
H 	H 	0.81990 0.02570 0.30150 0.10800
C 	C 	0.58810 0.94610 0.32450 -0.08500
H 	H 	0.49560 0.99990 0.32720 0.09300
C 	C 	0.50540 0.84910 0.33950 0.31300
C 	C 	0.53190 0.60970 0.21060 0.32000
C 	C 	0.68660 0.53670 0.19320 -0.11200
H 	H 	0.64640 0.47670 0.19340 0.10800
C 	C 	0.87920 0.55210 0.17740 -0.05400
H 	H 	0.96960 0.50060 0.16850 0.08600
C 	C 	0.96860 0.64330 0.17230 0.28500
C 	C 	0.88510 0.80180 0.54460 0.27700
C 	C 	0.84130 0.88690 0.57450 -0.07000
H 	H 	0.76930 0.94650 0.53700 0.08000
C 	C 	0.89530 0.88560 0.64960 -0.10200
H 	H 	0.85920 0.94570 0.65930 0.09700
C 	C 	0.00530 0.80190 0.72050 0.29900
C 	C 	0.61830 0.70420 0.96810 0.30300
C 	C 	0.66490 0.62110 0.93720 -0.08600
H 	H 	0.73600 0.56170 0.97550 0.08500
C 	C 	0.61770 0.62050 0.86100 -0.09200
H 	H 	0.65710 0.56080 0.85100 0.09300
C 	C 	0.50960 0.70470 0.79110 0.28900
Cs	Cs	0.75196 0.91044 0.08183 0.72700
O 	O 	0.39520 0.04500 0.10630 -0.17800
U 	U 	0.76811 0.25476 0.74253 0.01300
U 	U 	0.62122 0.24289 0.42200 0.01900
U 	U 	0.87213 0.25267 0.06560 0.02100
O 	O 	0.89080 0.12190 0.08600 -0.13300
O 	O 	0.10880 0.19660 0.70060 -0.18300
O 	O 	0.88150 0.09730 0.71230 -0.18900
O 	O 	0.55160 0.21440 0.57800 -0.14800
O 	O 	0.51480 0.16320 0.73050 -0.20700
O 	O 	0.65200 0.41310 0.77120 -0.17400
O 	O 	0.42490 0.30780 0.79230 -0.21400
O 	O 	0.95790 0.29300 0.90760 -0.20300
O 	O 	0.02370 0.34930 0.75430 -0.15700
O 	O 	0.93670 0.23030 0.47330 -0.14800
O 	O 	0.26230 0.23380 0.46720 -0.15100
O 	O 	0.88700 0.26570 0.29750 -0.18100
O 	O 	0.02470 0.19590 0.20140 -0.18300
O 	O 	0.56040 0.26980 0.01020 -0.18700
O 	O 	0.23570 0.25620 0.02520 -0.19900
O 	O 	0.60470 0.22850 0.18940 -0.17600
O 	O 	0.46440 0.29630 0.28770 -0.18000
C 	C 	0.06320 0.11440 0.70110 0.28500
C 	C 	0.21930 0.03760 0.69210 -0.11100
H 	H 	0.18010 0.97430 0.69850 0.10800
C 	C 	0.41190 0.05390 0.67550 -0.08500
H 	H 	0.50440 0.00010 0.67280 0.09300
C 	C 	0.49460 0.15090 0.66050 0.31300
C 	C 	0.46810 0.39030 0.78940 0.32000
C 	C 	0.31340 0.46330 0.80680 -0.11200
H 	H 	0.35360 0.52330 0.80660 0.10800
C 	C 	0.12080 0.44790 0.82260 -0.05400
H 	H 	0.03040 0.49940 0.83150 0.08600
C 	C 	0.03140 0.35670 0.82770 0.28500
C 	C 	0.11490 0.19820 0.45540 0.27700
C 	C 	0.15870 0.11310 0.42550 -0.07000
H 	H 	0.23070 0.05350 0.46300 0.08000
C 	C 	0.10470 0.11440 0.35040 -0.10200
H 	H 	0.14080 0.05430 0.34070 0.09700
C 	C 	0.99470 0.19810 0.27950 0.29900
C 	C 	0.38170 0.29580 0.03190 0.30300
C 	C 	0.33510 0.37890 0.06280 -0.08600
H 	H 	0.26400 0.43830 0.02450 0.08500
C 	C 	0.38230 0.37950 0.13900 -0.09200
H 	H 	0.34290 0.43920 0.14900 0.09300
C 	C 	0.49040 0.29530 0.20890 0.28900
Cs	Cs	0.24804 0.08956 0.91817 0.72700
O 	O 	0.60480 0.95500 0.89370 -0.17800
