data_crystal

_cell_length_a 9.27130
_cell_length_b 14.45300
_cell_length_c 9.99600
_cell_angle_alpha 90.00000
_cell_angle_beta  116.16000
_cell_angle_gamma 90.00000

_symmetry_space_group_name_	'P 1'
_symmetry_space_group_name_H-M	'P 1'

loop_
_symmetry_equiv_pos_as_xyz
  x,y,z

loop_
_atom_site_label
_atom_site_type_symbol
_atom_site_fract_x
_atom_site_fract_y
_atom_site_fract_z
_atom_site_charge
H 	H 	0.43300 0.41600 0.52000 -0.02900
H 	H 	0.77500 0.29600 0.95500 -0.03300
H 	H 	0.04800 0.22400 0.95900 -0.04700
H 	H 	0.05700 0.19400 0.45600 -0.03800
H 	H 	0.99500 0.38000 0.88800 -0.08000
In	In	0.27157 0.35405 0.76791 2.01100
In	In	0.00805 0.46119 0.25249 2.01200
In	In	0.24713 0.06013 0.25239 2.01500
O 	O 	0.12300 0.44160 0.11420 -0.49900
O 	O 	0.26880 0.12800 0.07400 -0.48600
O 	O 	0.02190 0.38040 0.62810 -0.50300
O 	O 	0.78620 0.48520 0.57970 -0.47700
O 	O 	0.00560 0.54140 0.88210 -0.49900
O 	O 	0.06220 0.32400 0.32880 -0.51800
O 	O 	0.23000 0.23660 0.86650 -0.49100
O 	O 	0.49850 0.57110 0.60020 -0.43000
O 	O 	0.32690 0.47930 0.69010 -0.49100
O 	O 	0.04710 0.10130 0.81070 -0.48000
O 	O 	0.22650 0.51940 0.41700 -0.46400
O 	O 	0.52210 0.33500 0.90550 -0.46100
O 	O 	0.27880 0.27690 0.58610 -0.47900
O 	O 	0.24280 0.18700 0.36070 -0.47400
O 	O 	0.76880 0.41440 0.09320 -0.45700
O 	O 	0.69460 0.43050 0.81620 -0.52000
O 	O 	0.88220 0.46980 0.38630 -0.47200
O 	O 	0.24450 0.43870 0.93540 -0.43600
P 	P 	0.37159 0.49554 0.56205 0.45800
P 	P 	0.68945 0.37141 0.93744 0.49800
P 	P 	0.14641 0.17077 0.92754 0.52200
P 	P 	0.15709 0.24615 0.42857 0.51800
P 	P 	0.08821 0.45113 0.95159 0.47800
P 	P 	0.93385 0.46950 0.55297 0.57000
H 	H 	0.01120 0.52400 0.60760 -0.14500
H 	H 	0.56700 0.91600 0.48000 -0.02800
H 	H 	0.22500 0.79600 0.04500 -0.03400
H 	H 	0.95200 0.72400 0.04100 -0.05000
H 	H 	0.94300 0.69400 0.54400 -0.04400
H 	H 	0.00500 0.88000 0.11200 -0.06900
In	In	0.72843 0.85405 0.23209 2.00900
In	In	0.99195 0.96119 0.74751 1.99900
In	In	0.75287 0.56013 0.74761 2.00700
O 	O 	0.87700 0.94160 0.88580 -0.51300
O 	O 	0.73120 0.62800 0.92600 -0.50300
O 	O 	0.97810 0.88040 0.37190 -0.50900
O 	O 	0.21380 0.98520 0.42030 -0.49300
O 	O 	0.99440 0.04140 0.11790 -0.44800
O 	O 	0.93780 0.82400 0.67120 -0.52600
O 	O 	0.77000 0.73660 0.13350 -0.49600
O 	O 	0.50150 0.07110 0.39980 -0.38200
O 	O 	0.67310 0.97930 0.30990 -0.50300
O 	O 	0.95290 0.60130 0.18930 -0.49900
O 	O 	0.77350 0.01940 0.58300 -0.40400
O 	O 	0.47790 0.83500 0.09450 -0.46600
O 	O 	0.72120 0.77690 0.41390 -0.48400
O 	O 	0.75720 0.68700 0.63930 -0.48000
O 	O 	0.23120 0.91440 0.90680 -0.46600
O 	O 	0.30540 0.93050 0.18380 -0.53500
O 	O 	0.11780 0.96980 0.61370 -0.47800
O 	O 	0.75550 0.93870 0.06460 -0.44500
P 	P 	0.62841 0.99554 0.43795 0.37900
P 	P 	0.31055 0.87141 0.06256 0.49800
P 	P 	0.85359 0.67077 0.07246 0.52400
P 	P 	0.84291 0.74615 0.57143 0.51700
P 	P 	0.91179 0.95113 0.04841 0.42300
P 	P 	0.06615 0.96950 0.44703 0.51900
H 	H 	0.98880 0.02400 0.39240 -0.09300
