data_crystal

_cell_length_a 15.25630
_cell_length_b 16.06990
_cell_length_c 23.59370
_cell_angle_alpha 90.00000
_cell_angle_beta  90.00000
_cell_angle_gamma 118.33900

_symmetry_space_group_name_	'P 1'
_symmetry_space_group_name_H-M	'P 1'

loop_
_symmetry_equiv_pos_as_xyz
  x,y,z

loop_
_atom_site_label
_atom_site_type_symbol
_atom_site_fract_x
_atom_site_fract_y
_atom_site_fract_z
_atom_site_charge
Cu	Cu	0.53432 0.43824 0.50000 0.90500
Cu	Cu	0.46568 0.56176 0.50000 0.90500
Cu	Cu	0.90392 0.43824 -0.00000 0.88400
Cu	Cu	0.09608 0.56176 -0.00000 0.88400
H 	H 	0.65560 0.75200 0.63010 0.00700
H 	H 	0.76650 0.83340 0.70270 0.11100
H 	H 	0.87120 0.64860 0.69740 0.11500
H 	H 	0.75780 0.56460 0.62840 0.00300
H 	H 	0.96530 0.91920 0.66570 0.06500
H 	H 	0.34440 0.24800 0.63010 0.00700
H 	H 	0.23350 0.16660 0.70270 0.11100
H 	H 	0.12880 0.35140 0.69740 0.11500
H 	H 	0.24220 0.43540 0.62840 0.00300
H 	H 	0.03470 0.08080 0.66570 0.06500
H 	H 	0.09640 0.75200 0.86990 0.01300
H 	H 	0.06690 0.83340 0.79730 0.11000
H 	H 	0.77740 0.64860 0.80260 0.11600
H 	H 	0.80680 0.56460 0.87160 0.01000
H 	H 	0.95390 0.91920 0.83430 0.07000
H 	H 	0.90360 0.24800 0.86990 0.01300
H 	H 	0.93310 0.16660 0.79730 0.11000
H 	H 	0.22260 0.35140 0.80260 0.11600
H 	H 	0.19320 0.43540 0.87160 0.01000
H 	H 	0.04610 0.08080 0.83430 0.07000
H 	H 	0.34440 0.24800 0.36990 0.00600
H 	H 	0.23350 0.16660 0.29730 0.10800
H 	H 	0.12880 0.35140 0.30260 0.11400
H 	H 	0.24220 0.43540 0.37160 0.00200
H 	H 	0.03470 0.08080 0.33430 0.06500
H 	H 	0.65560 0.75200 0.36990 0.00600
H 	H 	0.76650 0.83340 0.29730 0.10800
H 	H 	0.87120 0.64860 0.30260 0.11400
H 	H 	0.75780 0.56460 0.37160 0.00200
H 	H 	0.96530 0.91920 0.33430 0.06500
H 	H 	0.90360 0.24800 0.13010 0.00000
H 	H 	0.93310 0.16660 0.20270 0.10900
H 	H 	0.22260 0.35140 0.19740 0.11300
H 	H 	0.19320 0.43540 0.12840 -0.00300
H 	H 	0.04610 0.08080 0.16570 0.06000
H 	H 	0.09640 0.75200 0.13010 0.00000
H 	H 	0.06690 0.83340 0.20270 0.10900
H 	H 	0.77740 0.64860 0.19740 0.11300
H 	H 	0.80680 0.56460 0.12840 -0.00300
H 	H 	0.95390 0.91920 0.16570 0.06000
C 	C 	0.62316 0.59480 0.57599 0.39300
C 	C 	0.69547 0.64944 0.62155 -0.17400
C 	C 	0.69844 0.73052 0.64382 0.11600
C 	C 	0.76597 0.78004 0.68702 -0.21300
C 	C 	0.83220 0.75036 0.70657 0.19100
C 	C 	0.82783 0.66978 0.68426 -0.22600
C 	C 	0.76007 0.61964 0.64261 0.12700
C 	C 	0.97746 0.95122 0.70005 -0.08300
C 	C 	0.37684 0.40520 0.57599 0.39300
C 	C 	0.30453 0.35056 0.62155 -0.17400
C 	C 	0.30156 0.26948 0.64382 0.11600
C 	C 	0.23403 0.21996 0.68702 -0.21300
C 	C 	0.16780 0.24964 0.70657 0.19100
C 	C 	0.17217 0.33022 0.68426 -0.22600
C 	C 	0.23993 0.38036 0.64261 0.12700
C 	C 	0.02254 0.04878 0.70005 -0.08300
C 	C 	0.97164 0.59480 0.92401 0.38700
C 	C 	0.95397 0.64944 0.87845 -0.16300
C 	C 	0.03208 0.73052 0.85618 0.11100
C 	C 	0.01407 0.78004 0.81298 -0.20700
C 	C 	0.91816 0.75036 0.79343 0.18800
C 	C 	0.84195 0.66978 0.81574 -0.21900
C 	C 	0.85957 0.61964 0.85739 0.12200
C 	C 	0.97376 0.95122 0.79995 -0.08200
C 	C 	0.02836 0.40520 0.92401 0.38700
C 	C 	0.04603 0.35056 0.87845 -0.16300
C 	C 	0.96792 0.26948 0.85618 0.11100
C 	C 	0.98593 0.21996 0.81298 -0.20700
C 	C 	0.08184 0.24964 0.79343 0.18800
C 	C 	0.15805 0.33022 0.81574 -0.21900
C 	C 	0.14043 0.38036 0.85739 0.12200
C 	C 	0.02624 0.04878 0.79995 -0.08200
C 	C 	0.37684 0.40520 0.42401 0.39300
C 	C 	0.30453 0.35056 0.37845 -0.17400
C 	C 	0.30156 0.26948 0.35618 0.11500
C 	C 	0.23403 0.21996 0.31298 -0.21400
C 	C 	0.16780 0.24964 0.29343 0.18900
C 	C 	0.17217 0.33022 0.31574 -0.22600
C 	C 	0.23993 0.38036 0.35739 0.12600
C 	C 	0.02254 0.04878 0.29995 -0.08400
C 	C 	0.62316 0.59480 0.42401 0.39300
C 	C 	0.69547 0.64944 0.37845 -0.17400
C 	C 	0.69844 0.73052 0.35618 0.11500
C 	C 	0.76597 0.78004 0.31298 -0.21400
C 	C 	0.83220 0.75036 0.29343 0.18900
C 	C 	0.82783 0.66978 0.31574 -0.22600
C 	C 	0.76007 0.61964 0.35739 0.12600
C 	C 	0.97746 0.95122 0.29995 -0.08400
C 	C 	0.02836 0.40520 0.07599 0.39400
C 	C 	0.04603 0.35056 0.12155 -0.18200
C 	C 	0.96792 0.26948 0.14382 0.11800
C 	C 	0.98593 0.21996 0.18702 -0.21700
C 	C 	0.08184 0.24964 0.20657 0.19000
C 	C 	0.15805 0.33022 0.18426 -0.23100
C 	C 	0.14043 0.38036 0.14261 0.12900
C 	C 	0.02624 0.04878 0.20005 -0.08400
C 	C 	0.97164 0.59480 0.07599 0.39400
C 	C 	0.95397 0.64944 0.12155 -0.18200
C 	C 	0.03208 0.73052 0.14382 0.11800
C 	C 	0.01407 0.78004 0.18702 -0.21700
C 	C 	0.91816 0.75036 0.20657 0.19000
C 	C 	0.84195 0.66978 0.18426 -0.23100
C 	C 	0.85957 0.61964 0.14261 0.12900
C 	C 	0.97376 0.95122 0.20005 -0.08400
C 	C 	0.95021 0.90042 0.75000 0.09600
C 	C 	0.04979 0.09958 0.75000 0.09600
C 	C 	0.04979 0.09958 0.25000 0.09400
C 	C 	0.95021 0.90042 0.25000 0.09400
N 	N 	0.90035 0.80070 0.75000 -0.18700
N 	N 	0.09965 0.19930 0.75000 -0.18700
N 	N 	0.09965 0.19930 0.25000 -0.18800
N 	N 	0.90035 0.80070 0.25000 -0.18800
O 	O 	0.62395 0.52198 0.55836 -0.42000
O 	O 	0.56727 0.62720 0.55837 -0.41200
O 	O 	0.37605 0.47802 0.55836 -0.42000
O 	O 	0.43273 0.37280 0.55837 -0.41200
O 	O 	0.89803 0.52198 0.94164 -0.39600
O 	O 	0.05993 0.62720 0.94163 -0.38900
O 	O 	0.10197 0.47802 0.94164 -0.39600
O 	O 	0.94007 0.37280 0.94163 -0.38900
O 	O 	0.37605 0.47802 0.44164 -0.42000
O 	O 	0.43273 0.37280 0.44163 -0.41300
O 	O 	0.62395 0.52198 0.44164 -0.42000
O 	O 	0.56727 0.62720 0.44163 -0.41300
O 	O 	0.10197 0.47802 0.05836 -0.43300
O 	O 	0.94007 0.37280 0.05837 -0.42500
O 	O 	0.89803 0.52198 0.05836 -0.43300
O 	O 	0.05993 0.62720 0.05837 -0.42500
