data_crystal

_cell_length_a 9.25060
_cell_length_b 19.69500
_cell_length_c 18.77000
_cell_angle_alpha 90.00000
_cell_angle_beta  90.00000
_cell_angle_gamma 90.00000

_symmetry_space_group_name_	'P 1'
_symmetry_space_group_name_H-M	'P 1'

loop_
_symmetry_equiv_pos_as_xyz
  x,y,z

loop_
_atom_site_label
_atom_site_type_symbol
_atom_site_fract_x
_atom_site_fract_y
_atom_site_fract_z
_atom_site_charge
Cd	Cd	0.16348 0.33698 0.72963 1.19300
Cd	Cd	0.29166 0.89282 0.28265 1.20500
Cd	Cd	0.83652 0.66302 0.22963 1.19300
Cd	Cd	0.70834 0.10718 0.78265 1.20500
Cd	Cd	0.33652 0.83698 0.72963 1.19400
Cd	Cd	0.20834 0.39282 0.28265 1.20600
Cd	Cd	0.66348 0.16302 0.22963 1.19400
Cd	Cd	0.79166 0.60718 0.78265 1.20600
H 	H 	0.32840 0.70060 0.60250 0.26500
H 	H 	0.22950 0.53380 0.41980 0.26800
H 	H 	0.23250 0.56250 0.07860 0.07100
H 	H 	0.36590 0.46540 0.06140 0.02500
H 	H 	0.33650 0.40180 0.95910 0.06200
H 	H 	0.24240 0.69310 0.91720 0.06900
H 	H 	0.41100 0.77610 0.93670 0.01600
H 	H 	0.42600 0.82750 0.04700 0.06700
H 	H 	0.06530 0.48460 0.69740 -0.01600
H 	H 	0.07080 0.57080 0.61750 0.10300
H 	H 	0.37890 0.47090 0.51110 0.10100
H 	H 	0.36210 0.38690 0.59410 -0.02700
H 	H 	0.12850 0.60530 0.49280 0.02800
H 	H 	0.42490 0.63040 0.52620 0.02500
H 	H 	0.14960 0.75560 0.50980 0.08700
H 	H 	0.13230 0.83470 0.42300 0.00300
H 	H 	0.46310 0.75920 0.32440 -0.02500
H 	H 	0.49010 0.67690 0.40910 0.09400
H 	H 	0.05240 0.96260 0.31580 0.48100
H 	H 	0.08510 0.89580 0.28310 0.27700
H 	H 	0.67160 0.29940 0.10250 0.26300
H 	H 	0.77050 0.46620 0.91980 0.27000
H 	H 	0.76750 0.43750 0.57860 0.06800
H 	H 	0.63410 0.53460 0.56140 0.02400
H 	H 	0.66350 0.59820 0.45910 0.06300
H 	H 	0.75760 0.30690 0.41720 0.06900
H 	H 	0.58900 0.22390 0.43670 0.01900
H 	H 	0.57400 0.17250 0.54700 0.06400
H 	H 	0.93470 0.51540 0.19740 -0.01500
H 	H 	0.92920 0.42920 0.11750 0.09900
H 	H 	0.62110 0.52910 0.01110 0.09600
H 	H 	0.63790 0.61310 0.09410 -0.02600
H 	H 	0.87150 0.39470 0.99280 0.02400
H 	H 	0.57510 0.36960 0.02620 0.02700
H 	H 	0.85040 0.24440 0.00980 0.07900
H 	H 	0.86770 0.16530 0.92300 0.00600
H 	H 	0.53690 0.24080 0.82440 -0.02600
H 	H 	0.50990 0.32310 0.90910 0.09600
H 	H 	0.94760 0.03740 0.81580 0.48100
H 	H 	0.91490 0.10420 0.78310 0.27700
H 	H 	0.17160 0.20060 0.60250 0.26500
H 	H 	0.27050 0.03380 0.41980 0.26800
H 	H 	0.26750 0.06250 0.07860 0.07100
H 	H 	0.13410 0.96540 0.06140 0.02600
H 	H 	0.16350 0.90180 0.95910 0.06100
H 	H 	0.25760 0.19310 0.91720 0.07000
H 	H 	0.08900 0.27610 0.93670 0.01600
H 	H 	0.07400 0.32750 0.04700 0.06700
H 	H 	0.43470 0.98460 0.69740 -0.01600
H 	H 	0.42920 0.07080 0.61750 0.10300
H 	H 	0.12110 0.97090 0.51110 0.10100
H 	H 	0.13790 0.88690 0.59410 -0.02700
H 	H 	0.37150 0.10530 0.49280 0.02800
H 	H 	0.07510 0.13040 0.52620 0.02500
H 	H 	0.35040 0.25560 0.50980 0.08700
H 	H 	0.36770 0.33470 0.42300 0.00300
H 	H 	0.03690 0.25920 0.32440 -0.02600
H 	H 	0.00990 0.17690 0.40910 0.09400
H 	H 	0.44760 0.46260 0.31580 0.48100
H 	H 	0.41490 0.39580 0.28310 0.27800
H 	H 	0.82840 0.79940 0.10250 0.26300
H 	H 	0.72950 0.96620 0.91980 0.27000
H 	H 	0.73250 0.93750 0.57860 0.06800
H 	H 	0.86590 0.03460 0.56140 0.02400
H 	H 	0.83650 0.09820 0.45910 0.06300
H 	H 	0.74240 0.80690 0.41720 0.06900
H 	H 	0.91100 0.72390 0.43670 0.01900
H 	H 	0.92600 0.67250 0.54700 0.06400
H 	H 	0.56530 0.01540 0.19740 -0.01500
H 	H 	0.57080 0.92920 0.11750 0.09900
H 	H 	0.87890 0.02910 0.01110 0.09600
H 	H 	0.86210 0.11310 0.09410 -0.02600
H 	H 	0.62850 0.89470 0.99280 0.02400
H 	H 	0.92490 0.86960 0.02620 0.02700
H 	H 	0.64960 0.74440 0.00980 0.07800
H 	H 	0.63230 0.66530 0.92300 0.00600
H 	H 	0.96310 0.74080 0.82440 -0.02600
H 	H 	0.99010 0.82310 0.90910 0.09500
H 	H 	0.55240 0.53740 0.81580 0.48100
H 	H 	0.58510 0.60420 0.78310 0.27800
C 	C 	0.18540 0.46160 0.91330 -0.02100
C 	C 	0.10530 0.52120 0.92280 -0.07900
C 	C 	0.12510 0.55940 0.98510 0.07600
C 	C 	0.22130 0.53760 0.03690 -0.11500
C 	C 	0.30040 0.47930 0.02680 -0.00300
C 	C 	0.28280 0.44130 0.96550 -0.04700
C 	C 	0.99970 0.54800 0.86870 0.32000
C 	C 	0.16730 0.41920 0.84800 0.29000
C 	C 	0.15130 0.69510 0.01600 0.05800
C 	C 	0.24750 0.71430 0.96140 -0.10300
C 	C 	0.34780 0.76350 0.97290 0.02000
C 	C 	0.35530 0.79480 0.03900 -0.07800
C 	C 	0.26070 0.77860 0.09310 -0.02000
C 	C 	0.15680 0.72820 0.08120 -0.08600
C 	C 	0.05130 0.70600 0.13800 0.33600
C 	C 	0.26830 0.81590 0.16240 0.29400
C 	C 	0.12970 0.48200 0.65940 0.09900
C 	C 	0.13200 0.53380 0.61140 -0.15800
C 	C 	0.22460 0.53180 0.55390 0.09600
C 	C 	0.31360 0.47490 0.54850 -0.16100
C 	C 	0.30350 0.42500 0.59910 0.10100
C 	C 	0.22710 0.58800 0.49890 0.06900
C 	C 	0.32500 0.64690 0.52380 0.08500
C 	C 	0.31760 0.70400 0.46930 0.08000
C 	C 	0.21400 0.75430 0.47180 -0.14300
C 	C 	0.20450 0.80200 0.41940 0.08400
C 	C 	0.39760 0.75780 0.36190 0.09300
C 	C 	0.41450 0.70780 0.41270 -0.14400
C 	C 	0.81460 0.53840 0.41330 -0.02000
C 	C 	0.89470 0.47880 0.42280 -0.07700
C 	C 	0.87490 0.44060 0.48510 0.06200
C 	C 	0.77870 0.46240 0.53690 -0.10500
C 	C 	0.69960 0.52070 0.52680 0.00400
C 	C 	0.71720 0.55870 0.46550 -0.05700
C 	C 	0.00030 0.45200 0.36870 0.32000
C 	C 	0.83270 0.58080 0.34800 0.28900
C 	C 	0.84870 0.30490 0.51600 0.06200
C 	C 	0.75250 0.28570 0.46140 -0.10600
C 	C 	0.65220 0.23650 0.47290 0.00800
C 	C 	0.64470 0.20520 0.53900 -0.06500
C 	C 	0.73930 0.22140 0.59310 -0.02300
C 	C 	0.84320 0.27180 0.58120 -0.08500
C 	C 	0.94870 0.29400 0.63800 0.33600
C 	C 	0.73170 0.18410 0.66240 0.29600
C 	C 	0.87030 0.51800 0.15940 0.09400
C 	C 	0.86800 0.46620 0.11140 -0.15000
C 	C 	0.77540 0.46820 0.05390 0.08200
C 	C 	0.68640 0.52510 0.04850 -0.15300
C 	C 	0.69650 0.57500 0.09910 0.09600
C 	C 	0.77290 0.41200 0.99890 0.08700
C 	C 	0.67500 0.35310 0.02380 0.07000
C 	C 	0.68240 0.29600 0.96930 0.08600
C 	C 	0.78600 0.24570 0.97180 -0.13200
C 	C 	0.79550 0.19800 0.91940 0.07900
C 	C 	0.60240 0.24220 0.86190 0.09500
C 	C 	0.58550 0.29220 0.91270 -0.14600
C 	C 	0.31460 0.96160 0.91330 -0.02100
C 	C 	0.39470 0.02120 0.92280 -0.07900
C 	C 	0.37490 0.05940 0.98510 0.07500
C 	C 	0.27870 0.03760 0.03690 -0.11300
C 	C 	0.19960 0.97930 0.02680 -0.00500
C 	C 	0.21720 0.94130 0.96550 -0.04600
C 	C 	0.50030 0.04800 0.86870 0.32100
C 	C 	0.33270 0.91920 0.84800 0.29000
C 	C 	0.34870 0.19510 0.01600 0.05800
C 	C 	0.25250 0.21430 0.96140 -0.10400
C 	C 	0.15220 0.26350 0.97290 0.02000
C 	C 	0.14470 0.29480 0.03900 -0.07800
C 	C 	0.23930 0.27860 0.09310 -0.02000
C 	C 	0.34320 0.22820 0.08120 -0.08600
C 	C 	0.44870 0.20600 0.13800 0.33600
C 	C 	0.23170 0.31590 0.16240 0.29400
C 	C 	0.37030 0.98200 0.65940 0.09900
C 	C 	0.36800 0.03380 0.61140 -0.15800
C 	C 	0.27540 0.03180 0.55390 0.09600
C 	C 	0.18640 0.97490 0.54850 -0.16100
C 	C 	0.19650 0.92500 0.59910 0.10100
C 	C 	0.27290 0.08800 0.49890 0.06900
C 	C 	0.17500 0.14690 0.52380 0.08500
C 	C 	0.18240 0.20400 0.46930 0.08000
C 	C 	0.28600 0.25430 0.47180 -0.14300
C 	C 	0.29550 0.30200 0.41940 0.08400
C 	C 	0.10240 0.25780 0.36190 0.09300
C 	C 	0.08550 0.20780 0.41270 -0.14400
C 	C 	0.68540 0.03840 0.41330 -0.02000
C 	C 	0.60530 0.97880 0.42280 -0.07700
C 	C 	0.62510 0.94060 0.48510 0.06200
C 	C 	0.72130 0.96240 0.53690 -0.10500
C 	C 	0.80040 0.02070 0.52680 0.00400
C 	C 	0.78280 0.05870 0.46550 -0.05700
C 	C 	0.49970 0.95200 0.36870 0.32000
C 	C 	0.66730 0.08080 0.34800 0.28900
C 	C 	0.65130 0.80490 0.51600 0.06200
C 	C 	0.74750 0.78570 0.46140 -0.10600
C 	C 	0.84780 0.73650 0.47290 0.00800
C 	C 	0.85530 0.70520 0.53900 -0.06500
C 	C 	0.76070 0.72140 0.59310 -0.02300
C 	C 	0.65680 0.77180 0.58120 -0.08500
C 	C 	0.55130 0.79400 0.63800 0.33600
C 	C 	0.76830 0.68410 0.66240 0.29600
C 	C 	0.62970 0.01800 0.15940 0.09400
C 	C 	0.63200 0.96620 0.11140 -0.15000
C 	C 	0.72460 0.96820 0.05390 0.08100
C 	C 	0.81360 0.02510 0.04850 -0.15300
C 	C 	0.80350 0.07500 0.09910 0.09600
C 	C 	0.72710 0.91200 0.99890 0.08800
C 	C 	0.82500 0.85310 0.02380 0.06900
C 	C 	0.81760 0.79600 0.96930 0.08500
C 	C 	0.71400 0.74570 0.97180 -0.13000
C 	C 	0.70450 0.69800 0.91940 0.07900
C 	C 	0.89760 0.74220 0.86190 0.09400
C 	C 	0.91450 0.79220 0.91270 -0.14600
S 	S 	0.01698 0.63252 0.00003 -0.04400
S 	S 	0.98302 0.36748 0.50003 -0.03400
S 	S 	0.48302 0.13252 0.00003 -0.04300
S 	S 	0.51698 0.86748 0.50003 -0.03400
N 	N 	0.29280 0.80450 0.36340 -0.23500
N 	N 	0.21520 0.42770 0.65470 -0.24800
N 	N 	0.70720 0.19550 0.86340 -0.23400
N 	N 	0.78480 0.57230 0.15470 -0.24600
N 	N 	0.20720 0.30450 0.36340 -0.23500
N 	N 	0.28480 0.92770 0.65470 -0.24800
N 	N 	0.79280 0.69550 0.86340 -0.23400
N 	N 	0.71520 0.07230 0.15470 -0.24600
O 	O 	0.04350 0.58086 0.81599 -0.35900
O 	O 	0.86620 0.53864 0.88015 -0.39300
O 	O 	0.05230 0.42038 0.81372 -0.35500
O 	O 	0.27270 0.38154 0.82994 -0.40600
O 	O 	0.09260 0.66628 0.18569 -0.36500
O 	O 	0.92270 0.72487 0.13260 -0.42500
O 	O 	0.15870 0.82120 0.20051 -0.38600
O 	O 	0.38590 0.84220 0.18060 -0.39400
O 	O 	0.28330 0.66650 0.59070 -0.39500
O 	O 	0.27790 0.56616 0.43340 -0.39100
O 	O 	0.05640 0.92460 0.31460 -0.91900
O 	O 	0.95650 0.41914 0.31599 -0.36000
O 	O 	0.13380 0.46136 0.38015 -0.39400
O 	O 	0.94770 0.57962 0.31372 -0.35500
O 	O 	0.72730 0.61846 0.32994 -0.40600
O 	O 	0.90740 0.33372 0.68569 -0.36500
O 	O 	0.07730 0.27513 0.63260 -0.42400
O 	O 	0.84130 0.17880 0.70051 -0.38700
O 	O 	0.61410 0.15780 0.68060 -0.39400
O 	O 	0.71670 0.33350 0.09070 -0.39100
O 	O 	0.72210 0.43384 0.93340 -0.39400
O 	O 	0.94360 0.07540 0.81460 -0.91900
O 	O 	0.45650 0.08086 0.81599 -0.36000
O 	O 	0.63380 0.03864 0.88015 -0.39400
O 	O 	0.44770 0.92038 0.81372 -0.35500
O 	O 	0.22730 0.88154 0.82994 -0.40600
O 	O 	0.40740 0.16628 0.18569 -0.36500
O 	O 	0.57730 0.22487 0.13260 -0.42500
O 	O 	0.34130 0.32120 0.20051 -0.38600
O 	O 	0.11410 0.34220 0.18060 -0.39400
O 	O 	0.21670 0.16650 0.59070 -0.39500
O 	O 	0.22210 0.06616 0.43340 -0.39100
O 	O 	0.44360 0.42460 0.31460 -0.91900
O 	O 	0.54350 0.91914 0.31599 -0.36000
O 	O 	0.36620 0.96136 0.38015 -0.39400
O 	O 	0.55230 0.07962 0.31372 -0.35500
O 	O 	0.77270 0.11846 0.32994 -0.40600
O 	O 	0.59260 0.83372 0.68569 -0.36500
O 	O 	0.42270 0.77513 0.63260 -0.42500
O 	O 	0.65870 0.67880 0.70051 -0.38700
O 	O 	0.88590 0.65780 0.68060 -0.39500
O 	O 	0.78330 0.83350 0.09070 -0.39100
O 	O 	0.77790 0.93384 0.93340 -0.39400
O 	O 	0.55640 0.57540 0.81460 -0.91900
