data_crystal

_cell_length_a 8.39100
_cell_length_b 11.83100
_cell_length_c 8.84200
_cell_angle_alpha 90.00000
_cell_angle_beta  90.00000
_cell_angle_gamma 90.00000

_symmetry_space_group_name_	'P 1'
_symmetry_space_group_name_H-M	'P 1'

loop_
_symmetry_equiv_pos_as_xyz
  x,y,z

loop_
_atom_site_label
_atom_site_type_symbol
_atom_site_fract_x
_atom_site_fract_y
_atom_site_fract_z
_atom_site_charge
C 	C 	0.51810 0.27700 0.01900 0.58700
H 	H 	0.58080 0.22370 0.06830 -0.15000
O 	O 	0.75160 0.09430 0.86020 -0.44200
O 	O 	0.56080 0.30480 0.88940 -0.45800
O 	O 	0.40240 0.31240 0.08830 -0.48600
C 	C 	0.98190 0.72300 0.01900 0.55900
H 	H 	0.91920 0.77630 0.06830 -0.13000
O 	O 	0.74840 0.90570 0.86020 -0.38500
O 	O 	0.93920 0.69520 0.88940 -0.44100
O 	O 	0.09760 0.68760 0.08830 -0.46900
C 	C 	0.98190 0.77700 0.48100 0.57800
H 	H 	0.91920 0.72370 0.43170 -0.13900
O 	O 	0.74840 0.59430 0.63980 -0.46200
O 	O 	0.93920 0.80480 0.61060 -0.43900
O 	O 	0.09760 0.81240 0.41170 -0.46400
C 	C 	0.51810 0.22300 0.48100 0.58800
H 	H 	0.58080 0.27630 0.43170 -0.14500
O 	O 	0.75160 0.40570 0.63980 -0.46200
O 	O 	0.56080 0.19520 0.61060 -0.46400
O 	O 	0.40240 0.18760 0.41170 -0.49300
C 	C 	0.48190 0.72300 0.98100 0.58600
H 	H 	0.41920 0.77630 0.93170 -0.13700
O 	O 	0.24840 0.90570 0.13980 -0.38100
O 	O 	0.43920 0.69520 0.11060 -0.45200
O 	O 	0.59760 0.68760 0.91170 -0.48200
C 	C 	0.01810 0.27700 0.98100 0.56400
H 	H 	0.08080 0.22370 0.93170 -0.14400
O 	O 	0.25160 0.09430 0.13980 -0.44100
O 	O 	0.06080 0.30480 0.11060 -0.44700
O 	O 	0.90240 0.31240 0.91170 -0.47500
C 	C 	0.01810 0.22300 0.51900 0.58300
H 	H 	0.08080 0.27630 0.56830 -0.14400
O 	O 	0.25160 0.40570 0.36020 -0.46200
O 	O 	0.06080 0.19520 0.38940 -0.46200
O 	O 	0.90240 0.18760 0.58830 -0.49000
C 	C 	0.48190 0.77700 0.51900 0.58600
H 	H 	0.41920 0.72370 0.56830 -0.14000
O 	O 	0.24840 0.59430 0.36020 -0.46200
O 	O 	0.43920 0.80480 0.38940 -0.44000
O 	O 	0.59760 0.81240 0.58830 -0.46800
C 	C 	0.75000 0.00000 0.80000 0.43700
H 	H 	0.75000 0.00000 0.69480 -0.11300
C 	C 	0.75000 0.50000 0.70000 0.55700
H 	H 	0.75000 0.50000 0.80520 -0.13000
C 	C 	0.25000 0.00000 0.20000 0.43100
H 	H 	0.25000 0.00000 0.30520 -0.11200
C 	C 	0.25000 0.50000 0.30000 0.55700
H 	H 	0.25000 0.50000 0.19480 -0.13000
Mg	Mg	0.74743 0.25000 0.75000 1.48200
Mg	Mg	0.75257 0.75000 0.75000 1.48200
Mg	Mg	0.25257 0.75000 0.25000 1.48200
Mg	Mg	0.24743 0.25000 0.25000 1.48200
