data_crystal

_cell_length_a 8.70900
_cell_length_b 11.58700
_cell_length_c 8.28000
_cell_angle_alpha 90.00000
_cell_angle_beta  90.00000
_cell_angle_gamma 90.00000

_symmetry_space_group_name_	'P 1'
_symmetry_space_group_name_H-M	'P 1'

loop_
_symmetry_equiv_pos_as_xyz
  x,y,z

loop_
_atom_site_label
_atom_site_type_symbol
_atom_site_fract_x
_atom_site_fract_y
_atom_site_fract_z
_atom_site_charge
C 	C 	0.97029 0.21972 0.02571 0.50500
H 	H 	0.91800 0.28040 0.08000 -0.11500
O 	O 	0.24059 0.40404 0.11873 -0.42800
O 	O 	0.08746 0.17983 0.09078 -0.46100
O 	O 	0.91591 0.18578 0.89362 -0.44200
C 	C 	0.52971 0.78028 0.02571 0.52300
H 	H 	0.58200 0.71960 0.08000 -0.11800
O 	O 	0.25941 0.59596 0.11873 -0.42900
O 	O 	0.41254 0.82017 0.09078 -0.44800
O 	O 	0.58409 0.81422 0.89362 -0.42800
C 	C 	0.52971 0.71972 0.47429 0.52700
H 	H 	0.58200 0.78040 0.42000 -0.11500
O 	O 	0.25941 0.90404 0.38127 -0.36500
O 	O 	0.41254 0.67983 0.40922 -0.46300
O 	O 	0.58409 0.68578 0.60638 -0.44200
C 	C 	0.97029 0.28028 0.47429 0.52500
H 	H 	0.91800 0.21960 0.42000 -0.12600
O 	O 	0.24059 0.09596 0.38127 -0.41700
O 	O 	0.08746 0.32017 0.40922 -0.46400
O 	O 	0.91591 0.31422 0.60638 -0.44500
C 	C 	0.02971 0.78028 0.97429 0.50000
H 	H 	0.08200 0.71960 0.92000 -0.11200
O 	O 	0.75941 0.59596 0.88127 -0.42800
O 	O 	0.91254 0.82017 0.90922 -0.43600
O 	O 	0.08409 0.81422 0.10638 -0.41900
C 	C 	0.47029 0.21972 0.97429 0.52600
H 	H 	0.41800 0.28040 0.92000 -0.12200
O 	O 	0.74059 0.40404 0.88127 -0.42900
O 	O 	0.58746 0.17983 0.90922 -0.47200
O 	O 	0.41591 0.18578 0.10638 -0.45100
C 	C 	0.47029 0.28028 0.52571 0.52800
H 	H 	0.41800 0.21960 0.58000 -0.12600
O 	O 	0.74059 0.09596 0.61873 -0.41600
O 	O 	0.58746 0.32017 0.59078 -0.46600
O 	O 	0.41591 0.31422 0.39362 -0.44600
C 	C 	0.02971 0.71972 0.52571 0.52300
H 	H 	0.08200 0.78040 0.58000 -0.11400
O 	O 	0.75941 0.90404 0.61873 -0.36200
O 	O 	0.91254 0.67983 0.59078 -0.46000
O 	O 	0.08409 0.68578 0.39362 -0.44100
C 	C 	0.25000 0.50000 0.18840 0.47400
H 	H 	0.25000 0.50000 0.30310 -0.09800
C 	C 	0.25000 0.00000 0.31160 0.37500
H 	H 	0.25000 -0.00000 0.19690 -0.08600
C 	C 	0.75000 0.50000 0.81160 0.47400
H 	H 	0.75000 0.50000 0.69690 -0.09800
C 	C 	0.75000 0.00000 0.68840 0.37000
H 	H 	0.75000 0.00000 0.80310 -0.08600
Mg	Mg	0.24103 0.25000 0.25000 1.48100
Mg	Mg	0.25897 0.75000 0.25000 1.48100
Mg	Mg	0.75897 0.75000 0.75000 1.48100
Mg	Mg	0.74103 0.25000 0.75000 1.48100
