data_crystal

_cell_length_a 10.01100
_cell_length_b 19.36900
_cell_length_c 6.41400
_cell_angle_alpha 90.00000
_cell_angle_beta  90.00000
_cell_angle_gamma 90.00000

_symmetry_space_group_name_	'P 1'
_symmetry_space_group_name_H-M	'P 1'

loop_
_symmetry_equiv_pos_as_xyz
  x,y,z

loop_
_atom_site_label
_atom_site_type_symbol
_atom_site_fract_x
_atom_site_fract_y
_atom_site_fract_z
_atom_site_charge
N 	N 	0.26750 0.18646 0.68950 -0.15900
C 	C 	0.32630 0.11640 0.68700 0.01700
H 	H 	0.25580 0.08280 0.68850 -0.02600
H 	H 	0.37970 0.10970 0.80960 -0.01300
C 	C 	0.37820 0.23700 0.68700 0.00800
H 	H 	0.43230 0.23050 0.80900 0.00600
H 	H 	0.34270 0.28300 0.69070 -0.00600
H 	H 	0.57170 0.15080 0.37880 -0.02000
N 	N 	0.73250 0.81354 0.68950 -0.15200
C 	C 	0.67370 0.88360 0.68700 0.00700
H 	H 	0.74420 0.91720 0.68850 -0.00600
H 	H 	0.62030 0.89030 0.80960 -0.00000
C 	C 	0.62180 0.76300 0.68700 0.00500
H 	H 	0.56770 0.76950 0.80900 0.00800
H 	H 	0.65730 0.71700 0.69070 -0.00300
H 	H 	0.42830 0.84920 0.37880 -0.01500
N 	N 	0.23250 0.68646 0.81050 -0.15500
C 	C 	0.17370 0.61640 0.81300 0.05000
H 	H 	0.24420 0.58280 0.81150 -0.02400
H 	H 	0.12030 0.60970 0.69040 -0.02800
C 	C 	0.12180 0.73700 0.81300 0.04600
H 	H 	0.06770 0.73050 0.69100 -0.01800
H 	H 	0.15730 0.78300 0.80930 -0.01300
H 	H 	0.92830 0.65080 0.12120 -0.00600
N 	N 	0.76750 0.31354 0.81050 -0.15300
C 	C 	0.82630 0.38360 0.81300 0.04400
H 	H 	0.75580 0.41720 0.81150 -0.02000
H 	H 	0.87970 0.39030 0.69040 -0.01700
C 	C 	0.87820 0.26300 0.81300 0.03900
H 	H 	0.93230 0.26950 0.69100 -0.00300
H 	H 	0.84270 0.21700 0.80930 -0.00900
H 	H 	0.07170 0.34920 0.12120 0.00800
N 	N 	0.73250 0.81354 0.31050 -0.16200
C 	C 	0.67370 0.88360 0.31300 0.01700
H 	H 	0.74420 0.91720 0.31150 -0.01700
H 	H 	0.62030 0.89030 0.19040 -0.02000
C 	C 	0.62180 0.76300 0.31300 0.01500
H 	H 	0.56770 0.76950 0.19100 -0.01100
H 	H 	0.65730 0.71700 0.30930 -0.01300
H 	H 	0.42830 0.84920 0.62120 -0.00900
N 	N 	0.26750 0.18646 0.31050 -0.16800
C 	C 	0.32630 0.11640 0.31300 0.02800
H 	H 	0.25580 0.08280 0.31150 -0.03700
H 	H 	0.37970 0.10970 0.19040 -0.03100
C 	C 	0.37820 0.23700 0.31300 0.01700
H 	H 	0.43230 0.23050 0.19100 -0.01300
H 	H 	0.34270 0.28300 0.30930 -0.01700
H 	H 	0.57170 0.15080 0.62120 -0.01500
N 	N 	0.76750 0.31354 0.18950 -0.15900
C 	C 	0.82630 0.38360 0.18700 0.01400
H 	H 	0.75580 0.41720 0.18850 -0.02400
H 	H 	0.87970 0.39030 0.30960 -0.00900
C 	C 	0.87820 0.26300 0.18700 0.00800
H 	H 	0.93230 0.26950 0.30900 0.00400
H 	H 	0.84270 0.21700 0.19070 -0.01300
H 	H 	0.07170 0.34920 0.87880 0.03300
N 	N 	0.23250 0.68646 0.18950 -0.16200
C 	C 	0.17370 0.61640 0.18700 0.01800
H 	H 	0.24420 0.58280 0.18850 -0.02800
H 	H 	0.12030 0.60970 0.30960 -0.02100
C 	C 	0.12180 0.73700 0.18700 0.01300
H 	H 	0.06770 0.73050 0.30900 -0.01000
H 	H 	0.15730 0.78300 0.19070 -0.01700
H 	H 	0.92830 0.65080 0.87880 0.01700
Ag	Ag	0.14116 0.19616 -0.00000 0.47500
Ag	Ag	0.85884 0.80384 -0.00000 0.49300
Ag	Ag	0.35884 0.69616 0.50000 0.50000
Ag	Ag	0.64116 0.30384 0.50000 0.50000
Ag	Ag	0.50000 -0.00000 0.50000 0.46000
Ag	Ag	-0.00000 0.50000 -0.00000 0.45100
N 	N 	0.40900 0.10610 0.50000 -0.17700
N 	N 	0.46200 0.22850 0.50000 -0.16400
C 	C 	0.18730 0.19560 0.50000 0.02200
H 	H 	0.11890 0.16090 0.50000 -0.02100
H 	H 	0.14680 0.24060 0.50000 -0.01000
C 	C 	0.51690 0.15730 0.50000 0.01600
N 	N 	0.59100 0.89390 0.50000 -0.16600
N 	N 	0.53800 0.77150 0.50000 -0.16200
C 	C 	0.81270 0.80440 0.50000 0.00900
H 	H 	0.88110 0.83910 0.50000 -0.00000
H 	H 	0.85320 0.75940 0.50000 0.00600
C 	C 	0.48310 0.84270 0.50000 0.01200
N 	N 	0.09100 0.60610 -0.00000 -0.19500
N 	N 	0.03800 0.72850 -0.00000 -0.18900
C 	C 	0.31270 0.69560 -0.00000 -0.00800
H 	H 	0.38110 0.66090 -0.00000 -0.01400
H 	H 	0.35320 0.74060 -0.00000 -0.00600
C 	C 	0.98310 0.65730 -0.00000 -0.00400
N 	N 	0.90900 0.39390 -0.00000 -0.16400
N 	N 	0.96200 0.27150 -0.00000 -0.15400
C 	C 	0.68730 0.30440 -0.00000 -0.00700
H 	H 	0.61890 0.33910 -0.00000 -0.01500
H 	H 	0.64680 0.25940 -0.00000 -0.00700
C 	C 	0.01690 0.34270 -0.00000 -0.10100
