data_crystal

_cell_length_a 10.31000
_cell_length_b 20.00200
_cell_length_c 22.95000
_cell_angle_alpha 90.00000
_cell_angle_beta  90.00000
_cell_angle_gamma 90.49000

_symmetry_space_group_name_	'P 1'
_symmetry_space_group_name_H-M	'P 1'

loop_
_symmetry_equiv_pos_as_xyz
  x,y,z

loop_
_atom_site_label
_atom_site_type_symbol
_atom_site_fract_x
_atom_site_fract_y
_atom_site_fract_z
_atom_site_charge
Ag	Ag	0.47806 0.33983 0.33136 0.45400
Ag	Ag	0.90383 0.88409 0.24219 0.45700
Ag	Ag	0.90146 0.93443 0.51079 0.45600
Ag	Ag	0.90807 0.42581 0.88205 0.45900
Ag	Ag	0.52310 0.16854 0.56374 0.44900
Ag	Ag	0.00548 0.33177 0.55334 0.44900
Ag	Ag	0.40377 0.95257 0.37278 0.45500
Ag	Ag	0.41091 0.87592 0.64860 0.46600
Ag	Ag	0.08777 0.62151 0.65288 0.46700
Ag	Ag	0.60366 0.55726 0.51496 0.46300
Ag	Ag	0.39734 0.38329 0.74740 0.46700
Ag	Ag	0.97656 0.17338 0.34909 0.45300
Ag	Ag	0.52194 0.66017 0.83136 0.45700
Ag	Ag	0.09617 0.11591 0.74219 0.45900
Ag	Ag	0.09854 0.06557 0.01079 0.44800
Ag	Ag	0.09193 0.57419 0.38205 0.45800
Ag	Ag	0.47690 0.83146 0.06374 0.44600
Ag	Ag	0.99452 0.66823 0.05334 0.44500
Ag	Ag	0.59623 0.04743 0.87278 0.45800
Ag	Ag	0.58909 0.12408 0.14860 0.46500
Ag	Ag	0.91223 0.37849 0.15288 0.46600
Ag	Ag	0.39634 0.44274 0.01496 0.45300
Ag	Ag	0.60266 0.61671 0.24740 0.46600
Ag	Ag	0.02344 0.82662 0.84909 0.45600
H 	H 	0.49560 0.06520 0.45620 -0.03100
H 	H 	0.36880 0.04690 0.48970 -0.01300
H 	H 	0.37420 0.01820 0.58820 -0.02700
H 	H 	0.50220 0.01990 0.62400 -0.03800
H 	H 	0.70810 0.04600 0.57000 -0.04000
H 	H 	0.69830 0.06220 0.50400 -0.03500
H 	H 	0.62430 0.90400 0.45550 -0.03300
H 	H 	0.64990 0.97720 0.43540 -0.02900
H 	H 	0.66920 0.93190 0.60220 -0.04100
H 	H 	0.63480 0.87710 0.55670 -0.03800
H 	H 	0.42060 0.87790 0.50980 -0.02700
H 	H 	0.32630 0.93650 0.52240 -0.02200
H 	H 	0.05680 0.62910 0.51760 -0.03000
H 	H 	0.16760 0.57780 0.52660 -0.02500
H 	H 	0.85360 0.53230 0.43790 -0.02700
H 	H 	0.87390 0.60250 0.46550 -0.03200
H 	H 	0.80420 0.43590 0.50290 -0.03100
H 	H 	0.80110 0.44660 0.57010 -0.03400
H 	H 	0.14210 0.46490 0.48700 -0.01500
H 	H 	0.01850 0.44720 0.45100 -0.03100
H 	H 	0.82580 0.55820 0.60890 -0.03700
H 	H 	0.85340 0.61750 0.56680 -0.03800
H 	H 	0.12830 0.48150 0.59030 -0.02600
H 	H 	0.99670 0.47310 0.62270 -0.03100
H 	H 	0.06240 0.69210 0.77250 -0.03800
H 	H 	0.02750 0.74660 0.72680 -0.03900
H 	H 	0.31340 0.72890 0.64380 -0.03800
H 	H 	0.18760 0.77080 0.64690 -0.04000
H 	H 	0.15560 0.84910 0.72220 -0.02600
H 	H 	0.26360 0.86240 0.76790 -0.02700
H 	H 	0.25690 0.62920 0.76520 -0.02800
H 	H 	0.35550 0.64220 0.71490 -0.03200
H 	H 	0.31200 0.77780 0.84040 -0.03500
H 	H 	0.23150 0.71180 0.84250 -0.03500
H 	H 	0.46700 0.79760 0.76290 -0.03600
H 	H 	0.48470 0.74520 0.71350 -0.03500
H 	H 	0.56920 0.62320 0.38670 -0.02900
H 	H 	0.66440 0.56520 0.37410 -0.02700
H 	H 	0.60430 0.45110 0.40830 -0.02800
H 	H 	0.47280 0.44270 0.44040 -0.03300
H 	H 	0.32350 0.57260 0.29130 -0.03600
H 	H 	0.36400 0.62870 0.33460 -0.03400
H 	H 	0.36950 0.60500 0.43690 -0.02600
H 	H 	0.33210 0.53390 0.45860 -0.01700
H 	H 	0.60070 0.47580 0.30280 -0.03100
H 	H 	0.46700 0.48070 0.27190 -0.03400
H 	H 	0.27620 0.44930 0.39130 -0.02800
H 	H 	0.27060 0.46530 0.32520 -0.03600
H 	H 	0.35890 0.15190 0.67570 -0.03700
H 	H 	0.25930 0.13760 0.62650 -0.03200
H 	H 	0.45550 0.30780 0.62930 -0.04000
H 	H 	0.47870 0.25440 0.67720 -0.04100
H 	H 	0.31300 0.23030 0.74970 -0.03300
H 	H 	0.18320 0.26920 0.74840 -0.03500
H 	H 	0.15270 0.35480 0.67240 -0.03700
H 	H 	0.26060 0.36750 0.62630 -0.03200
H 	H 	0.22370 0.21910 0.55230 -0.03900
H 	H 	0.30230 0.28580 0.55280 -0.03800
H 	H 	0.05380 0.19860 0.62570 -0.04100
H 	H 	0.03170 0.25190 0.67400 -0.03600
H 	H 	0.88000 0.03600 0.40600 0.00700
H 	H 	0.02400 0.06200 0.44500 -0.01600
H 	H 	0.17300 0.97400 0.28800 -0.01300
H 	H 	0.13500 0.90000 0.32900 -0.01000
H 	H 	0.16600 0.98400 0.45300 -0.01300
H 	H 	0.15700 0.90900 0.42700 -0.02700
H 	H 	0.18000 0.07000 0.39000 -0.02500
H 	H 	0.21300 0.06000 0.32200 -0.03600
H 	H 	0.02000 0.04100 0.26700 -0.02700
H 	H 	0.88000 0.03600 0.30600 -0.02400
H 	H 	0.93800 0.87600 0.37500 -0.03800
H 	H 	0.84300 0.92500 0.36600 -0.03400
H 	H 	0.50440 0.93480 0.95620 -0.03200
H 	H 	0.63120 0.95310 0.98970 -0.01200
H 	H 	0.62580 0.98180 0.08820 -0.02900
H 	H 	0.49780 0.98010 0.12400 -0.03800
H 	H 	0.29190 0.95400 0.07000 -0.04200
H 	H 	0.30170 0.93780 0.00400 -0.04400
H 	H 	0.37570 0.09600 0.95550 -0.03300
H 	H 	0.35010 0.02280 0.93540 -0.03200
H 	H 	0.33080 0.06810 0.10220 -0.04100
H 	H 	0.36520 0.12290 0.05670 -0.04200
H 	H 	0.57940 0.12210 0.00980 -0.02900
H 	H 	0.67370 0.06350 0.02240 -0.02400
H 	H 	0.94320 0.37090 0.01760 -0.03200
H 	H 	0.83240 0.42220 0.02660 -0.02700
H 	H 	0.14640 0.46770 0.93790 -0.02900
H 	H 	0.12610 0.39750 0.96550 -0.03100
H 	H 	0.19580 0.56410 0.00290 -0.03900
H 	H 	0.19890 0.55340 0.07010 -0.03500
H 	H 	0.85790 0.53510 0.98700 -0.01400
H 	H 	0.98150 0.55280 0.95100 -0.03400
H 	H 	0.17420 0.44180 0.10890 -0.03800
H 	H 	0.14660 0.38250 0.06680 -0.04100
H 	H 	0.87170 0.51850 0.09030 -0.02800
H 	H 	0.00330 0.52690 0.12270 -0.03000
H 	H 	0.93760 0.30790 0.27250 -0.03900
H 	H 	0.97250 0.25340 0.22680 -0.04000
H 	H 	0.68660 0.27110 0.14380 -0.04100
H 	H 	0.81240 0.22920 0.14690 -0.04200
H 	H 	0.84440 0.15090 0.22220 -0.02700
H 	H 	0.73640 0.13760 0.26790 -0.02800
H 	H 	0.74310 0.37080 0.26520 -0.02800
H 	H 	0.64450 0.35780 0.21490 -0.03300
H 	H 	0.68800 0.22220 0.34040 -0.03800
H 	H 	0.76850 0.28820 0.34250 -0.03800
H 	H 	0.53300 0.20240 0.26290 -0.03700
H 	H 	0.51530 0.25480 0.21350 -0.03600
H 	H 	0.43080 0.37680 0.88670 -0.02600
H 	H 	0.33560 0.43480 0.87410 -0.02500
H 	H 	0.39570 0.54890 0.90830 -0.02300
H 	H 	0.52720 0.55730 0.94040 -0.02700
H 	H 	0.67650 0.42740 0.79130 -0.03600
H 	H 	0.63600 0.37130 0.83460 -0.03300
H 	H 	0.63050 0.39500 0.93690 -0.02000
H 	H 	0.66790 0.46610 0.95860 -0.01000
H 	H 	0.39930 0.52420 0.80280 -0.03100
H 	H 	0.53300 0.51930 0.77190 -0.03300
H 	H 	0.72380 0.55070 0.89130 -0.02600
H 	H 	0.72940 0.53470 0.82520 -0.03500
H 	H 	0.64110 0.84810 0.17570 -0.03800
H 	H 	0.74070 0.86240 0.12650 -0.03400
H 	H 	0.54450 0.69220 0.12930 -0.04200
H 	H 	0.52130 0.74560 0.17720 -0.04200
H 	H 	0.68700 0.76970 0.24970 -0.03400
H 	H 	0.81680 0.73080 0.24840 -0.03600
H 	H 	0.84730 0.64520 0.17240 -0.03800
H 	H 	0.73940 0.63250 0.12630 -0.03400
H 	H 	0.77630 0.78090 0.05230 -0.04400
H 	H 	0.69770 0.71420 0.05280 -0.04300
H 	H 	0.94620 0.80140 0.12570 -0.04300
H 	H 	0.96830 0.74810 0.17400 -0.03700
H 	H 	0.12000 0.96400 0.90600 0.01000
H 	H 	0.97600 0.93800 0.94500 -0.01100
H 	H 	0.82700 0.02600 0.78800 -0.01200
H 	H 	0.86500 0.10000 0.82900 -0.00900
H 	H 	0.83400 0.01600 0.95300 -0.00700
H 	H 	0.84300 0.09100 0.92700 -0.02200
H 	H 	0.82000 0.93000 0.89000 -0.02200
H 	H 	0.78700 0.94000 0.82200 -0.03500
H 	H 	0.98000 0.95900 0.76700 -0.02700
H 	H 	0.12000 0.96400 0.80600 -0.02300
H 	H 	0.06200 0.12400 0.87500 -0.03500
H 	H 	0.15700 0.07500 0.86600 -0.03200
C 	C 	0.45960 0.03740 0.48630 0.01400
C 	C 	0.46550 0.00930 0.58660 0.03500
C 	C 	0.66250 0.03530 0.53470 0.03700
C 	C 	0.61320 0.95010 0.46580 0.03200
C 	C 	0.62440 0.92350 0.56630 0.03700
C 	C 	0.41600 0.92470 0.51880 0.02700
C 	C 	0.07530 0.58260 0.52390 0.02900
C 	C 	0.88810 0.55550 0.47110 0.02000
C 	C 	0.84120 0.46120 0.53450 0.02400
C 	C 	0.05040 0.47210 0.48380 0.02500
C 	C 	0.86910 0.57090 0.57350 0.02900
C 	C 	0.03650 0.48840 0.58730 0.03000
C 	C 	0.09760 0.72670 0.74800 0.03100
C 	C 	0.25300 0.74950 0.66990 0.04300
C 	C 	0.22260 0.82840 0.74470 0.02100
C 	C 	0.29490 0.66310 0.74080 0.02300
C 	C 	0.26780 0.74500 0.81700 0.02700
C 	C 	0.42240 0.76530 0.73910 0.02000
C 	C 	0.57430 0.57640 0.37740 0.02800
C 	C 	0.51650 0.46670 0.40980 0.03900
C 	C 	0.36960 0.58170 0.32690 0.03100
C 	C 	0.37450 0.55830 0.42790 0.01700
C 	C 	0.51240 0.48970 0.30770 0.02700
C 	C 	0.31730 0.47420 0.36060 0.03300
C 	C 	0.29520 0.17200 0.65080 0.04000
C 	C 	0.41420 0.27390 0.65250 0.04000
C 	C 	0.24980 0.25020 0.72450 0.02500
C 	C 	0.21920 0.33380 0.64970 0.04200
C 	C 	0.26180 0.25260 0.57700 0.04000
C 	C 	0.09610 0.23140 0.64980 0.02700
C 	C 	0.96510 0.03770 0.41340 -0.02700
C 	C 	0.12220 0.93880 0.31850 -0.01800
C 	C 	0.12840 0.95480 0.42240 0.00900
C 	C 	0.15780 0.04850 0.35990 0.03300
C 	C 	0.96400 0.02290 0.30810 0.01700
C 	C 	0.92670 0.92790 0.37130 0.03700
C 	C 	0.54040 0.96260 0.98630 0.03400
C 	C 	0.53450 0.99070 0.08660 0.03500
C 	C 	0.33750 0.96470 0.03470 0.03800
C 	C 	0.38680 0.04990 0.96580 0.05400
C 	C 	0.37560 0.07650 0.06630 0.03700
C 	C 	0.58400 0.07530 0.01880 0.01100
C 	C 	0.92470 0.41740 0.02390 0.01200
C 	C 	0.11190 0.44450 0.97110 0.04100
C 	C 	0.15880 0.53880 0.03450 0.02500
C 	C 	0.94960 0.52790 0.98380 0.04600
C 	C 	0.13090 0.42910 0.07350 0.02900
C 	C 	0.96350 0.51160 0.08730 0.02700
C 	C 	0.90240 0.27330 0.24800 0.03200
C 	C 	0.74700 0.25050 0.16990 0.04500
C 	C 	0.77740 0.17160 0.24470 0.02200
C 	C 	0.70510 0.33690 0.24080 0.02400
C 	C 	0.73220 0.25500 0.31700 0.02900
C 	C 	0.57760 0.23470 0.23910 0.02100
C 	C 	0.42570 0.42360 0.87740 0.02700
C 	C 	0.48350 0.53330 0.90980 0.03500
C 	C 	0.63040 0.41830 0.82690 0.03000
C 	C 	0.62550 0.44170 0.92790 0.01300
C 	C 	0.48760 0.51030 0.80770 0.02700
C 	C 	0.68270 0.52580 0.86060 0.03200
C 	C 	0.70480 0.82800 0.15080 0.04200
C 	C 	0.58580 0.72610 0.15250 0.04100
C 	C 	0.75020 0.74980 0.22450 0.02600
C 	C 	0.78080 0.66620 0.14970 0.04300
C 	C 	0.73820 0.74740 0.07700 0.04400
C 	C 	0.90390 0.76860 0.14980 0.02800
C 	C 	0.03490 0.96230 0.91340 -0.02900
C 	C 	0.87780 0.06120 0.81850 -0.01900
C 	C 	0.87160 0.04520 0.92240 0.00700
C 	C 	0.84220 0.95150 0.85990 0.03100
C 	C 	0.03600 0.97710 0.80810 0.01700
C 	C 	0.07330 0.07210 0.87130 0.03600
N 	N 	0.52550 0.05100 0.54210 -0.17300
N 	N 	0.68150 0.96430 0.52080 -0.17600
N 	N 	0.47750 0.96450 0.47120 -0.16800
N 	N 	0.48490 0.93780 0.57370 -0.18300
N 	N 	0.02580 0.54340 0.47550 -0.17000
N 	N 	0.81730 0.53220 0.52550 -0.17500
N 	N 	0.98500 0.44950 0.53730 -0.17100
N 	N 	0.01260 0.55980 0.57930 -0.18200
N 	N 	0.31990 0.79900 0.70410 -0.18500
N 	N 	0.36160 0.71290 0.77690 -0.17300
N 	N 	0.19190 0.69730 0.70670 -0.18300
N 	N 	0.16280 0.77720 0.78390 -0.17700
N 	N 	0.50950 0.56300 0.31980 -0.18500
N 	N 	0.45290 0.45070 0.35460 -0.18100
N 	N 	0.51730 0.53730 0.42470 -0.17600
N 	N 	0.31020 0.54500 0.37420 -0.17300
N 	N 	0.36030 0.22240 0.61410 -0.18300
N 	N 	0.16040 0.28360 0.61200 -0.18100
N 	N 	0.19320 0.19890 0.68660 -0.18100
N 	N 	0.31330 0.30450 0.68840 -0.18500
N 	N 	0.02070 0.06110 0.35620 -0.17000
N 	N 	0.98440 0.94970 0.31610 -0.17400
N 	N 	0.18710 0.97740 0.36730 -0.16800
N 	N 	0.98490 0.96490 0.42120 -0.16700
N 	N 	0.47450 0.94900 0.04210 -0.18200
N 	N 	0.31850 0.03570 0.02080 -0.18600
N 	N 	0.52250 0.03550 0.97120 -0.16200
N 	N 	0.51510 0.06220 0.07370 -0.18300
N 	N 	0.97420 0.45660 0.97550 -0.16400
N 	N 	0.18270 0.46780 0.02550 -0.18400
N 	N 	0.01500 0.55050 0.03730 -0.18000
N 	N 	0.98740 0.44020 0.07930 -0.18200
N 	N 	0.68010 0.20100 0.20410 -0.18500
N 	N 	0.63840 0.28710 0.27690 -0.17400
N 	N 	0.80810 0.30270 0.20670 -0.18300
N 	N 	0.83720 0.22280 0.28390 -0.17700
N 	N 	0.49050 0.43700 0.81980 -0.18400
N 	N 	0.54710 0.54930 0.85460 -0.18000
N 	N 	0.48270 0.46270 0.92470 -0.17100
N 	N 	0.68980 0.45500 0.87420 -0.17200
N 	N 	0.63970 0.77760 0.11410 -0.18500
N 	N 	0.83960 0.71640 0.11200 -0.18200
N 	N 	0.80680 0.80110 0.18660 -0.18200
N 	N 	0.68670 0.69550 0.18840 -0.18500
N 	N 	0.97930 0.93890 0.85620 -0.16900
N 	N 	0.01560 0.05030 0.81610 -0.17400
N 	N 	0.81290 0.02260 0.86730 -0.16700
N 	N 	0.01510 0.03510 0.92120 -0.16200
