data_crystal

_cell_length_a 6.23800
_cell_length_b 9.41800
_cell_length_c 10.59100
_cell_angle_alpha 73.58000
_cell_angle_beta  80.52000
_cell_angle_gamma 75.01000

_symmetry_space_group_name_	'P 1'
_symmetry_space_group_name_H-M	'P 1'

loop_
_symmetry_equiv_pos_as_xyz
  x,y,z

loop_
_atom_site_label
_atom_site_type_symbol
_atom_site_fract_x
_atom_site_fract_y
_atom_site_fract_z
_atom_site_charge
Sr	Sr	0.73702 0.10530 0.35988 1.47500
Sr	Sr	0.26298 0.89470 0.64012 1.47500
H 	H 	0.17000 0.52000 0.64000 -0.01400
H 	H 	0.83000 0.86000 0.93000 -0.01600
H 	H 	0.83000 0.48000 0.36000 -0.01400
H 	H 	0.17000 0.14000 0.07000 -0.01600
C 	C 	0.30490 0.51400 0.57220 0.05500
C 	C 	0.39010 0.39100 0.51690 -0.06600
C 	C 	0.26200 0.26830 0.53840 0.32100
C 	C 	0.89870 0.92170 0.95190 0.03900
C 	C 	0.82210 0.95570 0.07250 -0.04700
C 	C 	0.61840 0.90590 0.15440 0.33400
C 	C 	0.69510 0.48600 0.42780 0.05500
C 	C 	0.60990 0.60900 0.48310 -0.06600
C 	C 	0.73800 0.73170 0.46160 0.32100
C 	C 	0.10130 0.07830 0.04810 0.03900
C 	C 	0.17790 0.04430 0.92750 -0.04700
C 	C 	0.38160 0.09410 0.84560 0.33400
N 	N 	0.58700 0.37690 0.44390 -0.20900
N 	N 	0.92310 0.03490 0.12110 -0.21400
N 	N 	0.41300 0.62310 0.55610 -0.20900
N 	N 	0.07690 0.96510 0.87890 -0.21400
O 	O 	0.34820 0.15940 0.48530 -0.59500
O 	O 	0.08000 0.28370 0.60830 -0.33700
O 	O 	0.52520 0.97390 0.24000 -0.44500
O 	O 	0.56310 0.80070 0.12690 -0.28100
O 	O 	0.65180 0.84060 0.51470 -0.59500
O 	O 	0.92000 0.71630 0.39170 -0.33700
O 	O 	0.47480 0.02610 0.76000 -0.44500
O 	O 	0.43690 0.19930 0.87310 -0.28100
