data_crystal

_cell_length_a 10.13700
_cell_length_b 15.74500
_cell_length_c 15.98800
_cell_angle_alpha 90.00000
_cell_angle_beta  90.00000
_cell_angle_gamma 107.76000

_symmetry_space_group_name_	'P 1'
_symmetry_space_group_name_H-M	'P 1'

loop_
_symmetry_equiv_pos_as_xyz
  x,y,z

loop_
_atom_site_label
_atom_site_type_symbol
_atom_site_fract_x
_atom_site_fract_y
_atom_site_fract_z
_atom_site_charge
Ti	Ti	0.61780 0.59240 0.03808 3.07000
Ti	Ti	0.88220 0.90760 0.53808 3.06900
Ti	Ti	0.38220 0.40760 0.96192 3.07000
Ti	Ti	0.11780 0.09240 0.46192 3.06900
H 	H 	0.70300 0.35880 0.98650 0.11400
H 	H 	0.81020 0.27440 0.06550 -0.03000
H 	H 	0.80740 0.15360 0.14160 -0.02300
H 	H 	0.91430 0.06940 0.22090 0.15000
H 	H 	0.96760 0.24540 0.40920 0.15900
H 	H 	0.86080 0.32930 0.33060 -0.03100
H 	H 	0.66280 0.34980 0.27820 -0.02300
H 	H 	0.54940 0.43180 0.19840 0.11100
H 	H 	0.81700 0.78290 0.12080 0.07200
H 	H 	0.97980 0.92110 0.12020 -0.03000
H 	H 	0.85140 0.96680 0.89360 -0.03100
H 	H 	0.69920 0.82910 0.88900 0.13600
H 	H 	0.79700 0.14120 0.48650 0.11200
H 	H 	0.68980 0.22560 0.56550 -0.03200
H 	H 	0.69260 0.34640 0.64160 -0.02200
H 	H 	0.58570 0.43060 0.72090 0.14600
H 	H 	0.53240 0.25460 0.90920 0.15600
H 	H 	0.63920 0.17070 0.83060 -0.03000
H 	H 	0.83720 0.15020 0.77820 -0.02200
H 	H 	0.95060 0.06820 0.69840 0.11400
H 	H 	0.68300 0.71710 0.62080 0.07200
H 	H 	0.52020 0.57890 0.62020 -0.02800
H 	H 	0.64860 0.53320 0.39360 -0.02900
H 	H 	0.80080 0.67090 0.38900 0.13600
H 	H 	0.29700 0.64120 0.01350 0.11300
H 	H 	0.18980 0.72560 0.93450 -0.03100
H 	H 	0.19260 0.84640 0.85840 -0.02300
H 	H 	0.08570 0.93060 0.77910 0.15000
H 	H 	0.03240 0.75460 0.59080 0.15900
H 	H 	0.13920 0.67070 0.66940 -0.03100
H 	H 	0.33720 0.65020 0.72180 -0.02300
H 	H 	0.45060 0.56820 0.80160 0.11100
H 	H 	0.18300 0.21710 0.87920 0.07200
H 	H 	0.02020 0.07890 0.87980 -0.03000
H 	H 	0.14860 0.03320 0.10640 -0.03100
H 	H 	0.30080 0.17090 0.11100 0.13600
H 	H 	0.20300 0.85880 0.51350 0.11200
H 	H 	0.31020 0.77440 0.43450 -0.03200
H 	H 	0.30740 0.65360 0.35840 -0.02200
H 	H 	0.41430 0.56940 0.27910 0.14600
H 	H 	0.46760 0.74540 0.09080 0.15600
H 	H 	0.36080 0.82930 0.16940 -0.03000
H 	H 	0.16280 0.84980 0.22180 -0.02200
H 	H 	0.04940 0.93180 0.30160 0.11400
H 	H 	0.31700 0.28290 0.37920 0.07200
H 	H 	0.47980 0.42110 0.37980 -0.02800
H 	H 	0.35140 0.46680 0.60640 -0.02900
H 	H 	0.19920 0.32910 0.61100 0.13600
C 	C 	0.61780 0.40540 0.08620 0.37900
C 	C 	0.69450 0.35720 0.04560 -0.37000
C 	C 	0.75800 0.30660 0.09300 0.09900
C 	C 	0.74640 0.30180 0.18020 -0.08300
C 	C 	0.81610 0.24800 0.22860 -0.11400
C 	C 	0.83740 0.17220 0.19680 0.12600
C 	C 	0.90300 0.12220 0.24400 -0.38500
C 	C 	0.95140 0.14760 0.32260 0.46700
C 	C 	0.93430 0.22600 0.35480 -0.41400
C 	C 	0.86950 0.27550 0.30820 0.14300
C 	C 	0.67040 0.35040 0.21890 0.10000
C 	C 	0.60420 0.40070 0.17100 -0.39200
C 	C 	0.73630 0.78530 0.00400 0.43900
C 	C 	0.82580 0.81880 0.07220 -0.38300
C 	C 	0.92520 0.90150 0.07170 0.12200
C 	C 	0.94720 0.95700 0.00120 -0.09400
C 	C 	0.85110 0.92740 0.93860 0.13200
C 	C 	0.75580 0.84600 0.93700 -0.35600
C 	C 	0.88220 0.09460 0.58620 0.38000
C 	C 	0.80550 0.14280 0.54560 -0.37000
C 	C 	0.74200 0.19340 0.59300 0.09900
C 	C 	0.75360 0.19820 0.68020 -0.08500
C 	C 	0.68390 0.25200 0.72860 -0.11000
C 	C 	0.66260 0.32780 0.69680 0.12100
C 	C 	0.59700 0.37780 0.74400 -0.37800
C 	C 	0.54860 0.35240 0.82260 0.45700
C 	C 	0.56570 0.27400 0.85480 -0.40800
C 	C 	0.63050 0.22450 0.80820 0.13900
C 	C 	0.82960 0.14960 0.71890 0.10100
C 	C 	0.89580 0.09930 0.67100 -0.39200
C 	C 	0.76370 0.71470 0.50400 0.43900
C 	C 	0.67420 0.68120 0.57220 -0.38200
C 	C 	0.57480 0.59850 0.57170 0.12100
C 	C 	0.55280 0.54300 0.50120 -0.09000
C 	C 	0.64890 0.57260 0.43860 0.12900
C 	C 	0.74420 0.65400 0.43700 -0.35600
C 	C 	0.38220 0.59460 0.91380 0.37900
C 	C 	0.30550 0.64280 0.95440 -0.37000
C 	C 	0.24200 0.69340 0.90700 0.09900
C 	C 	0.25360 0.69820 0.81980 -0.08300
C 	C 	0.18390 0.75200 0.77140 -0.11400
C 	C 	0.16260 0.82780 0.80320 0.12600
C 	C 	0.09700 0.87780 0.75600 -0.38500
C 	C 	0.04860 0.85240 0.67740 0.46700
C 	C 	0.06570 0.77400 0.64520 -0.41400
C 	C 	0.13050 0.72450 0.69180 0.14300
C 	C 	0.32960 0.64960 0.78110 0.10000
C 	C 	0.39580 0.59930 0.82900 -0.39200
C 	C 	0.26370 0.21470 0.99600 0.43900
C 	C 	0.17420 0.18120 0.92780 -0.38300
C 	C 	0.07480 0.09850 0.92830 0.12200
C 	C 	0.05280 0.04300 0.99880 -0.09400
C 	C 	0.14890 0.07260 0.06140 0.13200
C 	C 	0.24420 0.15400 0.06300 -0.35600
C 	C 	0.11780 0.90540 0.41380 0.38000
C 	C 	0.19450 0.85720 0.45440 -0.37000
C 	C 	0.25800 0.80660 0.40700 0.09900
C 	C 	0.24640 0.80180 0.31980 -0.08500
C 	C 	0.31610 0.74800 0.27140 -0.11000
C 	C 	0.33740 0.67220 0.30320 0.12100
C 	C 	0.40300 0.62220 0.25600 -0.37800
C 	C 	0.45140 0.64760 0.17740 0.45700
C 	C 	0.43430 0.72600 0.14520 -0.40800
C 	C 	0.36950 0.77550 0.19180 0.13900
C 	C 	0.17040 0.85040 0.28110 0.10100
C 	C 	0.10420 0.90070 0.32900 -0.39200
C 	C 	0.23630 0.28530 0.49600 0.43900
C 	C 	0.32580 0.31880 0.42780 -0.38200
C 	C 	0.42520 0.40150 0.42830 0.12100
C 	C 	0.44720 0.45700 0.49880 -0.09000
C 	C 	0.35110 0.42740 0.56140 0.12900
C 	C 	0.25580 0.34600 0.56300 -0.35600
O 	O 	0.55540 0.45540 0.03940 -1.16100
O 	O 	0.00520 0.09390 0.36910 -0.93400
O 	O 	0.64260 0.70710 0.00300 -0.96700
O 	O 	0.94460 0.04460 0.53940 -1.15800
O 	O 	0.49480 0.40610 0.86910 -0.92600
O 	O 	0.85740 0.79290 0.50300 -0.97000
O 	O 	0.44460 0.54460 0.96060 -1.16100
O 	O 	0.99480 0.90610 0.63090 -0.93400
O 	O 	0.35740 0.29290 0.99700 -0.96700
O 	O 	0.05540 0.95540 0.46060 -1.15800
O 	O 	0.50520 0.59390 0.13090 -0.92600
O 	O 	0.14260 0.20710 0.49700 -0.97000
