data_crystal

_cell_length_a 17.32700
_cell_length_b 17.32700
_cell_length_c 7.72880
_cell_angle_alpha 90.00000
_cell_angle_beta  90.00000
_cell_angle_gamma 90.00000

_symmetry_space_group_name_	'P 1'
_symmetry_space_group_name_H-M	'P 1'

loop_
_symmetry_equiv_pos_as_xyz
  x,y,z

loop_
_atom_site_label
_atom_site_type_symbol
_atom_site_fract_x
_atom_site_fract_y
_atom_site_fract_z
_atom_site_charge
N 	N 	0.00159 0.34230 0.96240 -0.29400
C 	C 	0.99460 0.45290 0.70290 0.25600
N 	N 	0.98823 0.51111 0.57260 -0.09300
C 	C 	0.94250 0.45400 0.83720 -0.25500
H 	H 	0.90410 0.49300 0.84380 0.12100
C 	C 	0.94710 0.39730 0.96190 0.18800
H 	H 	0.90980 0.39710 0.05200 -0.04200
C 	C 	0.05350 0.34410 0.83490 0.13500
H 	H 	0.09320 0.30640 0.83520 -0.03300
C 	C 	0.05280 0.39760 0.70310 -0.28900
H 	H 	0.09100 0.39670 0.61490 0.13000
N 	N 	0.50159 0.84230 0.46240 -0.24900
C 	C 	0.49460 0.95290 0.20290 0.15900
N 	N 	0.48823 0.01111 0.07260 -0.10500
C 	C 	0.44250 0.95400 0.33720 -0.19200
H 	H 	0.40410 0.99300 0.34380 0.09500
C 	C 	0.44710 0.89730 0.46190 0.10100
H 	H 	0.40980 0.89710 0.55200 -0.02100
C 	C 	0.55350 0.84410 0.33490 0.09700
H 	H 	0.59320 0.80640 0.33520 -0.01700
C 	C 	0.55280 0.89760 0.20310 -0.18500
H 	H 	0.59100 0.89670 0.11490 0.10100
N 	N 	0.49841 0.65770 0.46240 -0.25000
C 	C 	0.50540 0.54710 0.20290 0.16100
N 	N 	0.51177 0.48889 0.07260 -0.10700
C 	C 	0.55750 0.54600 0.33720 -0.19200
H 	H 	0.59590 0.50700 0.34380 0.09600
C 	C 	0.55290 0.60270 0.46190 0.10200
H 	H 	0.59020 0.60290 0.55200 -0.02100
C 	C 	0.44650 0.65590 0.33490 0.09700
H 	H 	0.40680 0.69360 0.33520 -0.01700
C 	C 	0.44720 0.60240 0.20310 -0.18600
H 	H 	0.40900 0.60330 0.11490 0.10200
N 	N 	0.99841 0.15770 0.96240 -0.19800
C 	C 	0.00540 0.04710 0.70290 0.06800
N 	N 	0.01177 0.98889 0.57260 -0.12000
C 	C 	0.05750 0.04600 0.83720 -0.12900
H 	H 	0.09590 0.00700 0.84380 0.07200
C 	C 	0.05290 0.10270 0.96190 0.01700
H 	H 	0.09020 0.10290 0.05200 0.00000
C 	C 	0.94650 0.15590 0.83490 0.06000
H 	H 	0.90680 0.19360 0.83520 0.00100
C 	C 	0.94720 0.10240 0.70310 -0.08100
H 	H 	0.90900 0.10330 0.61490 0.07400
N 	N 	0.40770 0.25159 0.21240 -0.24900
C 	C 	0.29710 0.24460 0.95290 0.16100
N 	N 	0.23889 0.23823 0.82260 -0.10700
C 	C 	0.29600 0.19250 0.08720 -0.19300
H 	H 	0.25700 0.15410 0.09380 0.09500
C 	C 	0.35270 0.19710 0.21190 0.10200
H 	H 	0.35290 0.15980 0.30200 -0.02100
C 	C 	0.40590 0.30350 0.08490 0.09700
H 	H 	0.44360 0.34320 0.08520 -0.01700
C 	C 	0.35240 0.30280 0.95310 -0.18500
H 	H 	0.35330 0.34100 0.86490 0.10100
N 	N 	0.90770 0.75159 0.71240 -0.23900
C 	C 	0.79710 0.74460 0.45290 0.16000
N 	N 	0.73889 0.73823 0.32260 -0.10700
C 	C 	0.79600 0.69250 0.58720 -0.19000
H 	H 	0.75700 0.65410 0.59380 0.09600
C 	C 	0.85270 0.69710 0.71190 0.10400
H 	H 	0.85290 0.65980 0.80200 -0.01800
C 	C 	0.90590 0.80350 0.58490 0.09900
H 	H 	0.94360 0.84320 0.58520 -0.00300
C 	C 	0.85240 0.80280 0.45310 -0.18200
H 	H 	0.85330 0.84100 0.36490 0.10300
N 	N 	0.09230 0.74841 0.71240 -0.25500
C 	C 	0.20290 0.75540 0.45290 0.16100
N 	N 	0.26111 0.76177 0.32260 -0.10700
C 	C 	0.20400 0.80750 0.58720 -0.19400
H 	H 	0.24300 0.84590 0.59380 0.09600
C 	C 	0.14730 0.80290 0.71190 0.10000
H 	H 	0.14710 0.84020 0.80200 -0.02300
C 	C 	0.09410 0.69650 0.58490 0.09500
H 	H 	0.05640 0.65680 0.58520 -0.02900
C 	C 	0.14760 0.69720 0.45310 -0.18900
H 	H 	0.14670 0.65900 0.36490 0.10100
N 	N 	0.59230 0.24841 0.21240 -0.25000
C 	C 	0.70290 0.25540 0.95290 0.16200
N 	N 	0.76111 0.26177 0.82260 -0.10600
C 	C 	0.70400 0.30750 0.08720 -0.19400
H 	H 	0.74300 0.34590 0.09380 0.09800
C 	C 	0.64730 0.30290 0.21190 0.10200
H 	H 	0.64710 0.34020 0.30200 -0.02100
C 	C 	0.59410 0.19650 0.08490 0.09700
H 	H 	0.55640 0.15680 0.08520 -0.01600
C 	C 	0.64760 0.19720 0.95310 -0.18500
H 	H 	0.64670 0.15900 0.86490 0.10200
N 	N 	0.99841 0.65770 0.03760 -0.19900
C 	C 	0.00540 0.54710 0.29710 0.06900
N 	N 	0.01177 0.48889 0.42740 -0.12000
C 	C 	0.05750 0.54600 0.16280 -0.13000
H 	H 	0.09590 0.50700 0.15620 0.07200
C 	C 	0.05290 0.60270 0.03810 0.01800
H 	H 	0.09020 0.60290 0.94800 -0.00000
C 	C 	0.94650 0.65590 0.16510 0.06000
H 	H 	0.90680 0.69360 0.16480 0.00100
C 	C 	0.94720 0.60240 0.29690 -0.08300
H 	H 	0.90900 0.60330 0.38510 0.07400
N 	N 	0.49841 0.15770 0.53760 -0.25000
C 	C 	0.50540 0.04710 0.79710 0.16400
N 	N 	0.51177 0.98889 0.92740 -0.10900
C 	C 	0.55750 0.04600 0.66280 -0.19400
H 	H 	0.59590 0.00700 0.65620 0.09800
C 	C 	0.55290 0.10270 0.53810 0.10300
H 	H 	0.59020 0.10290 0.44800 -0.02100
C 	C 	0.44650 0.15590 0.66510 0.09800
H 	H 	0.40680 0.19360 0.66480 -0.01700
C 	C 	0.44720 0.10240 0.79690 -0.18700
H 	H 	0.40900 0.10330 0.88510 0.10300
N 	N 	0.50159 0.34230 0.53760 -0.25000
C 	C 	0.49460 0.45290 0.79710 0.16100
N 	N 	0.48823 0.51111 0.92740 -0.10700
C 	C 	0.44250 0.45400 0.66280 -0.19200
H 	H 	0.40410 0.49300 0.65620 0.09600
C 	C 	0.44710 0.39730 0.53810 0.10200
H 	H 	0.40980 0.39710 0.44800 -0.02100
C 	C 	0.55350 0.34410 0.66510 0.09800
H 	H 	0.59320 0.30640 0.66480 -0.01700
C 	C 	0.55280 0.39760 0.79690 -0.18500
H 	H 	0.59100 0.39670 0.88510 0.10200
N 	N 	0.00159 0.84230 0.03760 -0.29300
C 	C 	0.99460 0.95290 0.29710 0.24700
N 	N 	0.98823 0.01111 0.42740 -0.09100
C 	C 	0.94250 0.95400 0.16280 -0.25200
H 	H 	0.90410 0.99300 0.15620 0.11900
C 	C 	0.94710 0.89730 0.03810 0.18500
H 	H 	0.90980 0.89710 0.94800 -0.04100
C 	C 	0.05350 0.84410 0.16510 0.13300
H 	H 	0.09320 0.80640 0.16480 -0.03200
C 	C 	0.05280 0.89760 0.29690 -0.28300
H 	H 	0.09100 0.89670 0.38510 0.12800
N 	N 	0.59230 0.74841 0.78760 -0.25000
C 	C 	0.70290 0.75540 0.04710 0.16200
N 	N 	0.76111 0.76177 0.17740 -0.10600
C 	C 	0.70400 0.80750 0.91280 -0.19400
H 	H 	0.74300 0.84590 0.90620 0.09700
C 	C 	0.64730 0.80290 0.78810 0.10200
H 	H 	0.64710 0.84020 0.69800 -0.02100
C 	C 	0.59410 0.69650 0.91510 0.09700
H 	H 	0.55640 0.65680 0.91480 -0.01700
C 	C 	0.64760 0.69720 0.04690 -0.18500
H 	H 	0.64670 0.65900 0.13510 0.10200
N 	N 	0.09230 0.24841 0.28760 -0.25500
C 	C 	0.20290 0.25540 0.54710 0.16100
N 	N 	0.26111 0.26177 0.67740 -0.10700
C 	C 	0.20400 0.30750 0.41280 -0.19400
H 	H 	0.24300 0.34590 0.40620 0.09600
C 	C 	0.14730 0.30290 0.28810 0.10000
H 	H 	0.14710 0.34020 0.19800 -0.02200
C 	C 	0.09410 0.19650 0.41510 0.09500
H 	H 	0.05640 0.15680 0.41480 -0.02900
C 	C 	0.14760 0.19720 0.54690 -0.18900
H 	H 	0.14670 0.15900 0.63510 0.10100
N 	N 	0.90770 0.25159 0.28760 -0.23800
C 	C 	0.79710 0.24460 0.54710 0.16000
N 	N 	0.73889 0.23823 0.67740 -0.10700
C 	C 	0.79600 0.19250 0.41280 -0.19000
H 	H 	0.75700 0.15410 0.40620 0.09600
C 	C 	0.85270 0.19710 0.28810 0.10400
H 	H 	0.85290 0.15980 0.19800 -0.01800
C 	C 	0.90590 0.30350 0.41510 0.09900
H 	H 	0.94360 0.34320 0.41480 -0.00300
C 	C 	0.85240 0.30280 0.54690 -0.18100
H 	H 	0.85330 0.34100 0.63510 0.10300
N 	N 	0.40770 0.75159 0.78760 -0.24900
C 	C 	0.29710 0.74460 0.04710 0.16100
N 	N 	0.23889 0.73823 0.17740 -0.10700
C 	C 	0.29600 0.69250 0.91280 -0.19300
H 	H 	0.25700 0.65410 0.90620 0.09500
C 	C 	0.35270 0.69710 0.78810 0.10200
H 	H 	0.35290 0.65980 0.69800 -0.02100
C 	C 	0.40590 0.80350 0.91510 0.09600
H 	H 	0.44360 0.84320 0.91480 -0.01700
C 	C 	0.35240 0.80280 0.04690 -0.18400
H 	H 	0.35330 0.84100 0.13510 0.10100
Cu	Cu	0.00000 0.25000 0.12500 0.83500
Cu	Cu	0.50000 0.75000 0.62500 0.85500
Cu	Cu	0.50000 0.25000 0.37500 0.85500
Cu	Cu	0.00000 0.75000 0.87500 0.83600
