data_crystal

_cell_length_a 17.76500
_cell_length_b 17.76500
_cell_length_c 7.56700
_cell_angle_alpha 90.00000
_cell_angle_beta  90.00000
_cell_angle_gamma 90.00000

_symmetry_space_group_name_	'P 1'
_symmetry_space_group_name_H-M	'P 1'

loop_
_symmetry_equiv_pos_as_xyz
  x,y,z

loop_
_atom_site_label
_atom_site_type_symbol
_atom_site_fract_x
_atom_site_fract_y
_atom_site_fract_z
_atom_site_charge
N 	N 	0.50030 0.09220 0.58620 -0.25700
C 	C 	0.55140 0.14680 0.58790 0.11400
H 	H 	0.58690 0.14700 0.67820 -0.02600
C 	C 	0.55470 0.20370 0.46170 -0.21300
H 	H 	0.58980 0.24240 0.47030 0.10600
C 	C 	0.50430 0.20090 0.32390 0.17500
C 	C 	0.45020 0.14550 0.32410 -0.21300
H 	H 	0.41580 0.14240 0.23180 0.10700
C 	C 	0.44720 0.09470 0.46150 0.10800
H 	H 	0.40700 0.06130 0.46770 -0.03500
N 	N 	0.51260 0.26080 0.19630 -0.11000
N 	N 	0.49010 0.24000 0.04790 -0.12300
C 	C 	0.54960 0.40800 0.79770 0.14100
H 	H 	0.58240 0.44830 0.81310 -0.02900
C 	C 	0.55350 0.34930 0.91400 -0.24000
H 	H 	0.59380 0.34460 0.99170 0.13000
C 	C 	0.49630 0.29790 0.91280 0.21200
C 	C 	0.44310 0.30100 0.78210 -0.23900
H 	H 	0.40460 0.26560 0.77670 0.11800
C 	C 	0.44820 0.35740 0.65960 0.13500
H 	H 	0.41290 0.35910 0.56890 -0.03400
N 	N 	0.50180 0.41030 0.66500 -0.26500
N 	N 	0.00030 0.59220 0.08620 -0.28100
C 	C 	0.05140 0.64680 0.08790 0.05400
H 	H 	0.08690 0.64700 0.17820 -0.01300
C 	C 	0.05470 0.70370 0.96170 -0.14900
H 	H 	0.08980 0.74240 0.97030 0.08800
C 	C 	0.00430 0.70090 0.82390 0.10300
C 	C 	0.95020 0.64550 0.82410 -0.14400
H 	H 	0.91580 0.64240 0.73180 0.09700
C 	C 	0.94720 0.59470 0.96150 0.15000
H 	H 	0.90700 0.56130 0.96770 -0.02700
N 	N 	0.01260 0.76080 0.69630 -0.12000
N 	N 	0.99010 0.74000 0.54790 -0.09800
C 	C 	0.04960 0.90800 0.29770 0.18100
H 	H 	0.08240 0.94830 0.31310 -0.03800
C 	C 	0.05350 0.84930 0.41400 -0.34400
H 	H 	0.09380 0.84460 0.49170 0.15400
C 	C 	0.99630 0.79790 0.41280 0.29100
C 	C 	0.94310 0.80100 0.28210 -0.30400
H 	H 	0.90460 0.76560 0.27670 0.14100
C 	C 	0.94820 0.85740 0.15960 0.22000
H 	H 	0.91290 0.85910 0.06890 -0.05800
N 	N 	0.00180 0.91030 0.16500 -0.30300
N 	N 	0.49970 0.90780 0.58620 -0.24200
C 	C 	0.44860 0.85320 0.58790 0.11800
H 	H 	0.41310 0.85300 0.67820 -0.02000
C 	C 	0.44530 0.79630 0.46170 -0.21000
H 	H 	0.41020 0.75760 0.47030 0.10600
C 	C 	0.49570 0.79910 0.32390 0.17400
C 	C 	0.54980 0.85450 0.32410 -0.20500
H 	H 	0.58420 0.85760 0.23180 0.11000
C 	C 	0.55280 0.90530 0.46150 0.11100
H 	H 	0.59300 0.93870 0.46770 -0.01300
N 	N 	0.48740 0.73920 0.19630 -0.11000
N 	N 	0.50990 0.76000 0.04790 -0.12200
C 	C 	0.45040 0.59200 0.79770 0.14100
H 	H 	0.41760 0.55170 0.81310 -0.02900
C 	C 	0.44650 0.65070 0.91400 -0.24000
H 	H 	0.40620 0.65540 0.99170 0.13000
C 	C 	0.50370 0.70210 0.91280 0.21200
C 	C 	0.55690 0.69900 0.78210 -0.24000
H 	H 	0.59540 0.73440 0.77670 0.12000
C 	C 	0.55180 0.64260 0.65960 0.13500
H 	H 	0.58710 0.64090 0.56890 -0.03400
N 	N 	0.49820 0.58970 0.66500 -0.26500
N 	N 	0.99970 0.40780 0.08620 -0.23300
C 	C 	0.94860 0.35320 0.08790 0.10800
H 	H 	0.91310 0.35300 0.17820 -0.02100
C 	C 	0.94530 0.29630 0.96170 -0.20400
H 	H 	0.91020 0.25760 0.97030 0.11300
C 	C 	0.99570 0.29910 0.82390 0.23800
C 	C 	0.04980 0.35450 0.82410 -0.27800
H 	H 	0.08420 0.35760 0.73180 0.12900
C 	C 	0.05280 0.40530 0.96150 0.10900
H 	H 	0.09300 0.43870 0.96770 -0.02300
N 	N 	0.98740 0.23920 0.69630 -0.08800
N 	N 	0.00990 0.26000 0.54790 -0.12200
C 	C 	0.95040 0.09200 0.29770 0.07800
H 	H 	0.91760 0.05170 0.31310 -0.01900
C 	C 	0.94650 0.15070 0.41400 -0.10800
H 	H 	0.90620 0.15540 0.49170 0.08200
C 	C 	0.00370 0.20210 0.41280 0.08000
C 	C 	0.05690 0.19900 0.28210 -0.15000
H 	H 	0.09540 0.23440 0.27670 0.07700
C 	C 	0.05180 0.14260 0.15960 0.02300
H 	H 	0.08710 0.14090 0.06890 -0.01200
N 	N 	0.99820 0.08970 0.16500 -0.21200
N 	N 	0.09220 0.49970 0.41380 -0.26000
C 	C 	0.14680 0.44860 0.41210 0.11600
H 	H 	0.14700 0.41310 0.32180 -0.03200
C 	C 	0.20370 0.44530 0.53830 -0.21600
H 	H 	0.24240 0.41020 0.52970 0.10800
C 	C 	0.20090 0.49570 0.67610 0.18000
C 	C 	0.14550 0.54980 0.67590 -0.21700
H 	H 	0.14240 0.58420 0.76820 0.11400
C 	C 	0.09470 0.55280 0.53850 0.11000
H 	H 	0.06130 0.59300 0.53230 -0.03600
N 	N 	0.26080 0.48740 0.80370 -0.10500
N 	N 	0.24000 0.50990 0.95210 -0.09700
C 	C 	0.40800 0.45040 0.20230 0.12300
H 	H 	0.44830 0.41760 0.18690 -0.03100
C 	C 	0.34930 0.44650 0.08600 -0.21800
H 	H 	0.34460 0.40620 0.00830 0.10700
C 	C 	0.29790 0.50370 0.08720 0.16400
C 	C 	0.30100 0.55690 0.21790 -0.21600
H 	H 	0.26560 0.59540 0.22330 0.10200
C 	C 	0.35740 0.55180 0.34040 0.11700
H 	H 	0.35910 0.58710 0.43110 -0.02900
N 	N 	0.41030 0.49820 0.33500 -0.25900
N 	N 	0.59220 0.99970 0.91380 -0.22200
C 	C 	0.64680 0.94860 0.91210 0.17600
H 	H 	0.64700 0.91310 0.82180 -0.03700
C 	C 	0.70370 0.94530 0.03830 -0.27300
H 	H 	0.74240 0.91020 0.02970 0.12800
C 	C 	0.70090 0.99570 0.17610 0.25300
C 	C 	0.64550 0.04980 0.17590 -0.28100
H 	H 	0.64240 0.08420 0.26820 0.12800
C 	C 	0.59470 0.05280 0.03850 0.07200
H 	H 	0.56130 0.09300 0.03230 -0.02200
N 	N 	0.76080 0.98740 0.30370 -0.09300
N 	N 	0.74000 0.00990 0.45210 -0.12200
C 	C 	0.90800 0.95040 0.70230 0.08400
H 	H 	0.94830 0.91760 0.68690 0.00900
C 	C 	0.84930 0.94650 0.58600 -0.10500
H 	H 	0.84460 0.90620 0.50830 0.08500
C 	C 	0.79790 0.00370 0.58720 0.08500
C 	C 	0.80100 0.05690 0.71790 -0.14700
H 	H 	0.76560 0.09540 0.72330 0.08200
C 	C 	0.85740 0.05180 0.84040 0.03600
H 	H 	0.85910 0.08710 0.93110 0.00300
N 	N 	0.91030 0.99820 0.83500 -0.19200
N 	N 	0.90780 0.50030 0.41380 -0.24400
C 	C 	0.85320 0.55140 0.41210 0.11900
H 	H 	0.85300 0.58690 0.32180 -0.02500
C 	C 	0.79630 0.55470 0.53830 -0.21300
H 	H 	0.75760 0.58980 0.52970 0.10800
C 	C 	0.79910 0.50430 0.67610 0.17900
C 	C 	0.85450 0.45020 0.67590 -0.20800
H 	H 	0.85760 0.41580 0.76820 0.11600
C 	C 	0.90530 0.44720 0.53850 0.11300
H 	H 	0.93870 0.40700 0.53230 -0.01400
N 	N 	0.73920 0.51260 0.80370 -0.10500
N 	N 	0.76000 0.49010 0.95210 -0.09700
C 	C 	0.59200 0.54960 0.20230 0.12400
H 	H 	0.55170 0.58240 0.18690 -0.03100
C 	C 	0.65070 0.55350 0.08600 -0.21900
H 	H 	0.65540 0.59380 0.00830 0.10900
C 	C 	0.70210 0.49630 0.08720 0.16700
C 	C 	0.69900 0.44310 0.21790 -0.21800
H 	H 	0.73440 0.40460 0.22330 0.10400
C 	C 	0.64260 0.44820 0.34040 0.11800
H 	H 	0.64090 0.41290 0.43110 -0.02900
N 	N 	0.58970 0.50180 0.33500 -0.26000
N 	N 	0.40780 0.00030 0.91380 -0.26900
C 	C 	0.35320 0.05140 0.91210 0.12800
H 	H 	0.35300 0.08690 0.82180 -0.03200
C 	C 	0.29630 0.05470 0.03830 -0.22300
H 	H 	0.25760 0.08980 0.02970 0.09900
C 	C 	0.29910 0.00430 0.17610 0.11400
C 	C 	0.35450 0.95020 0.17590 -0.14100
H 	H 	0.35760 0.91580 0.26820 0.09400
C 	C 	0.40530 0.94720 0.03850 0.11200
H 	H 	0.43870 0.90700 0.03230 -0.02500
N 	N 	0.23920 0.01260 0.30370 -0.12700
N 	N 	0.26000 0.99010 0.45210 -0.09800
C 	C 	0.09200 0.04960 0.70230 0.18600
H 	H 	0.05170 0.08240 0.68690 -0.06400
C 	C 	0.15070 0.05350 0.58600 -0.35600
H 	H 	0.15540 0.09380 0.50830 0.15500
C 	C 	0.20210 0.99630 0.58720 0.29900
C 	C 	0.19900 0.94310 0.71790 -0.30900
H 	H 	0.23440 0.90460 0.72330 0.14500
C 	C 	0.14260 0.94820 0.84040 0.22500
H 	H 	0.14090 0.91290 0.93110 -0.05300
N 	N 	0.08970 0.00180 0.83500 -0.31300
Cu	Cu	0.50000 0.00000 0.75000 0.83500
Cu	Cu	0.00000 0.50000 0.25000 0.83000
Cu	Cu	0.50000 0.50000 0.50000 0.85700
Cu	Cu	-0.00000 0.00000 -0.00000 0.80900
