data_crystal

_cell_length_a 13.35600
_cell_length_b 19.44130
_cell_length_c 19.44130
_cell_angle_alpha 102.15800
_cell_angle_beta  93.84740
_cell_angle_gamma 93.84740

_symmetry_space_group_name_	'P 1'
_symmetry_space_group_name_H-M	'P 1'

loop_
_symmetry_equiv_pos_as_xyz
  x,y,z

loop_
_atom_site_label
_atom_site_type_symbol
_atom_site_fract_x
_atom_site_fract_y
_atom_site_fract_z
_atom_site_charge
Gd	Gd	0.35247 0.98479 0.46126 1.51200
Gd	Gd	0.14753 0.53874 0.01521 1.50400
Gd	Gd	0.64753 0.01521 0.53874 1.51200
Gd	Gd	0.85247 0.46126 0.98479 1.50400
H 	H 	0.29590 0.83070 0.59810 0.09000
H 	H 	0.57010 0.88360 0.69640 0.09300
H 	H 	0.34020 0.57340 0.81180 0.13000
H 	H 	0.28470 0.74950 0.94370 0.12600
H 	H 	0.32230 0.14660 0.56980 0.08000
H 	H 	0.50640 0.16330 0.74310 0.10200
H 	H 	0.20410 0.40190 0.16930 0.08900
H 	H 	0.92990 0.30360 0.11640 0.09000
H 	H 	0.15980 0.18820 0.42660 0.13000
H 	H 	0.21530 0.05630 0.25050 0.12600
H 	H 	0.17770 0.43020 0.85340 0.07900
H 	H 	0.99360 0.25690 0.83670 0.09500
H 	H 	0.70410 0.16930 0.40190 0.09000
H 	H 	0.42990 0.11640 0.30360 0.09300
H 	H 	0.65980 0.42660 0.18820 0.13000
H 	H 	0.71530 0.25050 0.05630 0.12600
H 	H 	0.67770 0.85340 0.43020 0.08000
H 	H 	0.49360 0.83670 0.25690 0.10200
H 	H 	0.79590 0.59810 0.83070 0.08900
H 	H 	0.07010 0.69640 0.88360 0.09000
H 	H 	0.84020 0.81180 0.57340 0.13000
H 	H 	0.78470 0.94370 0.74950 0.12600
H 	H 	0.82230 0.56980 0.14660 0.07900
H 	H 	0.00640 0.74310 0.16330 0.09500
C 	C 	0.45810 0.90880 0.58520 0.40700
C 	C 	0.43750 0.86190 0.63670 -0.04000
C 	C 	0.34440 0.82640 0.63320 -0.06100
C 	C 	0.32040 0.78550 0.67890 0.10000
C 	C 	0.38860 0.77680 0.73280 0.01100
C 	C 	0.48040 0.81460 0.73720 0.09600
C 	C 	0.50740 0.85830 0.69070 -0.05000
C 	C 	0.36480 0.73350 0.78710 -0.02100
C 	C 	0.36780 0.66090 0.77570 0.13400
C 	C 	0.33750 0.62210 0.82210 -0.12400
C 	C 	0.30300 0.65550 0.88410 0.04500
C 	C 	0.30380 0.72660 0.90020 -0.11800
C 	C 	0.33320 0.76560 0.85180 0.13400
C 	C 	0.26260 0.61200 0.93440 0.28100
C 	C 	0.49540 0.09890 0.60850 0.39100
C 	C 	0.42050 0.14180 0.65060 -0.04100
C 	C 	0.33570 0.16080 0.61860 -0.06400
C 	C 	0.26940 0.20130 0.65830 0.09500
C 	C 	0.28480 0.22310 0.73070 -0.00100
C 	C 	0.37600 0.20790 0.76230 0.10400
C 	C 	0.44420 0.16980 0.72200 -0.06500
C 	C 	0.04190 0.41480 0.09120 0.40300
C 	C 	0.06250 0.36330 0.13810 -0.04600
C 	C 	0.15560 0.36680 0.17360 -0.05800
C 	C 	0.17960 0.32110 0.21450 0.09800
C 	C 	0.11140 0.26720 0.22320 0.01400
C 	C 	0.01960 0.26280 0.18540 0.08800
C 	C 	0.99260 0.30930 0.14170 -0.03900
C 	C 	0.13520 0.21290 0.26650 -0.02200
C 	C 	0.13220 0.22430 0.33910 0.13400
C 	C 	0.16250 0.17790 0.37790 -0.12400
C 	C 	0.19700 0.11590 0.34450 0.04500
C 	C 	0.19620 0.09980 0.27340 -0.11800
C 	C 	0.16680 0.14820 0.23440 0.13400
C 	C 	0.23740 0.06560 0.38800 0.28200
C 	C 	0.00460 0.39150 0.90110 0.39900
C 	C 	0.07950 0.34940 0.85820 -0.04800
C 	C 	0.16430 0.38140 0.83920 -0.06000
C 	C 	0.23060 0.34170 0.79870 0.09200
C 	C 	0.21520 0.26930 0.77690 0.00200
C 	C 	0.12400 0.23770 0.79210 0.10000
C 	C 	0.05580 0.27800 0.83020 -0.05300
C 	C 	0.54190 0.09120 0.41480 0.40700
C 	C 	0.56250 0.13810 0.36330 -0.04000
C 	C 	0.65560 0.17360 0.36680 -0.06100
C 	C 	0.67960 0.21450 0.32110 0.10000
C 	C 	0.61140 0.22320 0.26720 0.01100
C 	C 	0.51960 0.18540 0.26280 0.09600
C 	C 	0.49260 0.14170 0.30930 -0.05000
C 	C 	0.63520 0.26650 0.21290 -0.02100
C 	C 	0.63220 0.33910 0.22430 0.13400
C 	C 	0.66250 0.37790 0.17790 -0.12400
C 	C 	0.69700 0.34450 0.11590 0.04500
C 	C 	0.69620 0.27340 0.09980 -0.11800
C 	C 	0.66680 0.23440 0.14820 0.13400
C 	C 	0.73740 0.38800 0.06560 0.28100
C 	C 	0.50460 0.90110 0.39150 0.39100
C 	C 	0.57950 0.85820 0.34940 -0.04100
C 	C 	0.66430 0.83920 0.38140 -0.06400
C 	C 	0.73060 0.79870 0.34170 0.09500
C 	C 	0.71520 0.77690 0.26930 -0.00100
C 	C 	0.62400 0.79210 0.23770 0.10400
C 	C 	0.55580 0.83020 0.27800 -0.06500
C 	C 	0.95810 0.58520 0.90880 0.40300
C 	C 	0.93750 0.63670 0.86190 -0.04600
C 	C 	0.84440 0.63320 0.82640 -0.05800
C 	C 	0.82040 0.67890 0.78550 0.09800
C 	C 	0.88860 0.73280 0.77680 0.01400
C 	C 	0.98040 0.73720 0.81460 0.08800
C 	C 	0.00740 0.69070 0.85830 -0.03900
C 	C 	0.86480 0.78710 0.73350 -0.02200
C 	C 	0.86780 0.77570 0.66090 0.13400
C 	C 	0.83750 0.82210 0.62210 -0.12400
C 	C 	0.80300 0.88410 0.65550 0.04500
C 	C 	0.80380 0.90020 0.72660 -0.11800
C 	C 	0.83320 0.85180 0.76560 0.13400
C 	C 	0.76260 0.93440 0.61200 0.28200
C 	C 	0.99540 0.60850 0.09890 0.39900
C 	C 	0.92050 0.65060 0.14180 -0.04800
C 	C 	0.83570 0.61860 0.16080 -0.06000
C 	C 	0.76940 0.65830 0.20130 0.09200
C 	C 	0.78480 0.73070 0.22310 0.00200
C 	C 	0.87600 0.76230 0.20790 0.10000
C 	C 	0.94420 0.72200 0.16980 -0.05300
N 	N 	0.22050 0.75210 0.67190 -0.00600
N 	N 	0.55730 0.81450 0.79590 -0.00500
N 	N 	0.40710 0.62280 0.71000 -0.00700
N 	N 	0.32840 0.84140 0.87040 -0.01300
N 	N 	0.18370 0.21980 0.62260 -0.00900
N 	N 	0.39970 0.22890 0.83690 -0.00700
N 	N 	0.27950 0.32810 0.24790 -0.00500
N 	N 	0.94270 0.20410 0.18550 -0.00300
N 	N 	0.09290 0.29000 0.37720 -0.00700
N 	N 	0.17160 0.12960 0.15860 -0.01300
N 	N 	0.31630 0.37740 0.78020 -0.00900
N 	N 	0.10030 0.16310 0.77110 -0.00700
N 	N 	0.77950 0.24790 0.32810 -0.00600
N 	N 	0.44270 0.18550 0.20410 -0.00500
N 	N 	0.59290 0.37720 0.29000 -0.00700
N 	N 	0.67160 0.15860 0.12960 -0.01300
N 	N 	0.81630 0.78020 0.37740 -0.00900
N 	N 	0.60030 0.77110 0.16310 -0.00700
N 	N 	0.72050 0.67190 0.75210 -0.00500
N 	N 	0.05730 0.79590 0.81450 -0.00300
N 	N 	0.90710 0.71000 0.62280 -0.00700
N 	N 	0.82840 0.87040 0.84140 -0.01300
N 	N 	0.68370 0.62260 0.21980 -0.00900
N 	N 	0.89970 0.83690 0.22890 -0.00700
O 	O 	0.39160 0.91030 0.53890 -0.44600
O 	O 	0.54450 0.94320 0.59760 -0.39000
O 	O 	0.23880 0.54750 0.90970 -0.34700
O 	O 	0.24880 0.64180 0.99560 -0.34300
O 	O 	0.15710 0.76800 0.63380 -0.07700
O 	O 	0.19620 0.71110 0.70630 -0.07300
O 	O 	0.61920 0.87060 0.81420 -0.07400
O 	O 	0.55540 0.77460 0.83060 -0.06800
O 	O 	0.43760 0.65550 0.66890 -0.07100
O 	O 	0.42040 0.56290 0.70690 -0.07100
O 	O 	0.31450 0.87440 0.82420 -0.06700
O 	O 	0.33170 0.87020 0.93420 -0.06100
O 	O 	0.45970 0.05970 0.55090 -0.48100
O 	O 	0.58220 0.10250 0.63250 -0.38600
O 	O 	0.11000 0.23620 0.64900 -0.08100
O 	O 	0.15900 0.19910 0.56090 -0.09000
O 	O 	0.33820 0.23930 0.87790 -0.08100
O 	O 	0.48990 0.23940 0.85640 -0.08700
O 	O 	0.10840 0.46110 0.08970 -0.44500
O 	O 	0.95550 0.40240 0.05680 -0.38500
O 	O 	0.26120 0.09030 0.45250 -0.34900
O 	O 	0.25120 0.00440 0.35820 -0.34500
O 	O 	0.34290 0.36620 0.23200 -0.07700
O 	O 	0.30380 0.29370 0.28890 -0.07400
O 	O 	0.88080 0.18580 0.12940 -0.07300
O 	O 	0.94460 0.16940 0.22540 -0.06800
O 	O 	0.06240 0.33110 0.34450 -0.07200
O 	O 	0.07960 0.29310 0.43710 -0.07100
O 	O 	0.18550 0.17580 0.12560 -0.06800
O 	O 	0.16830 0.06580 0.12980 -0.06200
O 	O 	0.04030 0.44910 0.94030 -0.48000
O 	O 	0.91780 0.36750 0.89750 -0.39100
O 	O 	0.39000 0.35100 0.76380 -0.08100
O 	O 	0.34100 0.43910 0.80090 -0.09000
O 	O 	0.16180 0.12210 0.76070 -0.08100
O 	O 	0.01010 0.14360 0.76060 -0.08500
O 	O 	0.60840 0.08970 0.46110 -0.44600
O 	O 	0.45550 0.05680 0.40240 -0.39000
O 	O 	0.76120 0.45250 0.09030 -0.34700
O 	O 	0.75120 0.35820 0.00440 -0.34300
O 	O 	0.84290 0.23200 0.36620 -0.07700
O 	O 	0.80380 0.28890 0.29370 -0.07300
O 	O 	0.38080 0.12940 0.18580 -0.07400
O 	O 	0.44460 0.22540 0.16940 -0.06800
O 	O 	0.56240 0.34450 0.33110 -0.07100
O 	O 	0.57960 0.43710 0.29310 -0.07100
O 	O 	0.68550 0.12560 0.17580 -0.06700
O 	O 	0.66830 0.12980 0.06580 -0.06100
O 	O 	0.54030 0.94030 0.44910 -0.48100
O 	O 	0.41780 0.89750 0.36750 -0.38600
O 	O 	0.89000 0.76380 0.35100 -0.08100
O 	O 	0.84100 0.80090 0.43910 -0.09000
O 	O 	0.66180 0.76070 0.12210 -0.08100
O 	O 	0.51010 0.76060 0.14360 -0.08700
O 	O 	0.89160 0.53890 0.91030 -0.44500
O 	O 	0.04450 0.59760 0.94320 -0.38500
O 	O 	0.73880 0.90970 0.54750 -0.34900
O 	O 	0.74880 0.99560 0.64180 -0.34500
O 	O 	0.65710 0.63380 0.76800 -0.07700
O 	O 	0.69620 0.70630 0.71110 -0.07400
O 	O 	0.11920 0.81420 0.87060 -0.07300
O 	O 	0.05540 0.83060 0.77460 -0.06800
O 	O 	0.93760 0.66890 0.65550 -0.07200
O 	O 	0.92040 0.70690 0.56290 -0.07100
O 	O 	0.81450 0.82420 0.87440 -0.06800
O 	O 	0.83170 0.93420 0.87020 -0.06200
O 	O 	0.95970 0.55090 0.05970 -0.48000
O 	O 	0.08220 0.63250 0.10250 -0.39100
O 	O 	0.61000 0.64900 0.23620 -0.08100
O 	O 	0.65900 0.56090 0.19910 -0.09000
O 	O 	0.83820 0.87790 0.23930 -0.08100
O 	O 	0.98990 0.85640 0.23940 -0.08500
