data_crystal

_cell_length_a 13.36200
_cell_length_b 19.48680
_cell_length_c 19.48680
_cell_angle_alpha 101.90100
_cell_angle_beta  93.03940
_cell_angle_gamma 93.03940

_symmetry_space_group_name_	'P 1'
_symmetry_space_group_name_H-M	'P 1'

loop_
_symmetry_equiv_pos_as_xyz
  x,y,z

loop_
_atom_site_label
_atom_site_type_symbol
_atom_site_fract_x
_atom_site_fract_y
_atom_site_fract_z
_atom_site_charge
Gd	Gd	0.35252 0.48746 0.96326 1.52300
Gd	Gd	0.14748 0.03674 0.51254 1.52200
Gd	Gd	0.64748 0.51254 0.03674 1.52200
Gd	Gd	0.85252 0.96326 0.48746 1.52100
H 	H 	0.56900 0.38600 0.19700 0.09500
H 	H 	0.29950 0.33200 0.09860 0.09000
H 	H 	0.28650 0.24820 0.44420 0.12100
H 	H 	0.34010 0.07300 0.30880 0.12300
H 	H 	0.67330 0.34940 0.93220 0.08000
H 	H 	0.49380 0.33740 0.75940 0.10300
H 	H 	0.93100 0.80300 0.61400 0.09600
H 	H 	0.20050 0.90140 0.66800 0.09000
H 	H 	0.21350 0.55580 0.75180 0.12100
H 	H 	0.15990 0.69120 0.92700 0.12300
H 	H 	0.82670 0.06780 0.65060 0.08000
H 	H 	0.00620 0.24060 0.66260 0.10100
H 	H 	0.43100 0.61400 0.80300 0.09500
H 	H 	0.70050 0.66800 0.90140 0.09000
H 	H 	0.71350 0.75180 0.55580 0.12100
H 	H 	0.65990 0.92700 0.69120 0.12300
H 	H 	0.32670 0.65060 0.06780 0.08000
H 	H 	0.50620 0.66260 0.24060 0.10300
H 	H 	0.06900 0.19700 0.38600 0.09600
H 	H 	0.79950 0.09860 0.33200 0.09000
H 	H 	0.78650 0.44420 0.24820 0.12100
H 	H 	0.84010 0.30880 0.07300 0.12300
H 	H 	0.17330 0.93220 0.34940 0.08000
H 	H 	0.99380 0.75940 0.33740 0.10100
C 	C 	0.46000 0.41250 0.08770 0.41500
C 	C 	0.43810 0.36460 0.13920 -0.03600
C 	C 	0.50740 0.36040 0.19200 -0.05500
C 	C 	0.48370 0.31710 0.23770 0.09600
C 	C 	0.39330 0.27670 0.23430 0.01500
C 	C 	0.32170 0.28800 0.18140 0.09800
C 	C 	0.34640 0.32870 0.13450 -0.06100
C 	C 	0.36750 0.23430 0.28770 -0.02000
C 	C 	0.33320 0.26380 0.35160 0.12600
C 	C 	0.30490 0.22530 0.40030 -0.10300
C 	C 	0.30400 0.15310 0.38370 0.02800
C 	C 	0.33960 0.12170 0.32110 -0.10500
C 	C 	0.37520 0.16300 0.27580 0.12800
C 	C 	0.26260 0.10990 0.43330 0.30200
C 	C 	0.50600 0.40040 0.89540 0.36300
C 	C 	0.57650 0.35540 0.85180 -0.03700
C 	C 	0.66060 0.33550 0.88370 -0.06600
C 	C 	0.72760 0.29420 0.84340 0.09200
C 	C 	0.71300 0.27480 0.77060 0.00000
C 	C 	0.62300 0.29180 0.74180 0.10200
C 	C 	0.55500 0.32940 0.78060 -0.06900
C 	C 	0.04000 0.91230 0.58750 0.41600
C 	C 	0.06190 0.86080 0.63540 -0.03400
C 	C 	0.99260 0.80800 0.63960 -0.05800
C 	C 	0.01630 0.76230 0.68290 0.09700
C 	C 	0.10670 0.76570 0.72330 0.01400
C 	C 	0.17830 0.81860 0.71200 0.09900
C 	C 	0.15360 0.86550 0.67130 -0.06100
C 	C 	0.13250 0.71230 0.76570 -0.02000
C 	C 	0.16680 0.64840 0.73620 0.12600
C 	C 	0.19510 0.59970 0.77470 -0.10300
C 	C 	0.19600 0.61630 0.84690 0.02700
C 	C 	0.16040 0.67890 0.87830 -0.10500
C 	C 	0.12480 0.72420 0.83700 0.12700
C 	C 	0.23740 0.56670 0.89010 0.30200
C 	C 	0.99400 0.10460 0.59960 0.36600
C 	C 	0.92350 0.14820 0.64460 -0.03900
C 	C 	0.83940 0.11630 0.66450 -0.06400
C 	C 	0.77240 0.15660 0.70580 0.09100
C 	C 	0.78700 0.22940 0.72520 0.00200
C 	C 	0.87700 0.25820 0.70820 0.10000
C 	C 	0.94500 0.21940 0.67060 -0.06400
C 	C 	0.54000 0.58750 0.91230 0.41500
C 	C 	0.56190 0.63540 0.86080 -0.03600
C 	C 	0.49260 0.63960 0.80800 -0.05500
C 	C 	0.51630 0.68290 0.76230 0.09600
C 	C 	0.60670 0.72330 0.76570 0.01500
C 	C 	0.67830 0.71200 0.81860 0.09800
C 	C 	0.65360 0.67130 0.86550 -0.06100
C 	C 	0.63250 0.76570 0.71230 -0.02000
C 	C 	0.66680 0.73620 0.64840 0.12600
C 	C 	0.69510 0.77470 0.59970 -0.10300
C 	C 	0.69600 0.84690 0.61630 0.02800
C 	C 	0.66040 0.87830 0.67890 -0.10500
C 	C 	0.62480 0.83700 0.72420 0.12800
C 	C 	0.73740 0.89010 0.56670 0.30200
C 	C 	0.49400 0.59960 0.10460 0.36300
C 	C 	0.42350 0.64460 0.14820 -0.03700
C 	C 	0.33940 0.66450 0.11630 -0.06600
C 	C 	0.27240 0.70580 0.15660 0.09200
C 	C 	0.28700 0.72520 0.22940 0.00000
C 	C 	0.37700 0.70820 0.25820 0.10200
C 	C 	0.44500 0.67060 0.21940 -0.06900
C 	C 	0.96000 0.08770 0.41250 0.41600
C 	C 	0.93810 0.13920 0.36460 -0.03400
C 	C 	0.00740 0.19200 0.36040 -0.05800
C 	C 	0.98370 0.23770 0.31710 0.09700
C 	C 	0.89330 0.23430 0.27670 0.01400
C 	C 	0.82170 0.18140 0.28800 0.09900
C 	C 	0.84640 0.13450 0.32870 -0.06100
C 	C 	0.86750 0.28770 0.23430 -0.02000
C 	C 	0.83320 0.35160 0.26380 0.12600
C 	C 	0.80490 0.40030 0.22530 -0.10300
C 	C 	0.80400 0.38370 0.15310 0.02700
C 	C 	0.83960 0.32110 0.12170 -0.10500
C 	C 	0.87520 0.27580 0.16300 0.12700
C 	C 	0.76260 0.43330 0.10990 0.30200
C 	C 	0.00600 0.89540 0.40040 0.36600
C 	C 	0.07650 0.85180 0.35540 -0.03900
C 	C 	0.16060 0.88370 0.33550 -0.06400
C 	C 	0.22760 0.84340 0.29420 0.09100
C 	C 	0.21300 0.77060 0.27480 0.00200
C 	C 	0.12300 0.74180 0.29180 0.10000
C 	C 	0.05500 0.78060 0.32940 -0.06400
N 	N 	0.55940 0.31630 0.29590 0.00100
N 	N 	0.22300 0.25280 0.17340 -0.00500
N 	N 	0.32930 0.34290 0.37550 -0.00500
N 	N 	0.41470 0.12720 0.21180 -0.01200
N 	N 	0.81690 0.27420 0.87840 0.00000
N 	N 	0.60200 0.27220 0.66280 -0.00200
N 	N 	0.94060 0.70410 0.68370 0.00100
N 	N 	0.27700 0.82660 0.74720 -0.00500
N 	N 	0.17070 0.62450 0.65710 -0.00500
N 	N 	0.08530 0.78820 0.87280 -0.01200
N 	N 	0.68310 0.12160 0.72580 0.00000
N 	N 	0.89800 0.33720 0.72780 -0.00200
N 	N 	0.44060 0.68370 0.70410 0.00100
N 	N 	0.77700 0.74720 0.82660 -0.00500
N 	N 	0.67070 0.65710 0.62450 -0.00500
N 	N 	0.58530 0.87280 0.78820 -0.01200
N 	N 	0.18310 0.72580 0.12160 0.00000
N 	N 	0.39800 0.72780 0.33720 -0.00200
N 	N 	0.05940 0.29590 0.31630 0.00100
N 	N 	0.72300 0.17340 0.25280 -0.00500
N 	N 	0.82930 0.37550 0.34290 -0.00500
N 	N 	0.91470 0.21180 0.12720 -0.01200
N 	N 	0.31690 0.87840 0.27420 0.00000
N 	N 	0.10200 0.66280 0.27220 -0.00200
O 	O 	0.38980 0.41690 0.04510 -0.44700
O 	O 	0.54540 0.44400 0.09820 -0.40000
O 	O 	0.25080 0.13920 0.49420 -0.35200
O 	O 	0.23610 0.04790 0.40710 -0.36300
O 	O 	0.61900 0.36570 0.31030 -0.07600
O 	O 	0.55220 0.28520 0.33660 -0.06900
O 	O 	0.15870 0.27370 0.14050 -0.07900
O 	O 	0.20300 0.20890 0.20710 -0.07500
O 	O 	0.31800 0.37570 0.32990 -0.06900
O 	O 	0.33500 0.36690 0.43910 -0.06400
O 	O 	0.45200 0.15740 0.17140 -0.06800
O 	O 	0.42500 0.06430 0.20470 -0.06800
O 	O 	0.41590 0.39910 0.87010 -0.36700
O 	O 	0.53880 0.43930 0.95210 -0.48100
O 	O 	0.81800 0.27460 0.93700 -0.09000
O 	O 	0.89200 0.27180 0.85220 -0.08800
O 	O 	0.67000 0.26160 0.62360 -0.08200
O 	O 	0.51700 0.26830 0.64130 -0.08500
O 	O 	0.11020 0.95490 0.58310 -0.44700
O 	O 	0.95460 0.90180 0.55600 -0.40100
O 	O 	0.24920 0.50580 0.86080 -0.35300
O 	O 	0.26390 0.59290 0.95210 -0.36300
O 	O 	0.88100 0.68970 0.63430 -0.07600
O 	O 	0.94780 0.66340 0.71480 -0.06900
O 	O 	0.34130 0.85950 0.72630 -0.07900
O 	O 	0.29700 0.79290 0.79110 -0.07500
O 	O 	0.18200 0.67010 0.62430 -0.06900
O 	O 	0.16500 0.56090 0.63310 -0.06500
O 	O 	0.04800 0.82860 0.84260 -0.06800
O 	O 	0.07500 0.79530 0.93570 -0.06900
O 	O 	0.08410 0.12990 0.60090 -0.36800
O 	O 	0.96120 0.04790 0.56070 -0.48100
O 	O 	0.68200 0.06300 0.72540 -0.09100
O 	O 	0.60800 0.14780 0.72820 -0.08900
O 	O 	0.83000 0.37640 0.73840 -0.08200
O 	O 	0.98300 0.35870 0.73170 -0.08500
O 	O 	0.61020 0.58310 0.95490 -0.44700
O 	O 	0.45460 0.55600 0.90180 -0.40000
O 	O 	0.74920 0.86080 0.50580 -0.35200
O 	O 	0.76390 0.95210 0.59290 -0.36300
O 	O 	0.38100 0.63430 0.68970 -0.07600
O 	O 	0.44780 0.71480 0.66340 -0.06900
O 	O 	0.84130 0.72630 0.85950 -0.07900
O 	O 	0.79700 0.79110 0.79290 -0.07500
O 	O 	0.68200 0.62430 0.67010 -0.06900
O 	O 	0.66500 0.63310 0.56090 -0.06400
O 	O 	0.54800 0.84260 0.82860 -0.06800
O 	O 	0.57500 0.93570 0.79530 -0.06800
O 	O 	0.58410 0.60090 0.12990 -0.36700
O 	O 	0.46120 0.56070 0.04790 -0.48100
O 	O 	0.18200 0.72540 0.06300 -0.09000
O 	O 	0.10800 0.72820 0.14780 -0.08800
O 	O 	0.33000 0.73840 0.37640 -0.08200
O 	O 	0.48300 0.73170 0.35870 -0.08500
O 	O 	0.88980 0.04510 0.41690 -0.44700
O 	O 	0.04540 0.09820 0.44400 -0.40100
O 	O 	0.75080 0.49420 0.13920 -0.35300
O 	O 	0.73610 0.40710 0.04790 -0.36300
O 	O 	0.11900 0.31030 0.36570 -0.07600
O 	O 	0.05220 0.33660 0.28520 -0.06900
O 	O 	0.65870 0.14050 0.27370 -0.07900
O 	O 	0.70300 0.20710 0.20890 -0.07500
O 	O 	0.81800 0.32990 0.37570 -0.06900
O 	O 	0.83500 0.43910 0.36690 -0.06500
O 	O 	0.95200 0.17140 0.15740 -0.06800
O 	O 	0.92500 0.20470 0.06430 -0.06900
O 	O 	0.91590 0.87010 0.39910 -0.36800
O 	O 	0.03880 0.95210 0.43930 -0.48100
O 	O 	0.31800 0.93700 0.27460 -0.09100
O 	O 	0.39200 0.85220 0.27180 -0.08900
O 	O 	0.17000 0.62360 0.26160 -0.08200
O 	O 	0.01700 0.64130 0.26830 -0.08500
