data_crystal

_cell_length_a 15.30900
_cell_length_b 18.77530
_cell_length_c 18.77530
_cell_angle_alpha 107.98400
_cell_angle_beta  95.82210
_cell_angle_gamma 95.82210

_symmetry_space_group_name_	'P 1'
_symmetry_space_group_name_H-M	'P 1'

loop_
_symmetry_equiv_pos_as_xyz
  x,y,z

loop_
_atom_site_label
_atom_site_type_symbol
_atom_site_fract_x
_atom_site_fract_y
_atom_site_fract_z
_atom_site_charge
Gd	Gd	0.61739 0.56668 0.01534 1.51600
Gd	Gd	0.88261 0.98466 0.43332 1.51100
Gd	Gd	0.38261 0.43332 0.98466 1.51600
Gd	Gd	0.11739 0.01534 0.56668 1.51100
H 	H 	0.50850 0.30160 0.11060 0.09100
H 	H 	0.74120 0.43820 0.15880 0.08300
H 	H 	0.75580 0.20470 0.40190 0.12100
H 	H 	0.81360 0.06830 0.20510 0.12200
H 	H 	0.47050 0.75470 0.18370 0.09800
H 	H 	0.34170 0.55160 0.15660 0.08000
H 	H 	0.99150 0.88940 0.69840 0.09000
H 	H 	0.75880 0.84120 0.56180 0.08300
H 	H 	0.74420 0.59810 0.79530 0.12000
H 	H 	0.68640 0.79490 0.93170 0.12200
H 	H 	0.02950 0.81630 0.24530 0.09900
H 	H 	0.15830 0.84340 0.44840 0.08000
H 	H 	0.49150 0.69840 0.88940 0.09100
H 	H 	0.25880 0.56180 0.84120 0.08300
H 	H 	0.24420 0.79530 0.59810 0.12100
H 	H 	0.18640 0.93170 0.79490 0.12200
H 	H 	0.52950 0.24530 0.81630 0.09800
H 	H 	0.65830 0.44840 0.84340 0.08000
H 	H 	0.00850 0.11060 0.30160 0.09000
H 	H 	0.24120 0.15880 0.43820 0.08300
H 	H 	0.25580 0.40190 0.20470 0.12000
H 	H 	0.31360 0.20510 0.06830 0.12200
H 	H 	0.97050 0.18370 0.75470 0.09900
H 	H 	0.84170 0.15660 0.55160 0.08000
C 	C 	0.57790 0.42380 0.08600 0.42400
C 	C 	0.62060 0.37810 0.12730 -0.06200
C 	C 	0.56830 0.31280 0.13040 -0.04400
C 	C 	0.60900 0.26570 0.16390 0.09000
C 	C 	0.69830 0.27910 0.19570 0.01200
C 	C 	0.74450 0.34420 0.19220 0.09000
C 	C 	0.70690 0.39450 0.15890 -0.03800
C 	C 	0.73360 0.23030 0.23690 -0.01500
C 	C 	0.72990 0.24190 0.31110 0.11800
C 	C 	0.75790 0.19300 0.35020 -0.09200
C 	C 	0.78920 0.12590 0.30970 0.02200
C 	C 	0.79340 0.11200 0.23300 -0.10300
C 	C 	0.76860 0.16160 0.19920 0.13100
C 	C 	0.81800 0.07540 0.35000 0.27600
C 	C 	0.48290 0.61370 0.11150 0.38600
C 	C 	0.41830 0.64880 0.16300 -0.04200
C 	C 	0.42300 0.72470 0.19210 -0.06300
C 	C 	0.36120 0.75990 0.23350 0.09500
C 	C 	0.28620 0.71610 0.24550 0.00000
C 	C 	0.28180 0.63810 0.21890 0.09700
C 	C 	0.34670 0.60410 0.17610 -0.06000
C 	C 	0.92210 0.91400 0.57620 0.42300
C 	C 	0.87940 0.87270 0.62190 -0.06200
C 	C 	0.93170 0.86960 0.68720 -0.04400
C 	C 	0.89100 0.83610 0.73430 0.08900
C 	C 	0.80170 0.80430 0.72090 0.01200
C 	C 	0.75550 0.80780 0.65580 0.09000
C 	C 	0.79310 0.84110 0.60550 -0.03800
C 	C 	0.76640 0.76310 0.76970 -0.01400
C 	C 	0.77010 0.68890 0.75810 0.11800
C 	C 	0.74210 0.64980 0.80700 -0.09200
C 	C 	0.71080 0.69030 0.87410 0.02100
C 	C 	0.70660 0.76700 0.88800 -0.10300
C 	C 	0.73140 0.80080 0.83840 0.13100
C 	C 	0.68200 0.65000 0.92460 0.27600
C 	C 	0.01710 0.88850 0.38630 0.38900
C 	C 	0.08170 0.83700 0.35120 -0.04300
C 	C 	0.07700 0.80790 0.27530 -0.06200
C 	C 	0.13880 0.76650 0.24010 0.09500
C 	C 	0.21380 0.75450 0.28390 0.00000
C 	C 	0.21820 0.78110 0.36190 0.09700
C 	C 	0.15330 0.82390 0.39590 -0.06000
C 	C 	0.42210 0.57620 0.91400 0.42400
C 	C 	0.37940 0.62190 0.87270 -0.06200
C 	C 	0.43170 0.68720 0.86960 -0.04400
C 	C 	0.39100 0.73430 0.83610 0.09000
C 	C 	0.30170 0.72090 0.80430 0.01200
C 	C 	0.25550 0.65580 0.80780 0.09000
C 	C 	0.29310 0.60550 0.84110 -0.03800
C 	C 	0.26640 0.76970 0.76310 -0.01500
C 	C 	0.27010 0.75810 0.68890 0.11800
C 	C 	0.24210 0.80700 0.64980 -0.09200
C 	C 	0.21080 0.87410 0.69030 0.02200
C 	C 	0.20660 0.88800 0.76700 -0.10300
C 	C 	0.23140 0.83840 0.80080 0.13100
C 	C 	0.18200 0.92460 0.65000 0.27600
C 	C 	0.51710 0.38630 0.88850 0.38600
C 	C 	0.58170 0.35120 0.83700 -0.04200
C 	C 	0.57700 0.27530 0.80790 -0.06300
C 	C 	0.63880 0.24010 0.76650 0.09500
C 	C 	0.71380 0.28390 0.75450 0.00000
C 	C 	0.71820 0.36190 0.78110 0.09700
C 	C 	0.65330 0.39590 0.82390 -0.06000
C 	C 	0.07790 0.08600 0.42380 0.42300
C 	C 	0.12060 0.12730 0.37810 -0.06200
C 	C 	0.06830 0.13040 0.31280 -0.04400
C 	C 	0.10900 0.16390 0.26570 0.08900
C 	C 	0.19830 0.19570 0.27910 0.01200
C 	C 	0.24450 0.19220 0.34420 0.09000
C 	C 	0.20690 0.15890 0.39450 -0.03800
C 	C 	0.23360 0.23690 0.23030 -0.01400
C 	C 	0.22990 0.31110 0.24190 0.11800
C 	C 	0.25790 0.35020 0.19300 -0.09200
C 	C 	0.28920 0.30970 0.12590 0.02100
C 	C 	0.29340 0.23300 0.11200 -0.10300
C 	C 	0.26860 0.19920 0.16160 0.13100
C 	C 	0.31800 0.35000 0.07540 0.27600
C 	C 	0.98290 0.11150 0.61370 0.38900
C 	C 	0.91830 0.16300 0.64880 -0.04300
C 	C 	0.92300 0.19210 0.72470 -0.06200
C 	C 	0.86120 0.23350 0.75990 0.09500
C 	C 	0.78620 0.24550 0.71610 0.00000
C 	C 	0.78180 0.21890 0.63810 0.09700
C 	C 	0.84670 0.17610 0.60410 -0.06000
N 	N 	0.54950 0.19800 0.16260 -0.00700
N 	N 	0.83790 0.36470 0.22690 -0.00100
N 	N 	0.69090 0.30780 0.35720 -0.01400
N 	N 	0.77660 0.14250 0.11810 -0.00700
N 	N 	0.37660 0.84460 0.26460 -0.00500
N 	N 	0.20530 0.60060 0.23760 -0.00700
N 	N 	0.95050 0.83740 0.80200 -0.00800
N 	N 	0.66210 0.77310 0.63530 -0.00100
N 	N 	0.80910 0.64280 0.69220 -0.01400
N 	N 	0.72340 0.88190 0.85750 -0.00700
N 	N 	0.12340 0.73540 0.15540 -0.00500
N 	N 	0.29470 0.76240 0.39940 -0.00700
N 	N 	0.45050 0.80200 0.83740 -0.00700
N 	N 	0.16210 0.63530 0.77310 -0.00100
N 	N 	0.30910 0.69220 0.64280 -0.01400
N 	N 	0.22340 0.85750 0.88190 -0.00700
N 	N 	0.62340 0.15540 0.73540 -0.00500
N 	N 	0.79470 0.39940 0.76240 -0.00700
N 	N 	0.04950 0.16260 0.19800 -0.00800
N 	N 	0.33790 0.22690 0.36470 -0.00100
N 	N 	0.19090 0.35720 0.30780 -0.01400
N 	N 	0.27660 0.11810 0.14250 -0.00700
N 	N 	0.87660 0.26460 0.84460 -0.00500
N 	N 	0.70530 0.23760 0.60060 -0.00700
O 	O 	0.62490 0.48460 0.09120 -0.43100
O 	O 	0.50180 0.40010 0.05250 -0.41400
O 	O 	0.82890 0.09990 0.42270 -0.34800
O 	O 	0.83050 0.01070 0.31290 -0.32900
O 	O 	0.47430 0.19980 0.16480 -0.07800
O 	O 	0.58470 0.13690 0.14370 -0.07100
O 	O 	0.86640 0.42870 0.24390 -0.07800
O 	O 	0.87950 0.31940 0.24040 -0.06700
O 	O 	0.65000 0.30060 0.40840 -0.06100
O 	O 	0.71480 0.36970 0.34470 -0.07100
O 	O 	0.78120 0.19370 0.09130 -0.06900
O 	O 	0.78010 0.07820 0.08400 -0.06400
O 	O 	0.46180 0.54650 0.06770 -0.48000
O 	O 	0.55330 0.65270 0.11450 -0.39500
O 	O 	0.44490 0.87750 0.25950 -0.08500
O 	O 	0.35100 0.87390 0.32490 -0.08500
O 	O 	0.13030 0.61020 0.23020 -0.07300
O 	O 	0.21400 0.53500 0.22640 -0.08600
O 	O 	0.87510 0.90880 0.51540 -0.43200
O 	O 	0.99820 0.94750 0.59990 -0.41500
O 	O 	0.67110 0.57730 0.90010 -0.34900
O 	O 	0.66950 0.68710 0.98930 -0.33000
O 	O 	0.02570 0.83520 0.80020 -0.07700
O 	O 	0.91530 0.85630 0.86310 -0.07200
O 	O 	0.63360 0.75610 0.57130 -0.07800
O 	O 	0.62050 0.75960 0.68060 -0.06700
O 	O 	0.85000 0.59160 0.69940 -0.06200
O 	O 	0.78520 0.65530 0.63030 -0.07100
O 	O 	0.71880 0.90870 0.80630 -0.06900
O 	O 	0.71990 0.91600 0.92180 -0.06500
O 	O 	0.03820 0.93230 0.45350 -0.47900
O 	O 	0.94670 0.88550 0.34730 -0.39800
O 	O 	0.05510 0.74050 0.12250 -0.08500
O 	O 	0.14900 0.67510 0.12610 -0.08500
O 	O 	0.36970 0.76980 0.38980 -0.07300
O 	O 	0.28600 0.77360 0.46500 -0.08600
O 	O 	0.37510 0.51540 0.90880 -0.43100
O 	O 	0.49820 0.59990 0.94750 -0.41400
O 	O 	0.17110 0.90010 0.57730 -0.34800
O 	O 	0.16950 0.98930 0.68710 -0.32900
O 	O 	0.52570 0.80020 0.83520 -0.07800
O 	O 	0.41530 0.86310 0.85630 -0.07100
O 	O 	0.13360 0.57130 0.75610 -0.07800
O 	O 	0.12050 0.68060 0.75960 -0.06700
O 	O 	0.35000 0.69940 0.59160 -0.06100
O 	O 	0.28520 0.63030 0.65530 -0.07100
O 	O 	0.21880 0.80630 0.90870 -0.06900
O 	O 	0.21990 0.92180 0.91600 -0.06400
O 	O 	0.53820 0.45350 0.93230 -0.48000
O 	O 	0.44670 0.34730 0.88550 -0.39500
O 	O 	0.55510 0.12250 0.74050 -0.08500
O 	O 	0.64900 0.12610 0.67510 -0.08500
O 	O 	0.86970 0.38980 0.76980 -0.07300
O 	O 	0.78600 0.46500 0.77360 -0.08600
O 	O 	0.12490 0.09120 0.48460 -0.43200
O 	O 	0.00180 0.05250 0.40010 -0.41500
O 	O 	0.32890 0.42270 0.09990 -0.34900
O 	O 	0.33050 0.31290 0.01070 -0.33000
O 	O 	0.97430 0.16480 0.19980 -0.07700
O 	O 	0.08470 0.14370 0.13690 -0.07200
O 	O 	0.36640 0.24390 0.42870 -0.07800
O 	O 	0.37950 0.24040 0.31940 -0.06700
O 	O 	0.15000 0.40840 0.30060 -0.06200
O 	O 	0.21480 0.34470 0.36970 -0.07100
O 	O 	0.28120 0.09130 0.19370 -0.06900
O 	O 	0.28010 0.08400 0.07820 -0.06500
O 	O 	0.96180 0.06770 0.54650 -0.47900
O 	O 	0.05330 0.11450 0.65270 -0.39800
O 	O 	0.94490 0.25950 0.87750 -0.08500
O 	O 	0.85100 0.32490 0.87390 -0.08500
O 	O 	0.63030 0.23020 0.61020 -0.07300
O 	O 	0.71400 0.22640 0.53500 -0.08600
