data_crystal

_cell_length_a 13.65200
_cell_length_b 24.69800
_cell_length_c 30.14300
_cell_angle_alpha 90.00000
_cell_angle_beta  90.00000
_cell_angle_gamma 94.93500

_symmetry_space_group_name_	'P 1'
_symmetry_space_group_name_H-M	'P 1'

loop_
_symmetry_equiv_pos_as_xyz
  x,y,z

loop_
_atom_site_label
_atom_site_type_symbol
_atom_site_fract_x
_atom_site_fract_y
_atom_site_fract_z
_atom_site_charge
Gd	Gd	0.35763 0.22222 0.74635 1.52400
Gd	Gd	0.64000 0.27732 0.77367 1.51300
Gd	Gd	0.14237 0.27778 0.24635 1.52400
Gd	Gd	0.86000 0.22268 0.27367 1.51300
Gd	Gd	0.64237 0.77778 0.25365 1.52400
Gd	Gd	0.36000 0.72268 0.22633 1.51300
Gd	Gd	0.85763 0.72222 0.75365 1.52500
Gd	Gd	0.14000 0.77732 0.72633 1.51400
H 	H 	0.67950 0.14140 0.79350 0.08400
H 	H 	0.52950 0.06570 0.69380 0.10100
H 	H 	0.00230 0.95330 0.70130 0.10200
H 	H 	0.81130 0.85860 0.77380 0.08500
H 	H 	0.55790 0.28330 0.91720 0.09600
H 	H 	0.30220 0.19710 0.89400 0.09100
H 	H 	0.26000 0.33160 0.10290 0.12200
H 	H 	0.35090 0.18850 0.13480 0.12500
H 	H 	0.70690 0.29440 0.63230 0.08400
H 	H 	0.43360 0.23930 0.59890 0.09200
H 	H 	0.69120 0.32130 0.39320 0.12700
H 	H 	0.72590 0.16470 0.41690 0.12300
H 	H 	0.82050 0.35860 0.29350 0.08400
H 	H 	0.97050 0.43430 0.19380 0.10100
H 	H 	0.49770 0.54670 0.20130 0.10300
H 	H 	0.68870 0.64140 0.27380 0.08500
H 	H 	0.94210 0.21670 0.41720 0.09600
H 	H 	0.19780 0.30290 0.39400 0.09100
H 	H 	0.24000 0.16840 0.60290 0.12200
H 	H 	0.14910 0.31150 0.63480 0.12500
H 	H 	0.79310 0.20560 0.13230 0.08400
H 	H 	0.06640 0.26070 0.09890 0.09200
H 	H 	0.80880 0.17870 0.89320 0.12700
H 	H 	0.77410 0.33530 0.91690 0.12300
H 	H 	0.32050 0.85860 0.20650 0.08400
H 	H 	0.47050 0.93430 0.30620 0.10100
H 	H 	0.99770 0.04670 0.29870 0.10200
H 	H 	0.18870 0.14140 0.22620 0.08500
H 	H 	0.44210 0.71670 0.08280 0.09600
H 	H 	0.69780 0.80290 0.10600 0.09100
H 	H 	0.74000 0.66840 0.89710 0.12200
H 	H 	0.64910 0.81150 0.86520 0.12500
H 	H 	0.29310 0.70560 0.36770 0.08400
H 	H 	0.56640 0.76070 0.40110 0.09200
H 	H 	0.30880 0.67870 0.60680 0.12700
H 	H 	0.27410 0.83530 0.58310 0.12300
H 	H 	0.17950 0.64140 0.70650 0.08400
H 	H 	0.02950 0.56570 0.80620 0.10100
H 	H 	0.50230 0.45330 0.79870 0.10300
H 	H 	0.31130 0.35860 0.72620 0.08500
H 	H 	0.05790 0.78330 0.58280 0.09600
H 	H 	0.80220 0.69710 0.60600 0.09100
H 	H 	0.76000 0.83160 0.39710 0.12200
H 	H 	0.85090 0.68850 0.36520 0.12500
H 	H 	0.20690 0.79440 0.86770 0.08400
H 	H 	0.93360 0.73930 0.90110 0.09200
H 	H 	0.19120 0.82130 0.10680 0.12700
H 	H 	0.22590 0.66470 0.08310 0.12300
C 	C 	0.51570 0.15030 0.74500 0.37400
C 	C 	0.59080 0.10940 0.74430 -0.04400
C 	C 	0.66950 0.11230 0.77390 -0.06700
C 	C 	0.73190 0.07170 0.77380 0.09700
C 	C 	0.72350 0.02780 0.74430 0.00200
C 	C 	0.64680 0.02840 0.71420 0.09600
C 	C 	0.58080 0.06760 0.71420 -0.06400
C 	C 	0.79360 0.98390 0.74370 0.00100
C 	C 	0.88280 0.98900 0.72120 0.09800
C 	C 	0.94390 0.94810 0.71720 -0.06700
C 	C 	0.91580 0.89780 0.73790 -0.03800
C 	C 	0.83050 0.89170 0.76050 -0.06200
C 	C 	0.77070 0.93420 0.76420 0.09800
C 	C 	0.98220 0.85230 0.73300 0.38400
C 	C 	0.45490 0.24160 0.84840 0.39900
C 	C 	0.43330 0.24010 0.89780 -0.03400
C 	C 	0.49890 0.26610 0.92750 -0.06200
C 	C 	0.47770 0.26680 0.97170 0.10300
C 	C 	0.39050 0.24030 0.98950 0.01000
C 	C 	0.32920 0.21390 0.95840 0.09900
C 	C 	0.34760 0.21430 0.91350 -0.06000
C 	C 	0.36120 0.24760 0.03720 -0.01400
C 	C 	0.31580 0.29230 0.05140 0.12500
C 	C 	0.28700 0.29970 0.09480 -0.11100
C 	C 	0.29810 0.26060 0.12530 0.03900
C 	C 	0.34220 0.21520 0.11370 -0.11100
C 	C 	0.37410 0.20890 0.07050 0.12900
C 	C 	0.25970 0.26840 0.17170 0.28200
C 	C 	0.53560 0.26450 0.67100 0.41300
C 	C 	0.56630 0.26620 0.62240 -0.04500
C 	C 	0.66150 0.28180 0.61090 -0.05300
C 	C 	0.68920 0.27860 0.56700 0.09400
C 	C 	0.62410 0.26120 0.53360 0.01100
C 	C 	0.52880 0.24690 0.54760 0.09700
C 	C 	0.49860 0.24920 0.59110 -0.05400
C 	C 	0.65430 0.25540 0.48610 -0.01900
C 	C 	0.65380 0.29640 0.45530 0.12800
C 	C 	0.68680 0.29150 0.41220 -0.11300
C 	C 	0.71330 0.24160 0.39770 0.03800
C 	C 	0.70940 0.19850 0.42650 -0.11100
C 	C 	0.68080 0.20560 0.47000 0.13000
C 	C 	0.75250 0.23540 0.35140 0.26900
C 	C 	0.98430 0.34970 0.24500 0.37400
C 	C 	0.90920 0.39060 0.24430 -0.04400
C 	C 	0.83050 0.38770 0.27390 -0.06700
C 	C 	0.76810 0.42830 0.27380 0.09700
C 	C 	0.77650 0.47220 0.24430 0.00200
C 	C 	0.85320 0.47160 0.21420 0.09600
C 	C 	0.91920 0.43240 0.21420 -0.06500
C 	C 	0.70640 0.51610 0.24370 0.00100
C 	C 	0.61720 0.51100 0.22120 0.09800
C 	C 	0.55610 0.55190 0.21720 -0.06700
C 	C 	0.58420 0.60220 0.23790 -0.03700
C 	C 	0.66950 0.60830 0.26050 -0.06200
C 	C 	0.72930 0.56580 0.26420 0.09800
C 	C 	0.51780 0.64770 0.23300 0.38400
C 	C 	0.04510 0.25840 0.34840 0.39900
C 	C 	0.06670 0.25990 0.39780 -0.03400
C 	C 	0.00110 0.23390 0.42750 -0.06200
C 	C 	0.02230 0.23320 0.47170 0.10300
C 	C 	0.10950 0.25970 0.48950 0.01000
C 	C 	0.17080 0.28610 0.45840 0.09900
C 	C 	0.15240 0.28570 0.41350 -0.06000
C 	C 	0.13880 0.25240 0.53720 -0.01400
C 	C 	0.18420 0.20770 0.55140 0.12500
C 	C 	0.21300 0.20030 0.59480 -0.11100
C 	C 	0.20190 0.23940 0.62530 0.03900
C 	C 	0.15780 0.28480 0.61370 -0.11200
C 	C 	0.12590 0.29110 0.57050 0.12900
C 	C 	0.24030 0.23160 0.67170 0.28200
C 	C 	0.96440 0.23550 0.17100 0.41300
C 	C 	0.93370 0.23380 0.12240 -0.04500
C 	C 	0.83850 0.21820 0.11090 -0.05300
C 	C 	0.81080 0.22140 0.06700 0.09400
C 	C 	0.87590 0.23880 0.03360 0.01100
C 	C 	0.97120 0.25310 0.04760 0.09600
C 	C 	0.00140 0.25080 0.09110 -0.05300
C 	C 	0.84570 0.24460 0.98610 -0.01900
C 	C 	0.84620 0.20360 0.95530 0.12800
C 	C 	0.81320 0.20850 0.91220 -0.11300
C 	C 	0.78670 0.25840 0.89770 0.03800
C 	C 	0.79060 0.30150 0.92650 -0.11100
C 	C 	0.81920 0.29440 0.97000 0.13000
C 	C 	0.74750 0.26460 0.85140 0.26900
C 	C 	0.48430 0.84970 0.25500 0.37400
C 	C 	0.40920 0.89060 0.25570 -0.04400
C 	C 	0.33050 0.88770 0.22610 -0.06700
C 	C 	0.26810 0.92830 0.22620 0.09700
C 	C 	0.27650 0.97220 0.25570 0.00200
C 	C 	0.35320 0.97160 0.28580 0.09600
C 	C 	0.41920 0.93240 0.28580 -0.06400
C 	C 	0.20640 0.01610 0.25630 0.00100
C 	C 	0.11720 0.01100 0.27880 0.09800
C 	C 	0.05610 0.05190 0.28280 -0.06700
C 	C 	0.08420 0.10220 0.26210 -0.03800
C 	C 	0.16950 0.10830 0.23950 -0.06200
C 	C 	0.22930 0.06580 0.23580 0.09800
C 	C 	0.01780 0.14770 0.26700 0.38400
C 	C 	0.54510 0.75840 0.15160 0.39900
C 	C 	0.56670 0.75990 0.10220 -0.03400
C 	C 	0.50110 0.73390 0.07250 -0.06200
C 	C 	0.52230 0.73320 0.02830 0.10300
C 	C 	0.60950 0.75970 0.01050 0.01000
C 	C 	0.67080 0.78610 0.04160 0.09900
C 	C 	0.65240 0.78570 0.08650 -0.06000
C 	C 	0.63880 0.75240 0.96280 -0.01400
C 	C 	0.68420 0.70770 0.94860 0.12500
C 	C 	0.71300 0.70030 0.90520 -0.11100
C 	C 	0.70190 0.73940 0.87470 0.03900
C 	C 	0.65780 0.78480 0.88630 -0.11100
C 	C 	0.62590 0.79110 0.92950 0.12900
C 	C 	0.74030 0.73160 0.82830 0.28200
C 	C 	0.46440 0.73550 0.32900 0.41300
C 	C 	0.43370 0.73380 0.37760 -0.04500
C 	C 	0.33850 0.71820 0.38910 -0.05300
C 	C 	0.31080 0.72140 0.43300 0.09400
C 	C 	0.37590 0.73880 0.46640 0.01100
C 	C 	0.47120 0.75310 0.45240 0.09700
C 	C 	0.50140 0.75080 0.40890 -0.05400
C 	C 	0.34570 0.74460 0.51390 -0.01900
C 	C 	0.34620 0.70360 0.54470 0.12800
C 	C 	0.31320 0.70850 0.58780 -0.11300
C 	C 	0.28670 0.75840 0.60230 0.03800
C 	C 	0.29060 0.80150 0.57350 -0.11100
C 	C 	0.31920 0.79440 0.53000 0.13000
C 	C 	0.24750 0.76460 0.64860 0.26900
C 	C 	0.01570 0.65030 0.75500 0.37400
C 	C 	0.09080 0.60940 0.75570 -0.04400
C 	C 	0.16950 0.61230 0.72610 -0.06700
C 	C 	0.23190 0.57170 0.72620 0.09700
C 	C 	0.22350 0.52780 0.75570 0.00200
C 	C 	0.14680 0.52840 0.78580 0.09600
C 	C 	0.08080 0.56760 0.78580 -0.06500
C 	C 	0.29360 0.48390 0.75630 0.00100
C 	C 	0.38280 0.48900 0.77880 0.09800
C 	C 	0.44390 0.44810 0.78280 -0.06700
C 	C 	0.41580 0.39780 0.76210 -0.03700
C 	C 	0.33050 0.39170 0.73950 -0.06200
C 	C 	0.27070 0.43420 0.73580 0.09800
C 	C 	0.48220 0.35230 0.76700 0.38400
C 	C 	0.95490 0.74160 0.65160 0.39900
C 	C 	0.93330 0.74010 0.60220 -0.03400
C 	C 	0.99890 0.76610 0.57250 -0.06200
C 	C 	0.97770 0.76680 0.52830 0.10300
C 	C 	0.89050 0.74030 0.51050 0.01000
C 	C 	0.82920 0.71390 0.54160 0.09900
C 	C 	0.84760 0.71430 0.58650 -0.06000
C 	C 	0.86120 0.74760 0.46280 -0.01400
C 	C 	0.81580 0.79230 0.44860 0.12500
C 	C 	0.78700 0.79970 0.40520 -0.11100
C 	C 	0.79810 0.76060 0.37470 0.03900
C 	C 	0.84220 0.71520 0.38630 -0.11200
C 	C 	0.87410 0.70890 0.42950 0.12900
C 	C 	0.75970 0.76840 0.32830 0.28200
C 	C 	0.03560 0.76450 0.82900 0.41300
C 	C 	0.06630 0.76620 0.87760 -0.04500
C 	C 	0.16150 0.78180 0.88910 -0.05300
C 	C 	0.18920 0.77860 0.93300 0.09400
C 	C 	0.12410 0.76120 0.96640 0.01100
C 	C 	0.02880 0.74690 0.95240 0.09600
C 	C 	0.99860 0.74920 0.90890 -0.05300
C 	C 	0.15430 0.75540 0.01390 -0.01900
C 	C 	0.15380 0.79640 0.04470 0.12800
C 	C 	0.18680 0.79150 0.08780 -0.11300
C 	C 	0.21330 0.74160 0.10230 0.03800
C 	C 	0.20940 0.69850 0.07350 -0.11100
C 	C 	0.18080 0.70560 0.03000 0.13000
C 	C 	0.25250 0.73540 0.14860 0.26900
N 	N 	0.81030 0.07480 0.80770 0.00300
N 	N 	0.62940 0.98600 0.67990 -0.00300
N 	N 	0.91800 0.04110 0.69930 -0.00400
N 	N 	0.68040 0.92540 0.79000 -0.00100
N 	N 	0.54880 0.29600 0.00160 -0.00600
N 	N 	0.23570 0.18320 0.97210 -0.00600
N 	N 	0.29520 0.33640 0.02010 -0.00400
N 	N 	0.42290 0.15950 0.06000 -0.00900
N 	N 	0.79560 0.29270 0.55680 -0.00300
N 	N 	0.45310 0.22680 0.51580 -0.00400
N 	N 	0.62130 0.34960 0.46690 -0.01100
N 	N 	0.68190 0.15760 0.49940 -0.00700
N 	N 	0.68970 0.42520 0.30770 0.00300
N 	N 	0.87060 0.51400 0.17990 -0.00300
N 	N 	0.58200 0.45890 0.19930 -0.00400
N 	N 	0.81960 0.57460 0.29000 -0.00100
N 	N 	0.95120 0.20400 0.50160 -0.00600
N 	N 	0.26430 0.31680 0.47210 -0.00600
N 	N 	0.20480 0.16360 0.52010 -0.00400
N 	N 	0.07710 0.34050 0.56000 -0.00900
N 	N 	0.70440 0.20730 0.05680 -0.00300
N 	N 	0.04690 0.27320 0.01580 -0.00400
N 	N 	0.87870 0.15040 0.96690 -0.01100
N 	N 	0.81810 0.34240 0.99940 -0.00700
N 	N 	0.18970 0.92520 0.19230 0.00300
N 	N 	0.37060 0.01400 0.32010 -0.00300
N 	N 	0.08200 0.95890 0.30070 -0.00400
N 	N 	0.31960 0.07460 0.21000 -0.00100
N 	N 	0.45120 0.70400 0.99840 -0.00600
N 	N 	0.76430 0.81680 0.02790 -0.00600
N 	N 	0.70480 0.66360 0.97990 -0.00400
N 	N 	0.57710 0.84050 0.94000 -0.00900
N 	N 	0.20440 0.70730 0.44320 -0.00300
N 	N 	0.54690 0.77320 0.48420 -0.00400
N 	N 	0.37870 0.65040 0.53310 -0.01100
N 	N 	0.31810 0.84240 0.50060 -0.00700
N 	N 	0.31030 0.57480 0.69230 0.00300
N 	N 	0.12940 0.48600 0.82010 -0.00300
N 	N 	0.41800 0.54110 0.80070 -0.00400
N 	N 	0.18040 0.42540 0.71000 -0.00100
N 	N 	0.04880 0.79600 0.49840 -0.00600
N 	N 	0.73570 0.68320 0.52790 -0.00600
N 	N 	0.79520 0.83640 0.47990 -0.00400
N 	N 	0.92290 0.65950 0.44000 -0.00900
N 	N 	0.29560 0.79270 0.94320 -0.00300
N 	N 	0.95310 0.72680 0.98420 -0.00400
N 	N 	0.12130 0.84960 0.03310 -0.01100
N 	N 	0.18190 0.65760 0.00060 -0.00700
O 	O 	0.43200 0.13780 0.72990 -0.37600
O 	O 	0.53890 0.19630 0.76120 -0.48700
O 	O 	0.06940 0.86380 0.72080 -0.38300
O 	O 	0.94680 0.80530 0.74200 -0.47400
O 	O 	0.82830 0.11520 0.82600 -0.09600
O 	O 	0.85160 0.03730 0.81560 -0.08000
O 	O 	0.57990 0.99420 0.64920 -0.07900
O 	O 	0.65590 0.94230 0.68640 -0.08700
O 	O 	0.88820 0.08260 0.71140 -0.09100
O 	O 	0.98010 0.04070 0.67160 -0.08400
O 	O 	0.63720 0.95990 0.80160 -0.08000
O 	O 	0.64720 0.87930 0.79590 -0.09500
O 	O 	0.39070 0.21920 0.82390 -0.43600
O 	O 	0.53640 0.26700 0.83720 -0.39400
O 	O 	0.24400 0.22690 0.19550 -0.34800
O 	O 	0.24220 0.31470 0.18350 -0.34400
O 	O 	0.61400 0.32550 0.98400 -0.07800
O 	O 	0.54060 0.29050 0.04140 -0.06800
O 	O 	0.16910 0.17750 0.94580 -0.07500
O 	O 	0.23500 0.16100 0.00940 -0.06700
O 	O 	0.32620 0.33820 0.98430 -0.07500
O 	O 	0.23880 0.36760 0.03180 -0.07000
O 	O 	0.45540 0.15260 0.02320 -0.06400
O 	O 	0.43300 0.12670 0.08940 -0.06600
O 	O 	0.45400 0.24330 0.68080 -0.40400
O 	O 	0.60060 0.28360 0.69860 -0.44100
O 	O 	0.75950 0.18770 0.33680 -0.34000
O 	O 	0.77800 0.27730 0.32900 -0.34600
O 	O 	0.81970 0.29700 0.51770 -0.07200
O 	O 	0.85290 0.29710 0.58810 -0.08000
O 	O 	0.46900 0.20400 0.48520 -0.07200
O 	O 	0.37260 0.24730 0.51950 -0.07400
O 	O 	0.64990 0.38810 0.44570 -0.06700
O 	O 	0.56760 0.35170 0.49860 -0.06900
O 	O 	0.67480 0.11400 0.48220 -0.06700
O 	O 	0.69460 0.16530 0.53910 -0.07200
O 	O 	0.06800 0.36220 0.22990 -0.37600
O 	O 	0.96110 0.30370 0.26120 -0.48700
O 	O 	0.43060 0.63620 0.22080 -0.38300
O 	O 	0.55320 0.69470 0.24200 -0.47400
O 	O 	0.67170 0.38480 0.32600 -0.09600
O 	O 	0.64840 0.46270 0.31560 -0.08000
O 	O 	0.92010 0.50580 0.14920 -0.07900
O 	O 	0.84410 0.55770 0.18640 -0.08700
O 	O 	0.61180 0.41740 0.21140 -0.09100
O 	O 	0.51990 0.45930 0.17160 -0.08400
O 	O 	0.86280 0.54010 0.30160 -0.08000
O 	O 	0.85280 0.62070 0.29590 -0.09500
O 	O 	0.10930 0.28080 0.32390 -0.43600
O 	O 	0.96360 0.23300 0.33720 -0.39400
O 	O 	0.25600 0.27310 0.69550 -0.34800
O 	O 	0.25780 0.18530 0.68350 -0.34400
O 	O 	0.88600 0.17450 0.48400 -0.07800
O 	O 	0.95940 0.20950 0.54140 -0.06800
O 	O 	0.33090 0.32250 0.44580 -0.07500
O 	O 	0.26500 0.33900 0.50940 -0.06700
O 	O 	0.17380 0.16180 0.48430 -0.07500
O 	O 	0.26120 0.13240 0.53180 -0.07000
O 	O 	0.04460 0.34740 0.52320 -0.06400
O 	O 	0.06700 0.37330 0.58940 -0.06600
O 	O 	0.04600 0.25670 0.18080 -0.40400
O 	O 	0.89940 0.21640 0.19860 -0.44100
O 	O 	0.74050 0.31230 0.83680 -0.34000
O 	O 	0.72200 0.22270 0.82900 -0.34600
O 	O 	0.68030 0.20300 0.01770 -0.07300
O 	O 	0.64710 0.20290 0.08810 -0.08000
O 	O 	0.03100 0.29600 0.98520 -0.07200
O 	O 	0.12740 0.25270 0.01950 -0.07400
O 	O 	0.85010 0.11190 0.94570 -0.06700
O 	O 	0.93240 0.14830 0.99860 -0.06900
O 	O 	0.82520 0.38600 0.98220 -0.06700
O 	O 	0.80540 0.33470 0.03910 -0.07200
O 	O 	0.56800 0.86220 0.27010 -0.37600
O 	O 	0.46110 0.80370 0.23880 -0.48700
O 	O 	0.93060 0.13620 0.27920 -0.38300
O 	O 	0.05320 0.19470 0.25800 -0.47400
O 	O 	0.17170 0.88480 0.17400 -0.09600
O 	O 	0.14840 0.96270 0.18440 -0.08000
O 	O 	0.42010 0.00580 0.35080 -0.07900
O 	O 	0.34410 0.05770 0.31360 -0.08700
O 	O 	0.11180 0.91740 0.28860 -0.09100
O 	O 	0.01990 0.95930 0.32840 -0.08400
O 	O 	0.36280 0.04010 0.19840 -0.08000
O 	O 	0.35280 0.12070 0.20410 -0.09500
O 	O 	0.60930 0.78080 0.17610 -0.43600
O 	O 	0.46360 0.73300 0.16280 -0.39400
O 	O 	0.75600 0.77310 0.80450 -0.34800
O 	O 	0.75780 0.68530 0.81650 -0.34400
O 	O 	0.38600 0.67450 0.01600 -0.07800
O 	O 	0.45940 0.70950 0.95860 -0.06800
O 	O 	0.83090 0.82250 0.05420 -0.07500
O 	O 	0.76500 0.83900 0.99060 -0.06700
O 	O 	0.67380 0.66180 0.01570 -0.07500
O 	O 	0.76120 0.63240 0.96820 -0.07000
O 	O 	0.54460 0.84740 0.97680 -0.06400
O 	O 	0.56700 0.87330 0.91060 -0.06600
O 	O 	0.54600 0.75670 0.31920 -0.40400
O 	O 	0.39940 0.71640 0.30140 -0.44100
O 	O 	0.24050 0.81230 0.66320 -0.34000
O 	O 	0.22200 0.72270 0.67100 -0.34600
O 	O 	0.18030 0.70300 0.48230 -0.07200
O 	O 	0.14710 0.70290 0.41190 -0.08000
O 	O 	0.53100 0.79600 0.51480 -0.07200
O 	O 	0.62740 0.75270 0.48050 -0.07400
O 	O 	0.35010 0.61190 0.55430 -0.06700
O 	O 	0.43240 0.64830 0.50140 -0.06900
O 	O 	0.32520 0.88600 0.51780 -0.06700
O 	O 	0.30540 0.83470 0.46090 -0.07200
O 	O 	0.93200 0.63780 0.77010 -0.37600
O 	O 	0.03890 0.69630 0.73880 -0.48700
O 	O 	0.56940 0.36380 0.77920 -0.38300
O 	O 	0.44680 0.30530 0.75800 -0.47400
O 	O 	0.32830 0.61520 0.67400 -0.09600
O 	O 	0.35160 0.53730 0.68440 -0.08000
O 	O 	0.07990 0.49420 0.85080 -0.07900
O 	O 	0.15590 0.44230 0.81360 -0.08700
O 	O 	0.38820 0.58260 0.78860 -0.09100
O 	O 	0.48010 0.54070 0.82840 -0.08400
O 	O 	0.13720 0.45990 0.69840 -0.08000
O 	O 	0.14720 0.37930 0.70410 -0.09500
O 	O 	0.89070 0.71920 0.67610 -0.43600
O 	O 	0.03640 0.76700 0.66280 -0.39400
O 	O 	0.74400 0.72690 0.30450 -0.34800
O 	O 	0.74220 0.81470 0.31650 -0.34400
O 	O 	0.11400 0.82550 0.51600 -0.07800
O 	O 	0.04060 0.79050 0.45860 -0.06800
O 	O 	0.66910 0.67750 0.55420 -0.07500
O 	O 	0.73500 0.66100 0.49060 -0.06700
O 	O 	0.82620 0.83820 0.51570 -0.07500
O 	O 	0.73880 0.86760 0.46820 -0.07000
O 	O 	0.95540 0.65260 0.47680 -0.06400
O 	O 	0.93300 0.62670 0.41060 -0.06600
O 	O 	0.95400 0.74330 0.81920 -0.40400
O 	O 	0.10060 0.78360 0.80140 -0.44100
O 	O 	0.25950 0.68770 0.16320 -0.34000
O 	O 	0.27800 0.77730 0.17100 -0.34600
O 	O 	0.31970 0.79700 0.98230 -0.07300
O 	O 	0.35290 0.79710 0.91190 -0.08000
O 	O 	0.96900 0.70400 0.01480 -0.07200
O 	O 	0.87260 0.74730 0.98050 -0.07400
O 	O 	0.14990 0.88810 0.05430 -0.06700
O 	O 	0.06760 0.85170 0.00140 -0.06900
O 	O 	0.17480 0.61400 0.01780 -0.06700
O 	O 	0.19460 0.66530 0.96090 -0.07200
