data_crystal

_cell_length_a 7.81770
_cell_length_b 8.43220
_cell_length_c 9.48450
_cell_angle_alpha 90.00000
_cell_angle_beta  90.00000
_cell_angle_gamma 117.61700

_symmetry_space_group_name_	'P 1'
_symmetry_space_group_name_H-M	'P 1'

loop_
_symmetry_equiv_pos_as_xyz
  x,y,z

loop_
_atom_site_label
_atom_site_type_symbol
_atom_site_fract_x
_atom_site_fract_y
_atom_site_fract_z
_atom_site_charge
Y 	Y 	0.70680 0.41360 0.75000 2.38500
Y 	Y 	0.29260 0.58520 0.75000 2.39100
Y 	Y 	0.29320 0.58640 0.25000 2.38400
Y 	Y 	0.70740 0.41480 0.25000 2.39200
C 	C 	0.59300 0.98600 0.74700 0.23600
C 	C 	0.08300 0.55000 0.49700 0.56500
C 	C 	0.40700 0.01400 0.24700 0.23600
C 	C 	0.91700 0.45000 0.99700 0.57000
C 	C 	0.39300 0.98600 0.75300 0.23900
C 	C 	0.46700 0.55000 0.00300 0.56700
C 	C 	0.60700 0.01400 0.25300 0.23800
C 	C 	0.53300 0.45000 0.50300 0.56700
O 	O 	0.74000 0.14200 0.75400 -0.44300
O 	O 	0.58450 0.83700 0.71700 -0.51100
O 	O 	0.99000 0.47400 0.61300 -0.73800
O 	O 	0.26510 0.62980 0.49500 -0.73400
O 	O 	0.99300 0.52600 0.37700 -0.76200
O 	O 	0.26000 0.85800 0.25400 -0.44400
O 	O 	0.41550 0.16300 0.21700 -0.51200
O 	O 	0.01000 0.52600 0.11300 -0.74100
O 	O 	0.73490 0.37020 0.99500 -0.73400
O 	O 	0.00700 0.47400 0.87700 -0.76500
O 	O 	0.40200 0.14200 0.74600 -0.44500
O 	O 	0.25250 0.83700 0.78300 -0.51200
O 	O 	0.48400 0.47400 0.88700 -0.73900
O 	O 	0.36470 0.62980 0.00500 -0.73400
O 	O 	0.53300 0.52600 0.12300 -0.76300
O 	O 	0.59800 0.85800 0.24600 -0.44500
O 	O 	0.74750 0.16300 0.28300 -0.51100
O 	O 	0.51600 0.52600 0.38700 -0.73900
O 	O 	0.63530 0.37020 0.50500 -0.73500
O 	O 	0.46700 0.47400 0.62300 -0.76300
