data_crystal

_cell_length_a 7.81980
_cell_length_b 8.43540
_cell_length_c 9.49080
_cell_angle_alpha 90.00000
_cell_angle_beta  90.00000
_cell_angle_gamma 117.61400

_symmetry_space_group_name_	'P 1'
_symmetry_space_group_name_H-M	'P 1'

loop_
_symmetry_equiv_pos_as_xyz
  x,y,z

loop_
_atom_site_label
_atom_site_type_symbol
_atom_site_fract_x
_atom_site_fract_y
_atom_site_fract_z
_atom_site_charge
Y 	Y 	0.70716 0.41432 0.75000 2.38700
Y 	Y 	0.29277 0.58554 0.75000 2.39200
Y 	Y 	0.29284 0.58568 0.25000 2.38700
Y 	Y 	0.70723 0.41446 0.25000 2.39200
C 	C 	0.59820 0.99780 0.74270 0.25600
C 	C 	0.08030 0.55080 0.50050 0.63400
C 	C 	0.40180 0.00220 0.24270 0.25600
C 	C 	0.91970 0.44920 0.00050 0.64000
C 	C 	0.39960 0.99780 0.75730 0.25800
C 	C 	0.47050 0.55080 0.99950 0.63700
C 	C 	0.60040 0.00220 0.25730 0.25800
C 	C 	0.52950 0.44920 0.49950 0.63700
O 	O 	0.74290 0.14520 0.73700 -0.47700
O 	O 	0.59130 0.84560 0.73610 -0.48400
O 	O 	0.99750 0.50680 0.61970 -0.79300
O 	O 	0.26550 0.63960 0.50320 -0.73300
O 	O 	0.99670 0.50520 0.38140 -0.79200
O 	O 	0.25710 0.85480 0.23700 -0.47700
O 	O 	0.40870 0.15440 0.23610 -0.48400
O 	O 	0.00250 0.49320 0.11970 -0.79600
O 	O 	0.73450 0.36040 0.00320 -0.73400
O 	O 	0.00330 0.49480 0.88140 -0.79500
O 	O 	0.40230 0.14520 0.76300 -0.47900
O 	O 	0.25430 0.84560 0.76390 -0.48400
O 	O 	0.50930 0.50680 0.88030 -0.79500
O 	O 	0.37410 0.63960 0.99680 -0.73400
O 	O 	0.50850 0.50520 0.11860 -0.79200
O 	O 	0.59770 0.85480 0.26300 -0.47900
O 	O 	0.74570 0.15440 0.26390 -0.48400
O 	O 	0.49070 0.49320 0.38030 -0.79500
O 	O 	0.62590 0.36040 0.49680 -0.73400
O 	O 	0.49150 0.49480 0.61860 -0.79300
