data_crystal

_cell_length_a 11.38050
_cell_length_b 9.84060
_cell_length_c 14.50570
_cell_angle_alpha 90.00000
_cell_angle_beta  91.42900
_cell_angle_gamma 90.00000

_symmetry_space_group_name_	'P 1'
_symmetry_space_group_name_H-M	'P 1'

loop_
_symmetry_equiv_pos_as_xyz
  x,y,z

loop_
_atom_site_label
_atom_site_type_symbol
_atom_site_fract_x
_atom_site_fract_y
_atom_site_fract_z
_atom_site_charge
Mg	Mg	0.25647 0.41905 0.63437 1.47800
Mg	Mg	0.23929 0.60922 0.81060 1.48100
O 	O 	0.13109 0.50375 0.71982 -0.59400
O 	O 	0.96310 0.50172 0.63788 -0.32900
O 	O 	0.15722 0.24187 0.61046 -0.70800
O 	O 	0.01837 0.29229 0.50396 -0.57300
O 	O 	0.39986 0.34726 0.56333 -0.67300
O 	O 	0.39008 0.12511 0.59708 -0.56400
O 	O 	0.30748 0.29732 0.74687 -0.66800
O 	O 	0.31286 0.44012 0.86741 -0.47900
O 	O 	0.18277 0.52389 0.52466 -0.68200
O 	O 	0.34981 0.60195 0.46589 -0.52500
O 	O 	0.34829 0.57942 0.69661 -0.67100
O 	O 	0.51428 0.61049 0.61969 -0.49400
C 	C 	0.02053 0.51646 0.71069 0.22200
H 	H 	0.97920 0.53870 0.76310 0.06500
C 	C 	0.07663 0.21114 0.55138 0.61200
H 	H 	0.06020 0.11930 0.54320 -0.21200
C 	C 	0.43339 0.22355 0.55705 0.58000
H 	H 	0.49610 0.20600 0.51890 -0.15400
C 	C 	0.32876 0.32743 0.83125 0.56300
H 	H 	0.35890 0.25880 0.86900 -0.10600
C 	C 	0.24174 0.59788 0.46970 0.58800
H 	H 	0.19930 0.65340 0.42910 -0.14100
C 	C 	0.44822 0.63435 0.68384 0.58800
H 	H 	0.47360 0.69850 0.72700 -0.12500
Mg	Mg	0.24353 0.91905 0.86563 1.49100
Mg	Mg	0.26071 0.10922 0.68940 1.47500
O 	O 	0.36891 0.00375 0.78018 -0.74300
O 	O 	0.53690 0.00172 0.86212 -0.54100
O 	O 	0.34278 0.74187 0.88954 -0.62200
O 	O 	0.48163 0.79229 0.99604 -0.38800
O 	O 	0.10014 0.84726 0.93667 -0.57700
O 	O 	0.10992 0.62511 0.90292 -0.49900
O 	O 	0.19252 0.79732 0.75313 -0.64000
O 	O 	0.18714 0.94012 0.63259 -0.42700
O 	O 	0.31723 0.02389 0.97534 -0.55000
O 	O 	0.15019 0.10195 0.03411 -0.59900
O 	O 	0.15171 0.07942 0.80339 -0.67900
O 	O 	0.98572 0.11049 0.88031 -0.37300
C 	C 	0.47947 0.01646 0.78931 0.60900
H 	H 	0.52080 0.03870 0.73690 -0.16600
C 	C 	0.42337 0.71114 0.94862 0.55800
H 	H 	0.43980 0.61930 0.95680 -0.08400
C 	C 	0.06661 0.72355 0.94295 0.53800
H 	H 	0.00390 0.70600 0.98110 -0.09900
C 	C 	0.17124 0.82743 0.66875 0.56000
H 	H 	0.14110 0.75880 0.63100 -0.14500
C 	C 	0.25826 0.09788 0.03030 0.31800
H 	H 	0.30070 0.15340 0.07090 -0.10500
C 	C 	0.05178 0.13435 0.81616 0.42200
H 	H 	0.02640 0.19850 0.77300 -0.12600
Mg	Mg	0.74353 0.58095 0.36563 1.47900
Mg	Mg	0.76071 0.39078 0.18940 1.48200
O 	O 	0.86891 0.49625 0.28018 -0.76800
O 	O 	0.03690 0.49828 0.36212 -0.69300
O 	O 	0.84278 0.75813 0.38954 -0.63700
O 	O 	0.98163 0.70771 0.49604 -0.43500
O 	O 	0.60014 0.65274 0.43667 -0.65400
O 	O 	0.60992 0.87489 0.40292 -0.46100
O 	O 	0.69252 0.70268 0.25313 -0.67400
O 	O 	0.68714 0.55988 0.13259 -0.53800
O 	O 	0.81723 0.47611 0.47534 -0.64700
O 	O 	0.65019 0.39805 0.53411 -0.52200
O 	O 	0.65171 0.42058 0.30339 -0.67800
O 	O 	0.48572 0.38951 0.38031 -0.53100
C 	C 	0.97947 0.48354 0.28931 0.97600
H 	H 	0.02080 0.46130 0.23690 -0.34800
C 	C 	0.92337 0.78886 0.44862 0.55700
H 	H 	0.93980 0.88070 0.45680 -0.05600
C 	C 	0.56661 0.77645 0.44295 0.54600
H 	H 	0.50390 0.79400 0.48110 -0.09800
C 	C 	0.67124 0.67257 0.16875 0.58300
H 	H 	0.64110 0.74120 0.13100 -0.17600
C 	C 	0.75826 0.40212 0.53030 0.57300
H 	H 	0.80070 0.34660 0.57090 -0.12200
C 	C 	0.55178 0.36565 0.31616 0.59600
H 	H 	0.52640 0.30150 0.27300 -0.18500
Mg	Mg	0.75647 0.08095 0.13437 1.46300
Mg	Mg	0.73929 0.89078 0.31060 1.48600
O 	O 	0.63109 0.99625 0.21982 -0.61200
O 	O 	0.46310 0.99828 0.13788 -0.46100
O 	O 	0.65722 0.25813 0.11046 -0.72800
O 	O 	0.51837 0.20771 0.00396 -0.62700
O 	O 	0.89986 0.15274 0.06333 -0.74800
O 	O 	0.89008 0.37489 0.09708 -0.52500
O 	O 	0.80748 0.20268 0.24687 -0.70600
O 	O 	0.81286 0.05988 0.36741 -0.59500
O 	O 	0.68277 0.97611 0.02466 -0.73200
O 	O 	0.84981 0.89805 0.96589 -0.43500
O 	O 	0.84829 0.92058 0.19661 -0.65700
O 	O 	0.01428 0.88951 0.11969 -0.61300
C 	C 	0.52053 0.98354 0.21069 0.58200
H 	H 	0.47920 0.96130 0.26310 -0.11100
C 	C 	0.57663 0.28886 0.05138 0.61100
H 	H 	0.56020 0.38070 0.04320 -0.18200
C 	C 	0.93339 0.27645 0.05705 0.58600
H 	H 	0.99610 0.29400 0.01890 -0.15300
C 	C 	0.82876 0.17257 0.33125 0.58700
H 	H 	0.85890 0.24120 0.36900 -0.14100
C 	C 	0.74174 0.90212 0.96970 0.78200
H 	H 	0.69930 0.84660 0.92910 -0.14500
C 	C 	0.94822 0.86565 0.18384 0.73800
H 	H 	0.97360 0.80150 0.22700 -0.17400
Mg	Mg	0.00000 0.50000 0.50000 1.47400
Mg	Mg	0.50000 0.00000 -0.00000 1.45200
Mg	Mg	0.50000 0.50000 0.50000 1.48300
Mg	Mg	-0.00000 0.00000 -0.00000 1.44500
