data_crystal

_cell_length_a 9.83390
_cell_length_b 11.27900
_cell_length_c 14.76600
_cell_angle_alpha 91.56500
_cell_angle_beta  90.00000
_cell_angle_gamma 90.00000

_symmetry_space_group_name_	'P 1'
_symmetry_space_group_name_H-M	'P 1'

loop_
_symmetry_equiv_pos_as_xyz
  x,y,z

loop_
_atom_site_label
_atom_site_type_symbol
_atom_site_fract_x
_atom_site_fract_y
_atom_site_fract_z
_atom_site_charge
Mg	Mg	0.07498 0.75674 0.13493 1.46200
Mg	Mg	0.88305 0.73980 0.30602 1.48500
Mg	Mg	0.57498 0.74326 0.36507 1.47800
Mg	Mg	0.38305 0.76020 0.19398 1.48100
Mg	Mg	0.92502 0.24326 0.86507 1.49100
Mg	Mg	0.11695 0.26020 0.69398 1.47500
Mg	Mg	0.42502 0.25674 0.63493 1.47700
Mg	Mg	0.61695 0.23980 0.80602 1.48000
Mg	Mg	-0.00000 0.50000 -0.00000 1.45200
Mg	Mg	0.50000 0.00000 0.50000 1.47300
Mg	Mg	-0.00000 0.00000 -0.00000 1.44400
Mg	Mg	0.50000 0.50000 0.50000 1.48200
H 	H 	0.95150 0.47540 0.25860 -0.09600
H 	H 	0.38060 0.55910 0.04900 -0.16500
H 	H 	0.29220 0.99870 0.02310 -0.13600
H 	H 	0.23390 0.85810 0.36920 -0.12900
H 	H 	0.83830 0.69570 0.93190 -0.12800
H 	H 	0.78930 0.97620 0.22090 -0.15700
H 	H 	0.45150 0.02460 0.24140 -0.32000
H 	H 	0.88060 0.94090 0.45100 -0.04200
H 	H 	0.79220 0.50130 0.47690 -0.08600
H 	H 	0.73390 0.64190 0.13080 -0.16300
H 	H 	0.33830 0.80430 0.56810 -0.10700
H 	H 	0.28930 0.52380 0.27910 -0.17200
H 	H 	0.04850 0.52460 0.74140 -0.14600
H 	H 	0.61940 0.44090 0.95100 -0.07200
H 	H 	0.70780 0.00130 0.97690 -0.08800
H 	H 	0.76610 0.14190 0.63080 -0.13200
H 	H 	0.16170 0.30430 0.06810 -0.09600
H 	H 	0.21070 0.02380 0.77910 -0.11400
H 	H 	0.54850 0.97540 0.75860 0.07200
H 	H 	0.11940 0.05910 0.54900 -0.19600
H 	H 	0.20780 0.49870 0.52310 -0.13900
H 	H 	0.26610 0.35810 0.86920 -0.09500
H 	H 	0.66170 0.19570 0.43190 -0.12800
H 	H 	0.71070 0.47620 0.72090 -0.11000
C 	C 	0.97637 0.51835 0.20664 0.55700
C 	C 	0.28658 0.57734 0.05470 0.58100
C 	C 	0.27291 0.93529 0.06219 0.56200
C 	C 	0.16426 0.82723 0.33069 0.56800
C 	C 	0.89744 0.74077 0.97033 0.75000
C 	C 	0.85696 0.94925 0.17927 0.71200
C 	C 	0.47637 0.98165 0.29336 0.93200
C 	C 	0.78658 0.92266 0.44530 0.53600
C 	C 	0.77291 0.56471 0.43781 0.52700
C 	C 	0.66426 0.67277 0.16931 0.56200
C 	C 	0.39744 0.75923 0.52967 0.54500
C 	C 	0.35696 0.55075 0.32073 0.57100
C 	C 	0.02363 0.48165 0.79336 0.57900
C 	C 	0.71342 0.42266 0.94530 0.53500
C 	C 	0.72709 0.06471 0.93781 0.52000
C 	C 	0.83574 0.17277 0.66931 0.54000
C 	C 	0.10256 0.25923 0.02967 0.29900
C 	C 	0.14304 0.05075 0.82073 0.40000
C 	C 	0.52363 0.01835 0.70664 0.21200
C 	C 	0.21342 0.07734 0.55470 0.58000
C 	C 	0.22709 0.43529 0.56219 0.55600
C 	C 	0.33574 0.32723 0.83069 0.54600
C 	C 	0.60256 0.24077 0.47033 0.56100
C 	C 	0.64304 0.44925 0.67927 0.56400
O 	O 	0.98834 0.63033 0.21668 -0.60800
O 	O 	0.99420 0.46062 0.13534 -0.45600
O 	O 	0.25289 0.65797 0.11322 -0.72300
O 	O 	0.20675 0.52132 0.00500 -0.62200
O 	O 	0.14945 0.90021 0.06590 -0.74400
O 	O 	0.36973 0.89411 0.10491 -0.51000
O 	O 	0.19470 0.80809 0.24768 -0.70300
O 	O 	0.05175 0.80911 0.36567 -0.59400
O 	O 	0.97167 0.68346 0.02565 -0.72600
O 	O 	0.89633 0.84958 0.96283 -0.42200
O 	O 	0.91386 0.84973 0.19476 -0.65300
O 	O 	0.88233 0.01329 0.11489 -0.61200
O 	O 	0.48834 0.86967 0.28332 -0.75700
O 	O 	0.49420 0.03938 0.36466 -0.68400
O 	O 	0.75289 0.84203 0.38678 -0.63400
O 	O 	0.70675 0.97868 0.49500 -0.43300
O 	O 	0.64945 0.59979 0.43410 -0.65300
O 	O 	0.86973 0.60589 0.39509 -0.45100
O 	O 	0.69470 0.69191 0.25232 -0.67100
O 	O 	0.55175 0.69089 0.13433 -0.53400
O 	O 	0.47167 0.81654 0.47435 -0.64100
O 	O 	0.39633 0.65042 0.53717 -0.51000
O 	O 	0.41386 0.65027 0.30524 -0.67500
O 	O 	0.38233 0.48671 0.38511 -0.52500
O 	O 	0.01166 0.36967 0.78332 -0.73700
O 	O 	0.00580 0.53938 0.86466 -0.53300
O 	O 	0.74711 0.34203 0.88678 -0.62000
O 	O 	0.79325 0.47868 0.99500 -0.38600
O 	O 	0.85055 0.09979 0.93410 -0.57700
O 	O 	0.63027 0.10589 0.89509 -0.49100
O 	O 	0.80530 0.19191 0.75232 -0.63700
O 	O 	0.94825 0.19089 0.63433 -0.42200
O 	O 	0.02833 0.31654 0.97435 -0.54600
O 	O 	0.10367 0.15042 0.03717 -0.59000
O 	O 	0.08614 0.15027 0.80524 -0.67800
O 	O 	0.11767 0.98671 0.88511 -0.36300
O 	O 	0.51166 0.13033 0.71668 -0.59600
O 	O 	0.50580 0.96062 0.63534 -0.32700
O 	O 	0.24711 0.15797 0.61322 -0.70400
O 	O 	0.29325 0.02132 0.50500 -0.56900
O 	O 	0.35055 0.40021 0.56590 -0.67100
O 	O 	0.13027 0.39411 0.60491 -0.55000
O 	O 	0.30530 0.30809 0.74768 -0.66600
O 	O 	0.44825 0.30911 0.86567 -0.47900
O 	O 	0.52833 0.18346 0.52565 -0.67600
O 	O 	0.60367 0.34958 0.46283 -0.51400
O 	O 	0.58614 0.34973 0.69476 -0.66800
O 	O 	0.61767 0.51329 0.61489 -0.48900
