data_crystal

_cell_length_a 9.81840
_cell_length_b 11.29620
_cell_length_c 14.58470
_cell_angle_alpha 91.66200
_cell_angle_beta  90.00000
_cell_angle_gamma 90.00000

_symmetry_space_group_name_	'P 1'
_symmetry_space_group_name_H-M	'P 1'

loop_
_symmetry_equiv_pos_as_xyz
  x,y,z

loop_
_atom_site_label
_atom_site_type_symbol
_atom_site_fract_x
_atom_site_fract_y
_atom_site_fract_z
_atom_site_charge
Mg	Mg	0.57960 0.74355 0.36489 1.48000
Mg	Mg	0.38886 0.75983 0.19074 1.48300
Mg	Mg	0.07960 0.75645 0.13511 1.46500
Mg	Mg	0.88886 0.74017 0.30926 1.48600
Mg	Mg	0.42040 0.25645 0.63511 1.47700
Mg	Mg	0.61114 0.24017 0.80926 1.48000
Mg	Mg	0.92040 0.24355 0.86489 1.49200
Mg	Mg	0.11114 0.25983 0.69074 1.47500
Mg	Mg	0.50000 0.00000 0.50000 1.47400
Mg	Mg	-0.00000 0.50000 1.00000 1.46900
Mg	Mg	0.50000 0.50000 0.50000 1.48200
Mg	Mg	-0.00000 0.00000 -0.00000 1.45900
H 	H 	0.45500 0.02330 0.23810 -0.31200
H 	H 	0.88120 0.94640 0.45110 -0.04500
H 	H 	0.79510 0.50580 0.48300 -0.08800
H 	H 	0.74100 0.63930 0.13070 -0.13000
H 	H 	0.34260 0.80470 0.57000 -0.11300
H 	H 	0.29990 0.52240 0.27270 -0.16900
H 	H 	0.95500 0.47670 0.26190 -0.09200
H 	H 	0.38120 0.55360 0.04890 -0.12300
H 	H 	0.29510 0.99420 0.01700 -0.09100
H 	H 	0.24100 0.86070 0.36930 -0.12900
H 	H 	0.84260 0.69530 0.93000 -0.08000
H 	H 	0.79990 0.97760 0.22730 -0.14800
H 	H 	0.54500 0.97670 0.76190 0.05400
H 	H 	0.11880 0.05360 0.54890 -0.19900
H 	H 	0.20490 0.49420 0.51700 -0.14600
H 	H 	0.25900 0.36070 0.86930 -0.13200
H 	H 	0.65740 0.19530 0.43000 -0.12800
H 	H 	0.70010 0.47760 0.72730 -0.11700
H 	H 	0.04500 0.52330 0.73810 -0.16300
H 	H 	0.61880 0.44640 0.95110 -0.11900
H 	H 	0.70490 0.00580 0.98300 -0.14200
H 	H 	0.75900 0.13930 0.63070 -0.13400
H 	H 	0.15740 0.30470 0.07000 -0.15700
H 	H 	0.20010 0.02240 0.77270 -0.13100
C 	C 	0.47950 0.98060 0.29080 0.93400
C 	C 	0.78740 0.92660 0.44545 0.54500
C 	C 	0.77610 0.56870 0.44308 0.53900
C 	C 	0.67070 0.67030 0.16921 0.56000
C 	C 	0.40020 0.75930 0.53025 0.55800
C 	C 	0.36480 0.54990 0.31667 0.58100
C 	C 	0.97950 0.51940 0.20920 0.55500
C 	C 	0.28740 0.57340 0.05455 0.56900
C 	C 	0.27610 0.93130 0.05692 0.56200
C 	C 	0.17070 0.82970 0.33079 0.57400
C 	C 	0.90020 0.74070 0.96975 0.53200
C 	C 	0.86480 0.95010 0.18333 0.71200
C 	C 	0.52050 0.01940 0.70920 0.22700
C 	C 	0.21260 0.07340 0.55455 0.59200
C 	C 	0.22390 0.43130 0.55692 0.57000
C 	C 	0.32930 0.32970 0.83079 0.55900
C 	C 	0.59980 0.24070 0.46975 0.57300
C 	C 	0.63520 0.45010 0.68333 0.57400
C 	C 	0.02050 0.48060 0.79080 0.60300
C 	C 	0.71260 0.42660 0.94545 0.56800
C 	C 	0.72390 0.06870 0.94308 0.54600
C 	C 	0.82930 0.17030 0.66921 0.54500
C 	C 	0.09980 0.25930 0.03025 0.57200
C 	C 	0.13520 0.04990 0.81667 0.42300
O 	O 	0.49366 0.86918 0.28080 -0.75600
O 	O 	0.49487 0.03784 0.36337 -0.68200
O 	O 	0.75614 0.84407 0.38748 -0.63700
O 	O 	0.70692 0.98293 0.49466 -0.43700
O 	O 	0.65210 0.60075 0.43644 -0.65400
O 	O 	0.87386 0.61173 0.40264 -0.45900
O 	O 	0.70071 0.69184 0.25297 -0.66600
O 	O 	0.55777 0.68610 0.13357 -0.50200
O 	O 	0.47437 0.81606 0.47474 -0.64600
O 	O 	0.39675 0.65071 0.53694 -0.51600
O 	O 	0.41886 0.65031 0.30378 -0.67500
O 	O 	0.38926 0.48488 0.38133 -0.52500
O 	O 	0.99366 0.63082 0.21920 -0.60700
O 	O 	0.99487 0.46216 0.13663 -0.42500
O 	O 	0.25614 0.65593 0.11252 -0.70800
O 	O 	0.20692 0.51707 0.00534 -0.54300
O 	O 	0.15210 0.89925 0.06356 -0.70000
O 	O 	0.37386 0.88827 0.09736 -0.49000
O 	O 	0.20071 0.80816 0.24703 -0.70500
O 	O 	0.05777 0.81390 0.36643 -0.59300
O 	O 	0.97437 0.68394 0.02526 -0.57400
O 	O 	0.89675 0.84929 0.96306 -0.42400
O 	O 	0.91886 0.84969 0.19622 -0.64400
O 	O 	0.88926 0.01512 0.11867 -0.56000
O 	O 	0.50634 0.13082 0.71920 -0.60300
O 	O 	0.50513 0.96216 0.63663 -0.33700
O 	O 	0.24386 0.15593 0.61252 -0.70800
O 	O 	0.29308 0.01707 0.50534 -0.57400
O 	O 	0.34790 0.39925 0.56356 -0.67400
O 	O 	0.12614 0.38827 0.59736 -0.56400
O 	O 	0.29929 0.30816 0.74703 -0.67700
O 	O 	0.44223 0.31390 0.86643 -0.51400
O 	O 	0.52563 0.18394 0.52526 -0.68000
O 	O 	0.60325 0.34929 0.46306 -0.51400
O 	O 	0.58114 0.34969 0.69622 -0.67100
O 	O 	0.61074 0.51512 0.61867 -0.49600
O 	O 	0.00634 0.36918 0.78080 -0.74900
O 	O 	0.00513 0.53784 0.86337 -0.58500
O 	O 	0.74386 0.34407 0.88748 -0.63900
O 	O 	0.79308 0.48293 0.99466 -0.47100
O 	O 	0.84790 0.10075 0.93644 -0.62300
O 	O 	0.62614 0.11173 0.90264 -0.53100
O 	O 	0.79929 0.19184 0.75297 -0.63800
O 	O 	0.94223 0.18610 0.63357 -0.42200
O 	O 	0.02563 0.31606 0.97474 -0.73200
O 	O 	0.10325 0.15071 0.03694 -0.60100
O 	O 	0.08114 0.15031 0.80378 -0.69600
O 	O 	0.11074 0.98488 0.88133 -0.43400
