data_crystal

_cell_length_a 12.40420
_cell_length_b 18.92570
_cell_length_c 21.66980
_cell_angle_alpha 67.15500
_cell_angle_beta  86.94400
_cell_angle_gamma 84.89600

_symmetry_space_group_name_	'P 1'
_symmetry_space_group_name_H-M	'P 1'

loop_
_symmetry_equiv_pos_as_xyz
  x,y,z

loop_
_atom_site_label
_atom_site_type_symbol
_atom_site_fract_x
_atom_site_fract_y
_atom_site_fract_z
_atom_site_charge
Nd	Nd	0.26036 0.20340 0.26819 1.88300
Nd	Nd	0.25934 0.30456 0.76803 1.91500
O 	O 	0.41310 0.26220 0.20180 -0.45800
O 	O 	0.17340 0.30370 0.17168 -0.45800
O 	O 	0.28540 0.13320 0.19505 -0.48000
O 	O 	0.07930 0.30840 0.81510 -0.44600
O 	O 	0.31030 0.34180 0.85587 -0.41500
O 	O 	0.27770 0.18300 0.86538 -0.43700
N 	N 	0.13460 0.26030 0.34460 -0.20500
N 	N 	0.04960 0.23650 0.38770 -0.08500
N 	N 	0.03300 0.28140 0.42100 -0.14000
N 	N 	0.10700 0.33490 0.40190 -0.19400
N 	N 	0.30930 0.33110 0.27540 -0.19500
N 	N 	0.17370 0.07230 0.34610 -0.20000
N 	N 	0.20810 0.00140 0.39220 -0.11500
N 	N 	0.12350 0.95920 0.41000 -0.10300
N 	N 	0.03430 0.99790 0.37740 -0.11400
N 	N 	0.05870 0.18800 0.25140 -0.20400
N 	N 	0.36440 0.16970 0.38100 -0.20400
N 	N 	0.35890 0.19620 0.43030 -0.14000
N 	N 	0.43700 0.15980 0.47330 -0.14500
N 	N 	0.49600 0.10880 0.45200 -0.13600
N 	N 	0.41580 0.09260 0.30040 -0.20200
N 	N 	0.35890 0.42280 0.68510 -0.20900
N 	N 	0.45660 0.43360 0.65130 -0.06600
N 	N 	0.47120 0.50850 0.62280 -0.06700
N 	N 	0.38250 0.54850 0.63740 -0.10000
N 	N 	0.16540 0.44070 0.74110 -0.21200
N 	N 	0.39170 0.25170 0.69210 -0.20500
N 	N 	0.38590 0.22980 0.63930 -0.13200
N 	N 	0.48330 0.21090 0.62220 -0.12400
N 	N 	0.55700 0.22010 0.66160 -0.12300
N 	N 	0.46400 0.28650 0.79240 -0.20300
N 	N 	0.14370 0.33080 0.65990 -0.20600
N 	N 	0.11420 0.39240 0.60310 -0.12700
N 	N 	0.06910 0.36580 0.56290 -0.15100
N 	N 	0.06870 0.28700 0.59260 -0.19600
N 	N 	0.18280 0.18800 0.75640 -0.20900
C 	C 	0.16520 0.32010 0.35470 0.06400
C 	C 	0.25470 0.36140 0.31550 -0.01600
C 	C 	0.28580 0.43180 0.31750 -0.01600
H 	H 	0.24940 0.45260 0.34700 -0.00500
C 	C 	0.36670 0.46780 0.27730 -0.11800
H 	H 	0.38480 0.51570 0.27690 0.07500
C 	C 	0.42460 0.43650 0.23620 0.10700
C 	C 	0.51270 0.46920 0.19570 -0.17500
H 	H 	0.53730 0.51540 0.19560 0.09300
C 	C 	0.56360 0.43430 0.15610 0.10500
H 	H 	0.62240 0.45770 0.12790 -0.01200
C 	C 	0.53170 0.36570 0.15600 -0.23400
H 	H 	0.56870 0.34390 0.12730 0.09500
C 	C 	0.44640 0.32810 0.19700 0.22900
C 	C 	0.39330 0.36700 0.23670 -0.06800
C 	C 	0.06740 0.06770 0.33780 0.06800
C 	C 	0.00260 0.13100 0.29050 0.01100
C 	C 	0.89060 0.13070 0.28860 -0.01700
H 	H 	0.85390 0.08770 0.31770 0.02600
C 	C 	0.83540 0.19290 0.24440 -0.11700
H 	H 	0.75890 0.19370 0.24300 0.06600
C 	C 	0.88840 0.25630 0.20050 0.10800
C 	C 	0.83970 0.32370 0.15370 -0.19300
H 	H 	0.76320 0.32950 0.14950 0.08800
C 	C 	0.90130 0.38140 0.11380 0.12200
H 	H 	0.86620 0.42640 0.08180 -0.02400
C 	C 	0.01340 0.37680 0.11800 -0.25300
H 	H 	0.05310 0.41840 0.08960 0.10300
C 	C 	0.06740 0.31120 0.16390 0.21700
C 	C 	0.00340 0.25070 0.20610 -0.08500
C 	C 	0.44890 0.11620 0.39650 0.07900
C 	C 	0.47930 0.07510 0.35270 0.00900
C 	C 	0.56300 0.01700 0.36720 -0.09000
H 	H 	0.62340 0.01860 0.39530 0.03000
C 	C 	0.58350 0.97770 0.32530 -0.09900
H 	H 	0.65600 0.94960 0.32630 0.03100
C 	C 	0.51680 0.99490 0.26960 0.08600
C 	C 	0.52750 0.95560 0.22600 -0.17900
H 	H 	0.58170 0.91460 0.23270 0.08700
C 	C 	0.45800 0.97780 0.17360 0.12500
H 	H 	0.46560 0.95150 0.14400 -0.01700
C 	C 	0.37730 0.03660 0.16170 -0.26300
H 	H 	0.33190 0.05000 0.12430 0.09200
C 	C 	0.36220 0.07630 0.20400 0.22400
C 	C 	0.43340 0.05440 0.25820 -0.09000
C 	C 	0.31630 0.49320 0.67490 0.07600
C 	C 	0.21210 0.50470 0.70580 0.01200
C 	C 	0.16410 0.57740 0.69920 -0.06300
H 	H 	0.19970 0.62240 0.67390 0.04900
C 	C 	0.06770 0.58280 0.72880 -0.08600
H 	H 	0.03540 0.63180 0.72460 0.06000
C 	C 	0.01450 0.51670 0.76590 0.04900
C 	C 	0.91500 0.51510 0.79930 -0.13200
H 	H 	0.87790 0.56200 0.79750 0.07600
C 	C 	0.87000 0.44740 0.83450 0.05900
H 	H 	0.80130 0.44820 0.85590 0.00600
C 	C 	0.92350 0.37550 0.84000 -0.19400
H 	H 	0.89040 0.32910 0.86470 0.08700
C 	C 	0.02320 0.37350 0.80950 0.19900
C 	C 	0.06840 0.44450 0.77080 -0.05600
C 	C 	0.49890 0.24490 0.70280 0.08900
C 	C 	0.53970 0.26260 0.75720 0.02400
C 	C 	0.64910 0.25730 0.77010 -0.03900
H 	H 	0.70130 0.24100 0.74380 0.03300
C 	C 	0.68150 0.27600 0.82160 -0.09100
H 	H 	0.75600 0.27120 0.83160 0.05400
C 	C 	0.60400 0.30200 0.85890 0.07600
C 	C 	0.62910 0.32290 0.91280 -0.15700
H 	H 	0.70200 0.31890 0.92590 0.07400
C 	C 	0.54860 0.34840 0.94510 0.07900
H 	H 	0.56620 0.36130 0.98140 -0.01300
C 	C 	0.43980 0.35660 0.92710 -0.22400
H 	H 	0.38580 0.37640 0.95020 0.08000
C 	C 	0.41090 0.33590 0.87570 0.21900
C 	C 	0.49540 0.30700 0.84230 -0.05200
C 	C 	0.11420 0.26860 0.65200 0.03700
C 	C 	0.13410 0.19010 0.70330 -0.00500
C 	C 	0.10610 0.12510 0.69410 -0.04200
H 	H 	0.07130 0.13000 0.65450 -0.02800
C 	C 	0.12930 0.05500 0.74250 -0.10700
H 	H 	0.11210 0.01030 0.73630 0.05200
C 	C 	0.17890 0.04740 0.80210 0.07600
C 	C 	0.20410 0.97820 0.85620 -0.15900
H 	H 	0.18660 0.93110 0.85450 0.07800
C 	C 	0.25340 0.97750 0.91120 0.11100
H 	H 	0.27130 0.92990 0.94700 -0.01100
C 	C 	0.27790 0.04610 0.91560 -0.24500
H 	H 	0.31120 0.04420 0.95470 0.10800
C 	C 	0.25480 0.11640 0.86450 0.20900
C 	C 	0.20320 0.11740 0.80680 -0.06600
K 	K 	0.30643 0.25360 0.06544 0.62300
K 	K 	0.12530 0.18489 0.96863 0.63500
K 	K 	0.38755 0.88743 0.43567 0.63100
K 	K 	0.91448 0.20985 0.54283 0.62400
K 	K 	0.97537 0.44792 0.43381 0.62100
K 	K 	0.24770 0.22130 0.53510 0.49200
K 	K 	0.27640 0.27190 0.51080 0.49400
O 	O 	0.35760 0.16590 0.98330 -0.25400
C 	C 	0.46790 0.13650 0.99220 -0.05900
H 	H 	0.51300 0.17720 0.99060 0.03900
H 	H 	0.49110 0.11880 0.95630 0.05300
H 	H 	0.47550 0.09340 0.03560 0.02500
O 	O 	0.17120 0.32620 0.95490 -0.27000
C 	C 	0.12060 0.39890 0.94850 -0.09000
H 	H 	0.07550 0.41930 0.90870 0.06000
H 	H 	0.17610 0.43440 0.94410 0.05000
H 	H 	0.07520 0.39310 0.98840 0.03900
O 	O 	0.24330 0.80930 0.52900 -0.30600
C 	C 	0.19290 0.84750 0.57070 0.02700
O 	O 	0.81820 0.36570 0.50780 -0.29700
C 	C 	0.70800 0.35600 0.52180 -0.06100
H 	H 	0.66840 0.40630 0.51130 0.04300
H 	H 	0.68090 0.33070 0.49460 0.03200
H 	H 	0.69750 0.32410 0.56940 0.02800
O 	O 	0.99200 0.06040 0.99520 -0.41200
Nd	Nd	0.73964 0.79660 0.73181 1.88800
Nd	Nd	0.74066 0.69544 0.23197 1.91700
O 	O 	0.58690 0.73780 0.79820 -0.45600
O 	O 	0.82660 0.69630 0.82832 -0.44900
O 	O 	0.71460 0.86680 0.80495 -0.47000
O 	O 	0.92070 0.69160 0.18490 -0.45200
O 	O 	0.68970 0.65820 0.14413 -0.41500
O 	O 	0.72230 0.81700 0.13462 -0.43600
N 	N 	0.86540 0.73970 0.65540 -0.20400
N 	N 	0.95040 0.76350 0.61230 -0.08200
N 	N 	0.96700 0.71860 0.57900 -0.13500
N 	N 	0.89300 0.66510 0.59810 -0.19100
N 	N 	0.69070 0.66890 0.72460 -0.19500
N 	N 	0.82630 0.92770 0.65390 -0.19900
N 	N 	0.79190 0.99860 0.60780 -0.10400
N 	N 	0.87650 0.04080 0.59000 -0.11000
N 	N 	0.96570 0.00210 0.62260 -0.12000
N 	N 	0.94130 0.81200 0.74860 -0.21300
N 	N 	0.63560 0.83030 0.61900 -0.20400
N 	N 	0.64110 0.80380 0.56970 -0.14000
N 	N 	0.56300 0.84020 0.52670 -0.14300
N 	N 	0.50400 0.89120 0.54800 -0.13300
N 	N 	0.58420 0.90740 0.69960 -0.20400
N 	N 	0.64110 0.57720 0.31490 -0.20900
N 	N 	0.54340 0.56640 0.34870 -0.06600
N 	N 	0.52880 0.49150 0.37720 -0.06700
N 	N 	0.61750 0.45150 0.36260 -0.10100
N 	N 	0.83460 0.55930 0.25890 -0.20700
N 	N 	0.60830 0.74830 0.30790 -0.20500
N 	N 	0.61410 0.77020 0.36070 -0.13200
N 	N 	0.51670 0.78910 0.37780 -0.12400
N 	N 	0.44300 0.77990 0.33840 -0.12300
N 	N 	0.53600 0.71350 0.20760 -0.20400
N 	N 	0.85630 0.66920 0.34010 -0.20500
N 	N 	0.88580 0.60760 0.39690 -0.12500
N 	N 	0.93090 0.63420 0.43710 -0.14700
N 	N 	0.93130 0.71300 0.40740 -0.19300
N 	N 	0.81720 0.81200 0.24360 -0.20700
C 	C 	0.83480 0.67990 0.64530 0.06600
C 	C 	0.74530 0.63860 0.68450 -0.01500
C 	C 	0.71420 0.56820 0.68250 -0.01600
H 	H 	0.75060 0.54740 0.65300 -0.00300
C 	C 	0.63330 0.53220 0.72270 -0.11700
H 	H 	0.61520 0.48430 0.72310 0.07600
C 	C 	0.57540 0.56350 0.76380 0.10700
C 	C 	0.48730 0.53080 0.80430 -0.17500
H 	H 	0.46270 0.48460 0.80440 0.09300
C 	C 	0.43640 0.56570 0.84390 0.10600
H 	H 	0.37760 0.54230 0.87210 -0.01100
C 	C 	0.46830 0.63430 0.84400 -0.23300
H 	H 	0.43130 0.65610 0.87270 0.10000
C 	C 	0.55360 0.67190 0.80300 0.23100
C 	C 	0.60670 0.63300 0.76330 -0.06800
C 	C 	0.93260 0.93230 0.66220 0.07800
C 	C 	0.99740 0.86900 0.70950 0.04000
C 	C 	0.10940 0.86930 0.71140 -0.05900
H 	H 	0.14610 0.91230 0.68230 0.04200
C 	C 	0.16460 0.80710 0.75560 -0.07800
H 	H 	0.24110 0.80630 0.75700 0.05400
C 	C 	0.11160 0.74370 0.79950 0.06100
C 	C 	0.16030 0.67630 0.84630 -0.14800
H 	H 	0.23680 0.67050 0.85050 0.07500
C 	C 	0.09870 0.61860 0.88620 0.06700
H 	H 	0.13380 0.57360 0.91820 -0.00300
C 	C 	0.98660 0.62320 0.88200 -0.19900
H 	H 	0.94690 0.58160 0.91040 0.09500
C 	C 	0.93260 0.68880 0.83610 0.19500
C 	C 	0.99660 0.74930 0.79390 -0.04800
C 	C 	0.55110 0.88380 0.60350 0.08300
C 	C 	0.52070 0.92490 0.64730 0.00600
C 	C 	0.43700 0.98300 0.63280 -0.06600
H 	H 	0.37660 0.98140 0.60470 0.02800
C 	C 	0.41650 0.02230 0.67470 -0.11400
H 	H 	0.34400 0.05040 0.67370 0.03100
C 	C 	0.48320 0.00510 0.73040 0.05400
C 	C 	0.47250 0.04440 0.77400 -0.14500
H 	H 	0.41830 0.08540 0.76730 0.07500
C 	C 	0.54200 0.02220 0.82640 0.06600
H 	H 	0.53440 0.04850 0.85600 0.00100
C 	C 	0.62270 0.96340 0.83830 -0.20700
H 	H 	0.66810 0.95000 0.87570 0.08300
C 	C 	0.63780 0.92370 0.79600 0.20100
C 	C 	0.56660 0.94560 0.74180 -0.05800
C 	C 	0.68370 0.50680 0.32510 0.07900
C 	C 	0.78790 0.49530 0.29420 0.00500
C 	C 	0.83590 0.42260 0.30080 -0.04500
H 	H 	0.80030 0.37760 0.32610 0.04400
C 	C 	0.93230 0.41720 0.27120 -0.11200
H 	H 	0.96460 0.36820 0.27540 0.07500
C 	C 	0.98550 0.48330 0.23410 0.09400
C 	C 	0.08500 0.48490 0.20070 -0.18600
H 	H 	0.12210 0.43800 0.20250 0.09100
C 	C 	0.13000 0.55260 0.16550 0.09700
H 	H 	0.19870 0.55180 0.14410 -0.00900
C 	C 	0.07650 0.62450 0.16000 -0.24300
H 	H 	0.10960 0.67090 0.13530 0.09800
C 	C 	0.97680 0.62650 0.19050 0.23500
C 	C 	0.93160 0.55550 0.22920 -0.07700
C 	C 	0.50110 0.75510 0.29720 0.08900
C 	C 	0.46030 0.73740 0.24280 0.02400
C 	C 	0.35090 0.74270 0.22990 -0.03900
H 	H 	0.29870 0.75900 0.25620 0.03200
C 	C 	0.31850 0.72400 0.17840 -0.09100
H 	H 	0.24400 0.72880 0.16840 0.05100
C 	C 	0.39600 0.69800 0.14110 0.07500
C 	C 	0.37090 0.67710 0.08720 -0.15900
H 	H 	0.29800 0.68110 0.07410 0.07000
C 	C 	0.45140 0.65160 0.05490 0.07700
H 	H 	0.43380 0.63870 0.01860 -0.02000
C 	C 	0.56020 0.64340 0.07290 -0.22500
H 	H 	0.61420 0.62360 0.04980 0.07600
C 	C 	0.58910 0.66410 0.12430 0.21900
C 	C 	0.50460 0.69300 0.15770 -0.05200
C 	C 	0.88580 0.73140 0.34800 0.04000
C 	C 	0.86590 0.80990 0.29670 -0.00700
C 	C 	0.89390 0.87490 0.30590 -0.03300
H 	H 	0.92870 0.87000 0.34550 -0.02600
C 	C 	0.87070 0.94500 0.25750 -0.11800
H 	H 	0.88790 0.98970 0.26370 0.06500
C 	C 	0.82110 0.95260 0.19790 0.10000
C 	C 	0.79590 0.02180 0.14380 -0.18100
H 	H 	0.81340 0.06890 0.14550 0.08000
C 	C 	0.74660 0.02250 0.08880 0.08800
H 	H 	0.72870 0.07010 0.05300 -0.01300
C 	C 	0.72210 0.95390 0.08440 -0.21800
H 	H 	0.68880 0.95580 0.04530 0.09900
C 	C 	0.74520 0.88360 0.13550 0.20400
C 	C 	0.79680 0.88260 0.19320 -0.06800
K 	K 	0.69357 0.74640 0.93456 0.62900
K 	K 	0.87470 0.81511 0.03137 0.63500
K 	K 	0.61245 0.11257 0.56433 0.62900
K 	K 	0.08552 0.79015 0.45717 0.62200
K 	K 	0.02463 0.55208 0.56619 0.61800
K 	K 	0.75230 0.77870 0.46490 0.49300
K 	K 	0.72360 0.72810 0.48920 0.49500
O 	O 	0.64240 0.83410 0.01670 -0.24600
C 	C 	0.53210 0.86350 0.00780 -0.14400
H 	H 	0.48700 0.82280 0.00940 0.05700
H 	H 	0.50890 0.88120 0.04370 0.07600
H 	H 	0.52450 0.90660 0.96440 0.07000
O 	O 	0.82880 0.67380 0.04510 -0.27500
C 	C 	0.87940 0.60110 0.05150 -0.08500
H 	H 	0.92450 0.58070 0.09130 0.06000
H 	H 	0.82390 0.56560 0.05590 0.04600
H 	H 	0.92480 0.60690 0.01160 0.03300
O 	O 	0.75670 0.19070 0.47100 -0.30600
C 	C 	0.80710 0.15250 0.42930 0.02800
O 	O 	0.18180 0.63430 0.49220 -0.30200
C 	C 	0.29200 0.64400 0.47820 -0.05800
H 	H 	0.33160 0.59370 0.48870 0.04200
H 	H 	0.31910 0.66930 0.50540 0.03100
H 	H 	0.30250 0.67590 0.43060 0.02600
O 	O 	0.00800 0.93960 0.00480 -0.43000
C 	C 	-0.00000 0.00000 -0.00000 0.45500
