data_crystal

_cell_length_a 7.70700
_cell_length_b 9.68600
_cell_length_c 10.57000
_cell_angle_alpha 106.65000
_cell_angle_beta  105.25200
_cell_angle_gamma 100.68900

_symmetry_space_group_name_	'P 1'
_symmetry_space_group_name_H-M	'P 1'

loop_
_symmetry_equiv_pos_as_xyz
  x,y,z

loop_
_atom_site_label
_atom_site_type_symbol
_atom_site_fract_x
_atom_site_fract_y
_atom_site_fract_z
_atom_site_charge
Gd	Gd	0.75327 0.96817 0.54917 1.61100
Gd	Gd	0.24673 0.03183 0.45083 1.61100
H 	H 	0.18710 0.50880 0.03590 0.17600
H 	H 	0.46530 0.19780 0.95040 0.17100
H 	H 	0.45220 0.37620 0.34440 0.18300
H 	H 	0.15470 0.60110 0.26170 0.19300
H 	H 	0.22460 0.52720 0.37610 0.18200
H 	H 	0.36270 0.31940 0.78400 0.19700
H 	H 	0.23530 0.43000 0.81040 0.18700
H 	H 	0.63510 0.12520 0.12190 0.18700
H 	H 	0.73540 0.26530 0.26500 0.17900
H 	H 	0.81290 0.49120 0.96410 0.17600
H 	H 	0.53470 0.80220 0.04960 0.17100
H 	H 	0.54780 0.62380 0.65560 0.18300
H 	H 	0.84530 0.39890 0.73830 0.19300
H 	H 	0.77540 0.47280 0.62390 0.18200
H 	H 	0.63730 0.68060 0.21600 0.19700
H 	H 	0.76470 0.57000 0.18960 0.18700
H 	H 	0.36490 0.87480 0.87810 0.18700
H 	H 	0.26460 0.73470 0.73500 0.17900
C 	C 	0.31000 0.45890 0.20640 0.40600
C 	C 	0.25990 0.44780 0.06610 -0.45400
C 	C 	0.31370 0.35010 0.96990 0.41000
C 	C 	0.42520 0.26330 0.01520 -0.44400
C 	C 	0.47780 0.27200 0.15420 0.39500
C 	C 	0.41800 0.37050 0.24950 -0.43800
C 	C 	0.26250 0.57250 0.31120 -0.58400
C 	C 	0.42710 0.71270 0.39520 0.50600
C 	C 	0.25750 0.33490 0.81830 -0.58100
C 	C 	0.08670 0.20930 0.72650 0.47100
C 	C 	0.61410 0.19010 0.20440 -0.57200
C 	C 	0.55560 0.09250 0.28600 0.52800
C 	C 	0.69000 0.54110 0.79360 0.40600
C 	C 	0.74010 0.55220 0.93390 -0.45400
C 	C 	0.68630 0.64990 0.03010 0.41000
C 	C 	0.57480 0.73670 0.98480 -0.44400
C 	C 	0.52220 0.72800 0.84580 0.39500
C 	C 	0.58200 0.62950 0.75050 -0.43800
C 	C 	0.73750 0.42750 0.68880 -0.58400
C 	C 	0.57290 0.28730 0.60480 0.50600
C 	C 	0.74250 0.66510 0.18170 -0.58100
C 	C 	0.91330 0.79070 0.27350 0.47100
C 	C 	0.38590 0.80990 0.79560 -0.57200
C 	C 	0.44440 0.90750 0.71400 0.52800
O 	O 	0.40330 0.84300 0.41580 -0.54100
O 	O 	0.58810 0.70120 0.44430 -0.46600
O 	O 	0.06670 0.13940 0.59670 -0.53900
O 	O 	0.95810 0.17130 0.77260 -0.41900
O 	O 	0.39440 0.06670 0.28900 -0.48300
O 	O 	0.68540 0.04030 0.34280 -0.46100
O 	O 	0.59670 0.15700 0.58420 -0.54100
O 	O 	0.41190 0.29880 0.55570 -0.46600
O 	O 	0.93330 0.86060 0.40330 -0.53900
O 	O 	0.04190 0.82870 0.22740 -0.41900
O 	O 	0.60560 0.93330 0.71100 -0.48300
O 	O 	0.31460 0.95970 0.65720 -0.46100
