data_crystal

_cell_length_a 9.68790
_cell_length_b 23.69870
_cell_length_c 10.45690
_cell_angle_alpha 90.00000
_cell_angle_beta  90.00000
_cell_angle_gamma 90.00000

_symmetry_space_group_name_	'P 1'
_symmetry_space_group_name_H-M	'P 1'

loop_
_symmetry_equiv_pos_as_xyz
  x,y,z

loop_
_atom_site_label
_atom_site_type_symbol
_atom_site_fract_x
_atom_site_fract_y
_atom_site_fract_z
_atom_site_charge
Ni	Ni	0.61685 0.21248 0.50533 1.13600
Ni	Ni	0.64239 0.28640 0.99506 1.13000
Ni	Ni	0.38315 0.78752 0.50533 1.13600
Ni	Ni	0.35761 0.71360 0.99506 1.13000
Ni	Ni	0.11685 0.28752 0.49467 1.13500
Ni	Ni	0.14239 0.21360 0.00494 1.13000
Ni	Ni	0.88315 0.71248 0.49467 1.13500
Ni	Ni	0.85761 0.78640 0.00494 1.13000
H 	H 	0.74340 0.35500 0.59160 0.00400
H 	H 	0.78810 0.27890 0.47400 0.25300
H 	H 	0.54470 0.37830 0.47950 0.16300
H 	H 	0.50850 0.37690 0.62850 0.15700
H 	H 	0.57260 0.13470 0.92610 0.00800
H 	H 	0.69200 0.20780 0.84690 0.22400
H 	H 	0.70090 0.13630 0.12110 0.16800
H 	H 	0.54010 0.12620 0.14500 0.16300
H 	H 	0.51850 0.09740 0.40840 0.00400
H 	H 	0.38030 0.02290 0.47200 0.08100
H 	H 	0.31950 0.10330 0.80900 0.09500
H 	H 	0.45240 0.17690 0.73250 0.00800
H 	H 	0.23290 0.97710 0.63030 0.06000
H 	H 	0.24470 0.02080 0.87650 0.05800
H 	H 	0.99450 0.89180 0.10990 -0.00200
H 	H 	0.13470 0.96590 0.04490 0.07600
H 	H 	0.10750 0.90620 0.68260 0.08200
H 	H 	0.96320 0.83550 0.75770 0.02200
H 	H 	0.25660 0.64500 0.59160 0.00400
H 	H 	0.21190 0.72110 0.47400 0.25300
H 	H 	0.45530 0.62170 0.47950 0.16300
H 	H 	0.49150 0.62310 0.62850 0.15700
H 	H 	0.42740 0.86530 0.92610 0.00800
H 	H 	0.30800 0.79220 0.84690 0.22400
H 	H 	0.29910 0.86370 0.12110 0.16800
H 	H 	0.45990 0.87380 0.14500 0.16300
H 	H 	0.48150 0.90260 0.40840 0.00400
H 	H 	0.61970 0.97710 0.47200 0.08100
H 	H 	0.68050 0.89670 0.80900 0.09500
H 	H 	0.54760 0.82310 0.73250 0.00800
H 	H 	0.76710 0.02290 0.63030 0.06000
H 	H 	0.75530 0.97920 0.87650 0.05800
H 	H 	0.00550 0.10820 0.10990 -0.00200
H 	H 	0.86530 0.03410 0.04490 0.07600
H 	H 	0.89250 0.09380 0.68260 0.08200
H 	H 	0.03680 0.16450 0.75770 0.02200
H 	H 	0.24340 0.14500 0.40840 0.00400
H 	H 	0.28810 0.22110 0.52600 0.25300
H 	H 	0.04470 0.12170 0.52050 0.16300
H 	H 	0.00850 0.12310 0.37150 0.15700
H 	H 	0.07260 0.36530 0.07390 0.00800
H 	H 	0.19200 0.29220 0.15310 0.22300
H 	H 	0.20090 0.36370 0.87890 0.16800
H 	H 	0.04010 0.37380 0.85500 0.16200
H 	H 	0.01850 0.40260 0.59160 0.00300
H 	H 	0.88030 0.47710 0.52800 0.08100
H 	H 	0.81950 0.39670 0.19100 0.09500
H 	H 	0.95240 0.32310 0.26750 0.00800
H 	H 	0.73290 0.52290 0.36970 0.06000
H 	H 	0.74470 0.47920 0.12350 0.05800
H 	H 	0.49450 0.60820 0.89010 0.00100
H 	H 	0.63470 0.53410 0.95510 0.07400
H 	H 	0.60750 0.59380 0.31740 0.08200
H 	H 	0.46320 0.66450 0.24230 0.02200
H 	H 	0.75660 0.85500 0.40840 0.00400
H 	H 	0.71190 0.77890 0.52600 0.25300
H 	H 	0.95530 0.87830 0.52050 0.16300
H 	H 	0.99150 0.87690 0.37150 0.15700
H 	H 	0.92740 0.63470 0.07390 0.00800
H 	H 	0.80800 0.70780 0.15310 0.22300
H 	H 	0.79910 0.63630 0.87890 0.16800
H 	H 	0.95990 0.62620 0.85500 0.16200
H 	H 	0.98150 0.59740 0.59160 0.00300
H 	H 	0.11970 0.52290 0.52800 0.08100
H 	H 	0.18050 0.60330 0.19100 0.09500
H 	H 	0.04760 0.67690 0.26750 0.00800
H 	H 	0.26710 0.47710 0.36970 0.06000
H 	H 	0.25530 0.52080 0.12350 0.05800
H 	H 	0.50550 0.39180 0.89010 0.00100
H 	H 	0.36530 0.46590 0.95510 0.07400
H 	H 	0.39250 0.40620 0.31740 0.08200
H 	H 	0.53680 0.33550 0.24230 0.02200
C 	C 	0.66583 0.28993 0.70470 0.26100
C 	C 	0.67140 0.32504 0.58164 0.14300
C 	C 	0.53350 0.35310 0.55430 -0.41500
C 	C 	0.41470 0.31283 0.52753 0.46100
C 	C 	0.44250 0.20315 0.96825 0.26400
C 	C 	0.57910 0.16993 0.97849 0.12200
C 	C 	0.60890 0.15446 0.11710 -0.42000
C 	C 	0.60680 0.20354 0.21190 0.47500
C 	C 	0.47800 0.09847 0.49110 0.09100
C 	C 	0.39680 0.05341 0.52900 -0.16000
C 	C 	0.33940 0.05299 0.65080 0.11300
C 	C 	0.36020 0.10079 0.72650 -0.15300
C 	C 	0.44040 0.14449 0.68030 0.09200
C 	C 	0.25830 0.00406 0.69330 -0.08600
C 	C 	0.21750 0.99433 0.81310 -0.07600
C 	C 	0.01560 0.89549 0.02150 0.08800
C 	C 	0.10030 0.93989 0.98350 -0.15100
C 	C 	0.13410 0.94596 0.85510 0.10500
C 	C 	0.08350 0.90494 0.77060 -0.14100
C 	C 	0.99820 0.86253 0.81650 0.07700
C 	C 	0.33417 0.71007 0.70470 0.26100
C 	C 	0.32860 0.67496 0.58164 0.14300
C 	C 	0.46650 0.64690 0.55430 -0.41500
C 	C 	0.58530 0.68717 0.52753 0.46100
C 	C 	0.55750 0.79685 0.96825 0.26400
C 	C 	0.42090 0.83007 0.97849 0.12200
C 	C 	0.39110 0.84554 0.11710 -0.42000
C 	C 	0.39320 0.79646 0.21190 0.47500
C 	C 	0.52200 0.90153 0.49110 0.09100
C 	C 	0.60320 0.94659 0.52900 -0.16000
C 	C 	0.66060 0.94701 0.65080 0.11300
C 	C 	0.63980 0.89921 0.72650 -0.15300
C 	C 	0.55960 0.85551 0.68030 0.09200
C 	C 	0.74170 0.99594 0.69330 -0.08600
C 	C 	0.78250 0.00567 0.81310 -0.07600
C 	C 	0.98440 0.10451 0.02150 0.08800
C 	C 	0.89970 0.06011 0.98350 -0.15100
C 	C 	0.86590 0.05404 0.85510 0.10500
C 	C 	0.91650 0.09506 0.77060 -0.14100
C 	C 	0.00180 0.13747 0.81650 0.07700
C 	C 	0.16583 0.21007 0.29530 0.26100
C 	C 	0.17140 0.17496 0.41836 0.14300
C 	C 	0.03350 0.14690 0.44570 -0.41600
C 	C 	0.91470 0.18717 0.47247 0.46100
C 	C 	0.94250 0.29685 0.03175 0.26400
C 	C 	0.07910 0.33007 0.02151 0.12200
C 	C 	0.10890 0.34554 0.88290 -0.42000
C 	C 	0.10680 0.29646 0.78810 0.47500
C 	C 	0.97800 0.40153 0.50890 0.09300
C 	C 	0.89680 0.44659 0.47100 -0.16100
C 	C 	0.83940 0.44701 0.34920 0.11300
C 	C 	0.86020 0.39921 0.27350 -0.15400
C 	C 	0.94040 0.35551 0.31970 0.09300
C 	C 	0.75830 0.49594 0.30670 -0.08500
C 	C 	0.71750 0.50567 0.18690 -0.07600
C 	C 	0.51560 0.60451 0.97850 0.08300
C 	C 	0.60030 0.56011 0.01650 -0.14700
C 	C 	0.63410 0.55404 0.14490 0.10400
C 	C 	0.58350 0.59506 0.22940 -0.14100
C 	C 	0.49820 0.63747 0.18350 0.07800
C 	C 	0.83417 0.78993 0.29530 0.26100
C 	C 	0.82860 0.82504 0.41836 0.14300
C 	C 	0.96650 0.85310 0.44570 -0.41600
C 	C 	0.08530 0.81283 0.47247 0.46100
C 	C 	0.05750 0.70315 0.03175 0.26400
C 	C 	0.92090 0.66993 0.02151 0.12200
C 	C 	0.89110 0.65446 0.88290 -0.42000
C 	C 	0.89320 0.70354 0.78810 0.47500
C 	C 	0.02200 0.59847 0.50890 0.09300
C 	C 	0.10320 0.55341 0.47100 -0.16100
C 	C 	0.16060 0.55299 0.34920 0.11300
C 	C 	0.13980 0.60079 0.27350 -0.15400
C 	C 	0.05960 0.64449 0.31970 0.09300
C 	C 	0.24170 0.50406 0.30670 -0.08500
C 	C 	0.28250 0.49433 0.18690 -0.07600
C 	C 	0.48440 0.39549 0.97850 0.08300
C 	C 	0.39970 0.43989 0.01650 -0.14700
C 	C 	0.36590 0.44596 0.14490 0.10400
C 	C 	0.41650 0.40494 0.22940 -0.14100
C 	C 	0.50180 0.36253 0.18350 0.07800
N 	N 	0.50242 0.14354 0.56539 -0.22300
N 	N 	0.96265 0.85784 0.94037 -0.21700
N 	N 	0.49758 0.85646 0.56539 -0.22300
N 	N 	0.03735 0.14216 0.94037 -0.21700
N 	N 	0.00242 0.35646 0.43461 -0.22400
N 	N 	0.46265 0.64216 0.05963 -0.21500
N 	N 	0.99758 0.64354 0.43461 -0.22400
N 	N 	0.53735 0.35784 0.05963 -0.21500
O 	O 	0.66620 0.23649 0.69221 -0.38500
O 	O 	0.66056 0.31677 0.80759 -0.36500
O 	O 	0.70526 0.29103 0.47329 -0.48200
O 	O 	0.43820 0.26014 0.52419 -0.44900
O 	O 	0.29797 0.33419 0.51167 -0.42900
O 	O 	0.45160 0.25491 0.94948 -0.37000
O 	O 	0.33162 0.17549 0.98157 -0.36700
O 	O 	0.69219 0.20373 0.93320 -0.43300
O 	O 	0.63256 0.25289 0.17623 -0.42300
O 	O 	0.58056 0.18890 0.32473 -0.43600
O 	O 	0.33380 0.76351 0.69221 -0.38500
O 	O 	0.33944 0.68323 0.80759 -0.36500
O 	O 	0.29474 0.70897 0.47329 -0.48200
O 	O 	0.56180 0.73986 0.52419 -0.44900
O 	O 	0.70203 0.66581 0.51167 -0.42900
O 	O 	0.54840 0.74509 0.94948 -0.37000
O 	O 	0.66838 0.82451 0.98157 -0.36700
O 	O 	0.30781 0.79627 0.93320 -0.43300
O 	O 	0.36744 0.74711 0.17623 -0.42300
O 	O 	0.41944 0.81110 0.32473 -0.43600
O 	O 	0.16620 0.26351 0.30779 -0.38600
O 	O 	0.16056 0.18323 0.19241 -0.36500
O 	O 	0.20526 0.20897 0.52671 -0.48200
O 	O 	0.93820 0.23986 0.47581 -0.44800
O 	O 	0.79797 0.16581 0.48833 -0.42900
O 	O 	0.95160 0.24509 0.05052 -0.37000
O 	O 	0.83162 0.32451 0.01843 -0.36700
O 	O 	0.19219 0.29627 0.06680 -0.43300
O 	O 	0.13256 0.24711 0.82377 -0.42300
O 	O 	0.08056 0.31110 0.67527 -0.43600
O 	O 	0.83380 0.73649 0.30779 -0.38600
O 	O 	0.83944 0.81677 0.19241 -0.36500
O 	O 	0.79474 0.79103 0.52671 -0.48200
O 	O 	0.06180 0.76014 0.47581 -0.44800
O 	O 	0.20203 0.83419 0.48833 -0.42900
O 	O 	0.04840 0.75491 0.05052 -0.37000
O 	O 	0.16838 0.67549 0.01843 -0.36700
O 	O 	0.80781 0.70373 0.06680 -0.43300
O 	O 	0.86744 0.75289 0.82377 -0.42300
O 	O 	0.91944 0.68890 0.67527 -0.43600
