data_crystal

_cell_length_a 11.96100
_cell_length_b 17.56600
_cell_length_c 18.51400
_cell_angle_alpha 116.65000
_cell_angle_beta  90.00000
_cell_angle_gamma 90.00000

_symmetry_space_group_name_	'P 1'
_symmetry_space_group_name_H-M	'P 1'

loop_
_symmetry_equiv_pos_as_xyz
  x,y,z

loop_
_atom_site_label
_atom_site_type_symbol
_atom_site_fract_x
_atom_site_fract_y
_atom_site_fract_z
_atom_site_charge
Mg	Mg	0.58148 0.71276 0.97254 1.47500
Mg	Mg	0.44760 0.71219 0.80047 1.46400
Mg	Mg	0.82122 0.83418 0.11854 1.46000
Mg	Mg	0.08148 0.28724 0.52746 1.47500
Mg	Mg	0.94760 0.28781 0.69953 1.46400
Mg	Mg	0.32122 0.16582 0.38146 1.46000
Mg	Mg	0.41852 0.28724 0.02746 1.47400
Mg	Mg	0.55240 0.28781 0.19953 1.46300
Mg	Mg	0.17878 0.16582 0.88146 1.45900
Mg	Mg	0.91852 0.71276 0.47254 1.47400
Mg	Mg	0.05240 0.71219 0.30047 1.46300
Mg	Mg	0.67878 0.83418 0.61854 1.45900
H 	H 	0.69100 0.70030 0.72650 -0.02700
H 	H 	0.90160 0.52860 0.56810 0.00900
H 	H 	0.78750 0.49930 0.75740 -0.01200
H 	H 	0.65740 0.82540 0.87960 -0.01300
H 	H 	0.68200 0.05400 0.07130 0.00700
H 	H 	0.54490 0.03310 0.86610 -0.01100
H 	H 	0.19100 0.29970 0.77350 -0.02700
H 	H 	0.40160 0.47140 0.93190 0.00800
H 	H 	0.28750 0.50070 0.74260 -0.01100
H 	H 	0.15740 0.17460 0.62040 -0.01000
H 	H 	0.18200 0.94600 0.42870 0.00700
H 	H 	0.04490 0.96690 0.63390 -0.01000
H 	H 	0.30900 0.29970 0.27350 -0.02700
H 	H 	0.09840 0.47140 0.43190 0.00900
H 	H 	0.21250 0.50070 0.24260 -0.01200
H 	H 	0.34260 0.17460 0.12040 -0.01300
H 	H 	0.31800 0.94600 0.92870 0.00700
H 	H 	0.45510 0.96690 0.13390 -0.01100
H 	H 	0.80900 0.70030 0.22650 -0.02700
H 	H 	0.59840 0.52860 0.06810 0.00800
H 	H 	0.71250 0.49930 0.25740 -0.01100
H 	H 	0.84260 0.82540 0.37960 -0.01000
H 	H 	0.81800 0.05400 0.57130 0.00700
H 	H 	0.95510 0.03310 0.36610 -0.01000
C 	C 	0.79730 0.62320 0.64060 -0.21100
C 	C 	0.73390 0.65120 0.71030 0.12200
C 	C 	0.73360 0.60680 0.75630 -0.21800
C 	C 	0.85710 0.54690 0.61400 0.13600
C 	C 	0.67560 0.64310 0.83620 0.39800
C 	C 	0.79490 0.67580 0.59510 0.46400
C 	C 	0.78990 0.53030 0.72780 0.13800
C 	C 	0.85030 0.49820 0.65600 -0.21500
C 	C 	0.90230 0.41210 0.62750 0.46600
C 	C 	0.72630 0.89270 0.03210 0.37500
C 	C 	0.64590 0.88390 0.90330 0.11100
C 	C 	0.67730 0.93390 0.98370 -0.18800
C 	C 	0.59750 0.92100 0.85870 -0.23000
C 	C 	0.65880 0.02040 0.01850 0.11800
C 	C 	0.57320 0.15140 0.02130 0.46900
C 	C 	0.57780 0.00810 0.89570 0.14800
C 	C 	0.60590 0.05860 0.97590 -0.19900
C 	C 	0.56420 0.86370 0.77230 0.46600
C 	C 	0.29730 0.37680 0.85940 -0.21100
C 	C 	0.23390 0.34880 0.78970 0.12200
C 	C 	0.23360 0.39320 0.74370 -0.21800
C 	C 	0.35710 0.45310 0.88600 0.13600
C 	C 	0.17560 0.35690 0.66380 0.39800
C 	C 	0.29490 0.32420 0.90490 0.46400
C 	C 	0.28990 0.46970 0.77220 0.13800
C 	C 	0.35030 0.50180 0.84400 -0.21500
C 	C 	0.40230 0.58790 0.87250 0.46600
C 	C 	0.22630 0.10730 0.46790 0.36900
C 	C 	0.14590 0.11610 0.59670 0.10500
C 	C 	0.17730 0.06610 0.51630 -0.17900
C 	C 	0.09750 0.07900 0.64130 -0.22000
C 	C 	0.15880 0.97960 0.48150 0.12000
C 	C 	0.07320 0.84860 0.47870 0.47700
C 	C 	0.07780 0.99190 0.60430 0.13800
C 	C 	0.10590 0.94140 0.52410 -0.20400
C 	C 	0.06420 0.13630 0.72770 0.46300
C 	C 	0.20270 0.37680 0.35940 -0.21100
C 	C 	0.26610 0.34880 0.28970 0.12200
C 	C 	0.26640 0.39320 0.24370 -0.21800
C 	C 	0.14290 0.45310 0.38600 0.13600
C 	C 	0.32440 0.35690 0.16380 0.39800
C 	C 	0.20510 0.32420 0.40490 0.46400
C 	C 	0.21010 0.46970 0.27220 0.13800
C 	C 	0.14970 0.50180 0.34400 -0.21500
C 	C 	0.09770 0.58790 0.37250 0.46600
C 	C 	0.27370 0.10730 0.96790 0.37500
C 	C 	0.35410 0.11610 0.09670 0.11100
C 	C 	0.32270 0.06610 0.01630 -0.18800
C 	C 	0.40250 0.07900 0.14130 -0.23000
C 	C 	0.34120 0.97960 0.98150 0.11800
C 	C 	0.42680 0.84860 0.97870 0.46900
C 	C 	0.42220 0.99190 0.10430 0.14800
C 	C 	0.39410 0.94140 0.02410 -0.19900
C 	C 	0.43580 0.13630 0.22770 0.46600
C 	C 	0.70270 0.62320 0.14060 -0.21100
C 	C 	0.76610 0.65120 0.21030 0.12200
C 	C 	0.76640 0.60680 0.25630 -0.21800
C 	C 	0.64290 0.54690 0.11400 0.13600
C 	C 	0.82440 0.64310 0.33620 0.39800
C 	C 	0.70510 0.67580 0.09510 0.46400
C 	C 	0.71010 0.53030 0.22780 0.13800
C 	C 	0.64970 0.49820 0.15600 -0.21500
C 	C 	0.59770 0.41210 0.12750 0.46600
C 	C 	0.77370 0.89270 0.53210 0.36900
C 	C 	0.85410 0.88390 0.40330 0.10500
C 	C 	0.82270 0.93390 0.48370 -0.17900
C 	C 	0.90250 0.92100 0.35870 -0.22000
C 	C 	0.84120 0.02040 0.51850 0.12000
C 	C 	0.92680 0.15140 0.52130 0.47700
C 	C 	0.92220 0.00810 0.39570 0.13800
C 	C 	0.89410 0.05860 0.47590 -0.20400
C 	C 	0.93580 0.86370 0.27230 0.46300
O 	O 	0.59460 0.69509 0.84912 -0.64300
O 	O 	0.88250 0.67904 0.55955 -0.53300
O 	O 	0.70970 0.62700 0.89142 -0.43400
O 	O 	0.96570 0.38531 0.56658 -0.49000
O 	O 	0.70520 0.71430 0.59810 -0.58400
O 	O 	0.87710 0.37210 0.66650 -0.56900
O 	O 	0.71340 0.81324 0.00975 -0.58200
O 	O 	0.78220 0.93730 0.09433 -0.49400
O 	O 	0.59440 0.18677 0.09475 -0.55300
O 	O 	0.52400 0.18513 0.98263 -0.52100
O 	O 	0.52090 0.79343 0.75730 -0.54200
O 	O 	0.58370 0.88910 0.71944 -0.55700
O 	O 	0.09460 0.30491 0.65088 -0.64200
O 	O 	0.38250 0.32096 0.94045 -0.53200
O 	O 	0.20970 0.37300 0.60858 -0.43300
O 	O 	0.46570 0.61469 0.93342 -0.49100
O 	O 	0.20520 0.28570 0.90190 -0.58300
O 	O 	0.37710 0.62790 0.83350 -0.56900
O 	O 	0.21340 0.18676 0.49025 -0.58200
O 	O 	0.28220 0.06270 0.40567 -0.49500
O 	O 	0.09440 0.81323 0.40525 -0.55500
O 	O 	0.02400 0.81487 0.51737 -0.52600
O 	O 	0.02090 0.20657 0.74270 -0.54000
O 	O 	0.08370 0.11090 0.78056 -0.55400
O 	O 	0.40540 0.30491 0.15088 -0.64300
O 	O 	0.11750 0.32096 0.44045 -0.53300
O 	O 	0.29030 0.37300 0.10858 -0.43400
O 	O 	0.03430 0.61469 0.43342 -0.49000
O 	O 	0.29480 0.28570 0.40190 -0.58400
O 	O 	0.12290 0.62790 0.33350 -0.56900
O 	O 	0.28660 0.18676 0.99025 -0.58200
O 	O 	0.21780 0.06270 0.90567 -0.49400
O 	O 	0.40560 0.81323 0.90525 -0.55300
O 	O 	0.47600 0.81487 0.01737 -0.52100
O 	O 	0.47910 0.20657 0.24270 -0.54200
O 	O 	0.41630 0.11090 0.28056 -0.55700
O 	O 	0.90540 0.69509 0.34912 -0.64200
O 	O 	0.61750 0.67904 0.05955 -0.53200
O 	O 	0.79030 0.62700 0.39142 -0.43300
O 	O 	0.53430 0.38531 0.06658 -0.49100
O 	O 	0.79480 0.71430 0.09810 -0.58300
O 	O 	0.62290 0.37210 0.16650 -0.56900
O 	O 	0.78660 0.81324 0.50975 -0.58200
O 	O 	0.71780 0.93730 0.59433 -0.49500
O 	O 	0.90560 0.18677 0.59475 -0.55500
O 	O 	0.97600 0.18513 0.48263 -0.52600
O 	O 	0.97910 0.79343 0.25730 -0.54000
O 	O 	0.91630 0.88910 0.21944 -0.55400
