data_crystal

_cell_length_a 17.49000
_cell_length_b 11.94000
_cell_length_c 18.46000
_cell_angle_alpha 90.00000
_cell_angle_beta  116.87000
_cell_angle_gamma 90.00000

_symmetry_space_group_name_	'P 1'
_symmetry_space_group_name_H-M	'P 1'

loop_
_symmetry_equiv_pos_as_xyz
  x,y,z

loop_
_atom_site_label
_atom_site_type_symbol
_atom_site_fract_x
_atom_site_fract_y
_atom_site_fract_z
_atom_site_charge
Mg	Mg	0.28708 0.41796 0.02756 1.47500
Mg	Mg	0.28782 0.94757 0.69956 1.46400
Mg	Mg	0.83410 0.82095 0.11824 1.45900
O 	O 	0.32084 0.38236 0.94021 -0.53800
O 	O 	0.30523 0.09463 0.65073 -0.64900
O 	O 	0.18511 0.52388 0.98268 -0.52500
O 	O 	0.18690 0.59469 0.09496 -0.55600
O 	O 	0.37298 0.20991 0.60880 -0.44000
O 	O 	0.79333 0.52092 0.75711 -0.55000
O 	O 	0.81334 0.71296 0.00971 -0.59300
O 	O 	0.62800 0.37740 0.83336 -0.57300
O 	O 	0.61487 0.46593 0.93328 -0.49900
O 	O 	0.28638 0.20502 0.90222 -0.58600
O 	O 	0.93735 0.78268 0.09400 -0.50200
O 	O 	0.88920 0.58318 0.71959 -0.56300
C 	C 	0.92120 0.59721 0.85843 -0.24900
C 	C 	0.15111 0.57296 0.02097 0.47900
C 	C 	0.89257 0.72701 0.03188 0.39500
C 	C 	0.86364 0.56365 0.77196 0.48600
C 	C 	0.35660 0.17603 0.66372 0.41600
C 	C 	0.05849 0.60630 0.97590 -0.21300
C 	C 	0.93325 0.67810 0.98290 -0.20600
C 	C 	0.58857 0.40301 0.87298 0.48000
C 	C 	0.39302 0.23342 0.74356 -0.23300
C 	C 	0.50164 0.34983 0.84369 -0.22400
C 	C 	0.37721 0.29676 0.85957 -0.22000
C 	C 	0.32395 0.29537 0.90488 0.47600
C 	C 	0.00828 0.57704 0.89500 0.16400
H 	H 	0.03350 0.54380 0.86550 -0.01600
C 	C 	0.88428 0.64669 0.90318 0.13200
H 	H 	0.82540 0.65890 0.87890 -0.01900
C 	C 	0.02067 0.65894 0.01854 0.13400
H 	H 	0.05450 0.68170 0.07180 0.00200
C 	C 	0.34881 0.23327 0.78974 0.13600
H 	H 	0.29960 0.19000 0.77350 -0.03100
C 	C 	0.45323 0.35727 0.88609 0.14600
H 	H 	0.47150 0.40240 0.93190 0.00600
C 	C 	0.47000 0.28993 0.77187 0.15200
H 	H 	0.50110 0.28770 0.74220 -0.01500
Mg	Mg	0.71292 0.91796 0.47244 1.47500
Mg	Mg	0.71218 0.44757 0.80044 1.46400
Mg	Mg	0.16590 0.32095 0.38176 1.45900
O 	O 	0.67916 0.88236 0.55979 -0.53800
O 	O 	0.69477 0.59463 0.84927 -0.65000
O 	O 	0.81489 0.02388 0.51732 -0.53000
O 	O 	0.81310 0.09469 0.40504 -0.55800
O 	O 	0.62702 0.70991 0.89120 -0.44100
O 	O 	0.20667 0.02092 0.74289 -0.54800
O 	O 	0.18666 0.21296 0.49029 -0.59300
O 	O 	0.37200 0.87740 0.66664 -0.57300
O 	O 	0.38513 0.96593 0.56672 -0.49800
O 	O 	0.71362 0.70502 0.59778 -0.58700
O 	O 	0.06265 0.28268 0.40600 -0.50300
O 	O 	0.11080 0.08318 0.78041 -0.56000
C 	C 	0.07880 0.09721 0.64157 -0.23700
C 	C 	0.84889 0.07296 0.47903 0.48700
C 	C 	0.10743 0.22701 0.46812 0.38800
C 	C 	0.13636 0.06365 0.72804 0.48300
C 	C 	0.64340 0.67603 0.83628 0.41600
C 	C 	0.94151 0.10630 0.52410 -0.21900
C 	C 	0.06675 0.17810 0.51710 -0.19700
C 	C 	0.41143 0.90301 0.62702 0.48000
C 	C 	0.60698 0.73342 0.75644 -0.23400
C 	C 	0.49836 0.84983 0.65631 -0.22400
C 	C 	0.62279 0.79676 0.64043 -0.22000
C 	C 	0.67605 0.79537 0.59512 0.47600
C 	C 	0.99172 0.07704 0.60500 0.15400
H 	H 	0.96650 0.04380 0.63450 -0.01500
C 	C 	0.11572 0.14669 0.59682 0.12500
H 	H 	0.17460 0.15890 0.62110 -0.01600
C 	C 	0.97933 0.15894 0.48146 0.13600
H 	H 	0.94550 0.18170 0.42820 0.00200
C 	C 	0.65119 0.73327 0.71026 0.13600
H 	H 	0.70040 0.69000 0.72650 -0.03100
C 	C 	0.54677 0.85727 0.61391 0.14600
H 	H 	0.52850 0.90240 0.56810 0.00600
C 	C 	0.53000 0.78993 0.72813 0.15200
H 	H 	0.49890 0.78770 0.75780 -0.01500
Mg	Mg	0.71292 0.58204 0.97244 1.47500
Mg	Mg	0.71218 0.05243 0.30044 1.46400
Mg	Mg	0.16590 0.17905 0.88176 1.45900
O 	O 	0.67916 0.61764 0.05979 -0.53800
O 	O 	0.69477 0.90537 0.34927 -0.64900
O 	O 	0.81489 0.47612 0.01732 -0.52500
O 	O 	0.81310 0.40531 0.90504 -0.55600
O 	O 	0.62702 0.79009 0.39120 -0.44000
O 	O 	0.20667 0.47908 0.24289 -0.55000
O 	O 	0.18666 0.28704 0.99029 -0.59300
O 	O 	0.37200 0.62260 0.16664 -0.57300
O 	O 	0.38513 0.53407 0.06672 -0.49900
O 	O 	0.71362 0.79498 0.09778 -0.58600
O 	O 	0.06265 0.21732 0.90600 -0.50200
O 	O 	0.11080 0.41682 0.28041 -0.56300
C 	C 	0.07880 0.40279 0.14157 -0.24900
C 	C 	0.84889 0.42704 0.97903 0.47900
C 	C 	0.10743 0.27299 0.96812 0.39500
C 	C 	0.13636 0.43635 0.22804 0.48600
C 	C 	0.64340 0.82397 0.33628 0.41600
C 	C 	0.94151 0.39370 0.02410 -0.21300
C 	C 	0.06675 0.32190 0.01710 -0.20600
C 	C 	0.41143 0.59699 0.12702 0.48000
C 	C 	0.60698 0.76658 0.25644 -0.23300
C 	C 	0.49836 0.65017 0.15631 -0.22400
C 	C 	0.62279 0.70324 0.14043 -0.22000
C 	C 	0.67605 0.70463 0.09512 0.47600
C 	C 	0.99172 0.42296 0.10500 0.16400
H 	H 	0.96650 0.45620 0.13450 -0.01600
C 	C 	0.11572 0.35331 0.09682 0.13200
H 	H 	0.17460 0.34110 0.12110 -0.01900
C 	C 	0.97933 0.34106 0.98146 0.13400
H 	H 	0.94550 0.31830 0.92820 0.00200
C 	C 	0.65119 0.76673 0.21026 0.13600
H 	H 	0.70040 0.81000 0.22650 -0.03100
C 	C 	0.54677 0.64273 0.11391 0.14600
H 	H 	0.52850 0.59760 0.06810 0.00600
C 	C 	0.53000 0.71007 0.22813 0.15200
H 	H 	0.49890 0.71230 0.25780 -0.01500
Mg	Mg	0.28708 0.08204 0.52756 1.47500
Mg	Mg	0.28782 0.55243 0.19956 1.46400
Mg	Mg	0.83410 0.67905 0.61824 1.45900
O 	O 	0.32084 0.11764 0.44021 -0.53800
O 	O 	0.30523 0.40537 0.15073 -0.65000
O 	O 	0.18511 0.97612 0.48268 -0.53000
O 	O 	0.18690 0.90531 0.59496 -0.55800
O 	O 	0.37298 0.29009 0.10880 -0.44100
O 	O 	0.79333 0.97908 0.25711 -0.54800
O 	O 	0.81334 0.78704 0.50971 -0.59300
O 	O 	0.62800 0.12260 0.33336 -0.57300
O 	O 	0.61487 0.03407 0.43328 -0.49800
O 	O 	0.28638 0.29498 0.40222 -0.58700
O 	O 	0.93735 0.71732 0.59400 -0.50300
O 	O 	0.88920 0.91682 0.21959 -0.56000
C 	C 	0.92120 0.90279 0.35843 -0.23700
C 	C 	0.15111 0.92704 0.52097 0.48700
C 	C 	0.89257 0.77299 0.53188 0.38800
C 	C 	0.86364 0.93635 0.27196 0.48300
C 	C 	0.35660 0.32397 0.16372 0.41600
C 	C 	0.05849 0.89370 0.47590 -0.21900
C 	C 	0.93325 0.82190 0.48290 -0.19700
C 	C 	0.58857 0.09699 0.37298 0.48000
C 	C 	0.39302 0.26658 0.24356 -0.23400
C 	C 	0.50164 0.15017 0.34369 -0.22400
C 	C 	0.37721 0.20324 0.35957 -0.22000
C 	C 	0.32395 0.20463 0.40488 0.47600
C 	C 	0.00828 0.92296 0.39500 0.15400
H 	H 	0.03350 0.95620 0.36550 -0.01500
C 	C 	0.88428 0.85331 0.40318 0.12500
H 	H 	0.82540 0.84110 0.37890 -0.01600
C 	C 	0.02067 0.84106 0.51854 0.13600
H 	H 	0.05450 0.81830 0.57180 0.00200
C 	C 	0.34881 0.26673 0.28974 0.13600
H 	H 	0.29960 0.31000 0.27350 -0.03100
C 	C 	0.45323 0.14273 0.38609 0.14600
H 	H 	0.47150 0.09760 0.43190 0.00600
C 	C 	0.47000 0.21007 0.27187 0.15200
H 	H 	0.50110 0.21230 0.24220 -0.01500
