data_crystal

_cell_length_a 16.62530
_cell_length_b 16.62540
_cell_length_c 20.04110
_cell_angle_alpha 73.27780
_cell_angle_beta  73.27770
_cell_angle_gamma 107.83700

_symmetry_space_group_name_	'P 1'
_symmetry_space_group_name_H-M	'P 1'

loop_
_symmetry_equiv_pos_as_xyz
  x,y,z

loop_
_atom_site_label
_atom_site_type_symbol
_atom_site_fract_x
_atom_site_fract_y
_atom_site_fract_z
_atom_site_charge
K 	K 	0.44265 0.71303 0.96840 0.60100
K 	K 	0.58895 0.31857 0.96840 0.60100
K 	K 	0.46303 0.69265 0.46840 0.60800
K 	K 	0.06857 0.83895 0.46840 0.61500
K 	K 	0.85641 0.85641 0.28718 0.59600
K 	K 	0.45501 0.45501 0.08998 0.63300
K 	K 	0.60641 0.10641 0.78718 0.59500
K 	K 	0.20501 0.70501 0.58998 0.63100
La	La	0.25406 0.37034 0.86420 1.22200
La	La	0.91468 0.05232 0.51988 1.14400
La	La	0.88174 0.76546 0.86420 1.19100
La	La	0.56544 0.42780 0.51988 1.19000
La	La	0.12034 0.50406 0.36420 1.24900
La	La	0.80232 0.16468 0.01988 1.20300
La	La	0.51546 0.13174 0.36420 1.22900
La	La	0.17780 0.81544 0.01988 1.22800
Pt	Pt	0.09339 0.22185 0.19273 0.30200
Pt	Pt	0.58589 0.70929 0.68908 0.27800
Pt	Pt	0.09785 0.22515 0.67923 0.30300
Pt	Pt	0.59175 0.70732 0.18951 0.28600
Pt	Pt	0.71388 0.58542 0.19273 0.27700
Pt	Pt	0.72503 0.60163 0.68908 0.27700
Pt	Pt	0.22292 0.09563 0.67923 0.27600
Pt	Pt	0.21874 0.10317 0.18951 0.28400
Pt	Pt	0.97185 0.34339 0.69273 0.23200
Pt	Pt	0.45929 0.83589 0.18908 0.27800
Pt	Pt	0.97515 0.34785 0.17923 0.23500
Pt	Pt	0.45732 0.84175 0.68951 0.28400
Pt	Pt	0.33542 0.96388 0.69273 0.28500
Pt	Pt	0.35163 0.97503 0.18908 0.28600
Pt	Pt	0.84562 0.47292 0.17923 0.28100
Pt	Pt	0.85317 0.46874 0.68951 0.28600
C 	C 	0.99010 0.11570 0.19980 -0.12000
C 	C 	0.14830 0.27150 0.07880 -0.03400
C 	C 	0.19970 0.32550 0.18580 -0.06700
C 	C 	0.03890 0.17450 0.30580 -0.04900
C 	C 	0.58340 0.70760 0.78880 -0.06800
C 	C 	0.69690 0.83090 0.63500 -0.06200
C 	C 	0.59270 0.71430 0.58720 -0.09000
C 	C 	0.47670 0.58730 0.74180 -0.06100
C 	C 	0.15260 0.27740 0.74200 -0.05100
C 	C 	0.20150 0.33090 0.58520 -0.07600
C 	C 	0.04540 0.17700 0.61440 -0.05500
C 	C 	0.99650 0.12070 0.77380 -0.12900
C 	C 	0.48000 0.59940 0.26780 -0.08700
C 	C 	0.62120 0.73140 0.27320 -0.08900
C 	C 	0.70710 0.81370 0.10900 -0.07400
C 	C 	0.56070 0.67830 0.10640 -0.07200
C 	C 	0.81010 0.68450 0.19980 -0.08000
C 	C 	0.77290 0.64970 0.07880 -0.04800
C 	C 	0.61450 0.48870 0.18580 -0.06500
C 	C 	0.65530 0.51970 0.30580 -0.06400
C 	C 	0.62780 0.50360 0.78880 -0.06800
C 	C 	0.66810 0.53410 0.63500 -0.06200
C 	C 	0.82010 0.69850 0.58720 -0.09300
C 	C 	0.78150 0.67090 0.74180 -0.06400
C 	C 	0.10540 0.98060 0.74200 -0.04600
C 	C 	0.21330 0.08390 0.58520 -0.07500
C 	C 	0.34020 0.20860 0.61440 -0.06900
C 	C 	0.22970 0.10550 0.77380 -0.08400
C 	C 	0.25220 0.13280 0.26780 -0.08800
C 	C 	0.10560 0.99540 0.27320 -0.07400
C 	C 	0.18390 0.07730 0.10900 -0.07000
C 	C 	0.33290 0.21530 0.10640 -0.07200
C 	C 	0.86570 0.24010 0.69980 -0.08800
C 	C 	0.02150 0.39830 0.57880 -0.01100
C 	C 	0.07550 0.44970 0.68580 -0.03300
C 	C 	0.92450 0.28890 0.80580 -0.07600
C 	C 	0.45760 0.83340 0.28880 -0.06600
C 	C 	0.58090 0.94690 0.13500 -0.04900
C 	C 	0.46430 0.84270 0.08720 -0.08500
C 	C 	0.33730 0.72670 0.24180 -0.05900
C 	C 	0.02740 0.40260 0.24200 -0.02400
C 	C 	0.08090 0.45150 0.08520 -0.03800
C 	C 	0.92700 0.29540 0.11440 -0.07600
C 	C 	0.87070 0.24650 0.27380 -0.09300
C 	C 	0.34940 0.73000 0.76780 -0.08800
C 	C 	0.48140 0.87120 0.77320 -0.08900
C 	C 	0.56370 0.95710 0.60900 -0.06500
C 	C 	0.42830 0.81070 0.60640 -0.07400
C 	C 	0.43450 0.06010 0.69980 -0.08600
C 	C 	0.39970 0.02290 0.57880 -0.05600
C 	C 	0.23870 0.86450 0.68580 -0.06500
C 	C 	0.26970 0.90530 0.80580 -0.06100
C 	C 	0.25360 0.87780 0.28880 -0.06400
C 	C 	0.28410 0.91810 0.13500 -0.05500
C 	C 	0.44850 0.07010 0.08720 -0.09200
C 	C 	0.42090 0.03150 0.24180 -0.06600
C 	C 	0.73060 0.35540 0.24200 -0.06100
C 	C 	0.83390 0.46330 0.08520 -0.07600
C 	C 	0.95860 0.59020 0.11440 -0.11800
C 	C 	0.85550 0.47970 0.27380 -0.09200
C 	C 	0.88280 0.50220 0.76780 -0.09700
C 	C 	0.74540 0.35560 0.77320 -0.09200
C 	C 	0.82730 0.43390 0.60900 -0.08400
C 	C 	0.96530 0.58290 0.60640 -0.13100
N 	N 	0.93430 0.05350 0.20260 -0.19400
N 	N 	0.17976 0.30016 0.01428 -0.23900
N 	N 	0.26010 0.38610 0.18000 -0.17400
N 	N 	0.00780 0.14900 0.37060 -0.24500
N 	N 	0.58470 0.70910 0.84520 -0.16800
N 	N 	0.76220 0.89820 0.60080 -0.26100
N 	N 	0.60180 0.72100 0.52660 -0.19900
N 	N 	0.41390 0.51670 0.77220 -0.25100
N 	N 	0.18310 0.30930 0.77740 -0.25700
N 	N 	0.26140 0.39080 0.53180 -0.15600
N 	N 	0.01690 0.15310 0.57460 -0.23900
N 	N 	0.93920 0.06180 0.82920 -0.17300
N 	N 	0.41570 0.53550 0.31460 -0.15200
N 	N 	0.63680 0.74100 0.32260 -0.20000
N 	N 	0.77240 0.87300 0.06300 -0.16100
N 	N 	0.54090 0.65570 0.06300 -0.18500
N 	N 	0.86310 0.74390 0.20260 -0.19900
N 	N 	0.80596 0.68556 0.01428 -0.24400
N 	N 	0.55990 0.43390 0.18000 -0.17500
N 	N 	0.62160 0.48040 0.37060 -0.25900
N 	N 	0.57010 0.44570 0.84520 -0.16800
N 	N 	0.63700 0.50100 0.60080 -0.26300
N 	N 	0.87160 0.75240 0.52660 -0.20700
N 	N 	0.81390 0.71110 0.77220 -0.25400
N 	N 	0.03950 0.91330 0.77740 -0.24500
N 	N 	0.20680 0.07740 0.53180 -0.15500
N 	N 	0.40850 0.27230 0.57460 -0.25200
N 	N 	0.23160 0.10900 0.82920 -0.17000
N 	N 	0.26970 0.14990 0.31460 -0.15100
N 	N 	0.04060 0.93640 0.32260 -0.18700
N 	N 	0.16460 0.06400 0.06300 -0.15500
N 	N 	0.39610 0.28130 0.06300 -0.18500
N 	N 	0.80350 0.18430 0.70260 -0.19800
N 	N 	0.05016 0.42976 0.51428 -0.25300
N 	N 	0.13610 0.51010 0.68000 -0.18000
N 	N 	0.89900 0.25780 0.87060 -0.27200
N 	N 	0.45910 0.83470 0.34520 -0.16300
N 	N 	0.64820 0.01220 0.10080 -0.26800
N 	N 	0.47100 0.85180 0.02660 -0.19000
N 	N 	0.26670 0.66390 0.27220 -0.24900
N 	N 	0.05930 0.43310 0.27740 -0.25900
N 	N 	0.14080 0.51140 0.03180 -0.15100
N 	N 	0.90310 0.26690 0.07460 -0.25300
N 	N 	0.81180 0.18920 0.32920 -0.17000
N 	N 	0.28550 0.66570 0.81460 -0.15300
N 	N 	0.49100 0.88680 0.82260 -0.20300
N 	N 	0.62300 0.02240 0.56300 -0.17600
N 	N 	0.40570 0.79090 0.56300 -0.19200
N 	N 	0.49390 0.11310 0.70260 -0.19500
N 	N 	0.43556 0.05596 0.51428 -0.25200
N 	N 	0.18390 0.80990 0.68000 -0.17100
N 	N 	0.23040 0.87160 0.87060 -0.26400
N 	N 	0.19570 0.82010 0.34520 -0.16000
N 	N 	0.25100 0.88700 0.10080 -0.25800
N 	N 	0.50240 0.12160 0.02660 -0.19000
N 	N 	0.46110 0.06390 0.27220 -0.25000
N 	N 	0.66330 0.28950 0.27740 -0.25800
N 	N 	0.82740 0.45680 0.03180 -0.15200
N 	N 	0.02230 0.65850 0.07460 -0.20900
N 	N 	0.85900 0.48160 0.32920 -0.17300
N 	N 	0.89990 0.51970 0.81460 -0.16300
N 	N 	0.68640 0.29060 0.82260 -0.20500
N 	N 	0.81400 0.41460 0.56300 -0.17000
N 	N 	0.03130 0.64610 0.56300 -0.15200
O 	O 	0.41780 0.53300 0.96900 -0.33300
O 	O 	0.61320 0.49800 0.96900 -0.33400
O 	O 	0.28300 0.66780 0.46900 -0.31600
O 	O 	0.24800 0.86320 0.46900 -0.31200
