data_crystal

_cell_length_a 4.35360
_cell_length_b 12.90020
_cell_length_c 12.90020
_cell_angle_alpha 61.24810
_cell_angle_beta  83.54090
_cell_angle_gamma 96.45910

_symmetry_space_group_name_	'P 1'
_symmetry_space_group_name_H-M	'P 1'

loop_
_symmetry_equiv_pos_as_xyz
  x,y,z

loop_
_atom_site_label
_atom_site_type_symbol
_atom_site_fract_x
_atom_site_fract_y
_atom_site_fract_z
_atom_site_charge
Co	Co	0.69991 0.16257 0.83834 1.12300
Co	Co	0.53825 0.83834 0.99909 1.03500
Co	Co	0.53734 0.99909 0.16257 1.06000
P 	P 	0.06203 0.00000 -0.00000 0.66000
H 	H 	0.98520 0.44760 0.69620 -0.00200
H 	H 	0.93790 0.61120 0.52500 0.06700
H 	H 	0.44300 0.23760 0.62210 -0.00500
H 	H 	0.38870 0.39730 0.44040 0.07900
H 	H 	0.68140 0.69620 0.85620 -0.01100
H 	H 	0.46290 0.52500 0.86380 0.12000
H 	H 	0.06510 0.62210 0.14030 -0.02400
H 	H 	0.82910 0.44040 0.16230 0.11100
H 	H 	0.53760 0.85620 0.44760 -0.00100
H 	H 	0.32670 0.86380 0.61120 0.11000
H 	H 	0.20540 0.14030 0.23760 -0.00700
H 	H 	0.99140 0.16230 0.39730 0.08200
C 	C 	0.64360 0.52920 0.46910 0.04200
C 	C 	0.59770 0.63650 0.36340 0.09300
C 	C 	0.85750 0.43780 0.64530 0.05300
C 	C 	0.82540 0.53460 0.54440 -0.11500
C 	C 	0.54450 0.31590 0.60140 0.07000
C 	C 	0.50160 0.40960 0.49380 -0.11500
C 	C 	0.11270 0.46910 0.00170 0.25000
C 	C 	0.96110 0.36340 0.00010 0.14700
C 	C 	0.50280 0.64530 0.91690 0.02000
C 	C 	0.36980 0.54440 0.92100 -0.33400
C 	C 	0.14590 0.60140 0.08270 0.15400
C 	C 	0.99540 0.49380 0.09660 -0.20900
C 	C 	0.11440 0.00170 0.52920 0.21200
C 	C 	0.96120 0.00010 0.63650 0.15800
C 	C 	0.41970 0.91690 0.43780 0.00500
C 	C 	0.29080 0.92100 0.53460 -0.30600
C 	C 	0.22860 0.08270 0.31590 0.11100
C 	C 	0.09200 0.09660 0.40960 -0.13900
N 	N 	0.70650 0.32280 0.67670 -0.24600
N 	N 	0.52140 0.75180 0.18680 -0.16100
N 	N 	0.53630 0.81300 0.24590 -0.19000
N 	N 	0.55920 0.63920 0.25840 -0.09600
N 	N 	0.57600 0.74080 0.35700 -0.11300
N 	N 	0.38320 0.67670 0.00050 -0.18800
N 	N 	0.70820 0.18680 0.06140 -0.10200
N 	N 	0.78220 0.24590 0.94110 -0.22900
N 	N 	0.81760 0.25840 0.10240 -0.09700
N 	N 	0.93300 0.35700 0.90220 -0.16500
N 	N 	0.38370 0.00050 0.32280 -0.17600
N 	N 	0.76960 0.06140 0.75180 -0.12400
N 	N 	0.72330 0.94110 0.81300 -0.25300
N 	N 	0.92000 0.10240 0.63920 -0.10400
N 	N 	0.83520 0.90220 0.74080 -0.17500
O 	O 	0.22610 0.11470 0.88530 -0.58500
O 	O 	0.11140 0.88530 -0.00000 -0.53200
O 	O 	0.11140 0.00000 0.11470 -0.44900
O 	O 	0.69973 0.00000 -0.00000 -0.50900
