data_crystal

_cell_length_a 9.33400
_cell_length_b 29.10200
_cell_length_c 7.70200
_cell_angle_alpha 90.00000
_cell_angle_beta  108.39500
_cell_angle_gamma 90.00000

_symmetry_space_group_name_	'P 1'
_symmetry_space_group_name_H-M	'P 1'

loop_
_symmetry_equiv_pos_as_xyz
  x,y,z

loop_
_atom_site_label
_atom_site_type_symbol
_atom_site_fract_x
_atom_site_fract_y
_atom_site_fract_z
_atom_site_charge
Cu	Cu	0.66907 0.99836 0.51519 0.90000
C 	C 	0.85090 0.08820 0.53170 0.34800
C 	C 	0.87310 0.13990 0.53270 -0.04000
C 	C 	0.75420 0.16910 0.53240 0.00300
H 	H 	0.66300 0.15680 0.53510 0.04800
C 	C 	0.77110 0.21610 0.52820 -0.07500
H 	H 	0.68960 0.23480 0.52560 0.05800
C 	C 	0.90490 0.23660 0.52770 0.04300
C 	C 	0.02210 0.20640 0.52930 -0.10300
H 	H 	0.11400 0.21870 0.52880 0.06500
C 	C 	0.00740 0.15940 0.53150 -0.02900
H 	H 	0.08830 0.14070 0.53220 0.06300
C 	C 	0.92270 0.28630 0.52970 0.10000
C 	C 	0.81380 0.31590 0.55960 -0.12600
H 	H 	0.72550 0.30360 0.57180 0.08100
C 	C 	0.83530 0.36290 0.57130 0.07900
H 	H 	0.76410 0.38180 0.59660 0.02600
C 	C 	0.06160 0.35390 0.50900 0.05800
H 	H 	0.14540 0.36730 0.48870 0.03700
C 	C 	0.04800 0.30710 0.49960 -0.16300
H 	H 	0.12140 0.28930 0.47360 0.08700
C 	C 	0.99020 0.43150 0.56930 -0.16200
H 	H 	0.90360 0.44660 0.58810 0.10900
H 	H 	0.00380 0.44390 0.45870 0.08700
C 	C 	0.13090 0.44170 0.73210 0.33200
N 	N 	0.96040 0.38140 0.54580 -0.08400
N 	N 	0.78800 0.98896 0.34900 -0.24200
N 	N 	0.76150 0.95940 0.23540 -0.03400
N 	N 	0.73310 0.92880 0.12440 -0.06400
N 	N 	0.53510 0.00100 0.67280 -0.26100
N 	N 	0.57750 0.01990 0.81810 -0.02800
N 	N 	0.61850 0.03700 0.95860 -0.05900
O 	O 	0.96110 0.06567 0.51160 -0.38000
O 	O 	0.73330 0.07247 0.54820 -0.36800
O 	O 	0.14240 0.48419 0.77380 -0.42500
O 	O 	0.21770 0.41092 0.80770 -0.27900
Cu	Cu	0.33093 0.49836 0.98481 0.90400
C 	C 	0.14910 0.58820 0.96830 0.36800
C 	C 	0.12690 0.63990 0.96730 -0.10900
C 	C 	0.24580 0.66910 0.96760 0.02000
H 	H 	0.33700 0.65680 0.96490 0.04700
C 	C 	0.22890 0.71610 0.97180 -0.07100
H 	H 	0.31040 0.73480 0.97440 0.05900
C 	C 	0.09510 0.73660 0.97230 -0.01400
C 	C 	0.97790 0.70640 0.97070 -0.04600
H 	H 	0.88600 0.71870 0.97120 0.05900
C 	C 	0.99260 0.65940 0.96850 0.04500
H 	H 	0.91170 0.64070 0.96780 0.05700
C 	C 	0.07730 0.78630 0.97030 0.09100
C 	C 	0.18620 0.81590 0.94040 -0.13700
H 	H 	0.27450 0.80360 0.92820 0.08500
C 	C 	0.16470 0.86290 0.92870 0.07000
H 	H 	0.23590 0.88180 0.90340 0.02900
C 	C 	0.93840 0.85390 0.99100 0.17600
H 	H 	0.85460 0.86730 0.01130 -0.00700
C 	C 	0.95200 0.80710 0.00040 -0.18800
H 	H 	0.87860 0.78930 0.02640 0.09700
C 	C 	0.00980 0.93150 0.93070 -0.33800
H 	H 	0.09640 0.94660 0.91190 0.15700
H 	H 	0.99620 0.94390 0.04130 0.17600
C 	C 	0.86910 0.94170 0.76790 0.42200
N 	N 	0.03960 0.88140 0.95420 -0.10700
N 	N 	0.21200 0.48896 0.15100 -0.26500
N 	N 	0.23850 0.45940 0.26460 -0.04200
N 	N 	0.26690 0.42880 0.37560 -0.06700
N 	N 	0.46490 0.50100 0.82720 -0.24600
N 	N 	0.42250 0.51990 0.68190 -0.02700
N 	N 	0.38150 0.53700 0.54140 -0.06500
O 	O 	0.03890 0.56567 0.98840 -0.40300
O 	O 	0.26670 0.57247 0.95180 -0.36400
O 	O 	0.85760 0.98419 0.72620 -0.42200
O 	O 	0.78230 0.91092 0.69230 -0.30100
Cu	Cu	0.33093 0.00164 0.48481 0.88700
C 	C 	0.14910 0.91180 0.46830 0.37300
C 	C 	0.12690 0.86010 0.46730 -0.13500
C 	C 	0.24580 0.83090 0.46760 0.03800
H 	H 	0.33700 0.84320 0.46490 0.03500
C 	C 	0.22890 0.78390 0.47180 -0.10300
H 	H 	0.31040 0.76520 0.47440 0.06500
C 	C 	0.09510 0.76340 0.47230 0.01800
C 	C 	0.97790 0.79360 0.47070 -0.07700
H 	H 	0.88600 0.78130 0.47120 0.06400
C 	C 	0.99260 0.84060 0.46850 0.06800
H 	H 	0.91170 0.85930 0.46780 0.04300
C 	C 	0.07730 0.71370 0.47030 0.01500
C 	C 	0.18620 0.68410 0.44040 -0.09500
H 	H 	0.27450 0.69640 0.42820 0.06400
C 	C 	0.16470 0.63710 0.42870 0.03400
H 	H 	0.23590 0.61820 0.40340 0.03300
C 	C 	0.93840 0.64610 0.49100 0.07200
H 	H 	0.85460 0.63270 0.51130 0.03900
C 	C 	0.95200 0.69290 0.50040 -0.07600
H 	H 	0.87860 0.71070 0.52640 0.06400
C 	C 	0.00980 0.56850 0.43070 -0.38700
H 	H 	0.09640 0.55340 0.41190 0.16200
H 	H 	0.99620 0.55610 0.54130 0.19800
C 	C 	0.86910 0.55830 0.26790 0.43400
N 	N 	0.03960 0.61860 0.45420 -0.08300
N 	N 	0.21200 0.01104 0.65100 -0.26000
N 	N 	0.23850 0.04060 0.76460 -0.04100
N 	N 	0.26690 0.07120 0.87560 -0.06600
N 	N 	0.46490 0.99900 0.32720 -0.24700
N 	N 	0.42250 0.98010 0.18190 -0.02700
N 	N 	0.38150 0.96300 0.04140 -0.06600
O 	O 	0.03890 0.93433 0.48840 -0.41400
O 	O 	0.26670 0.92753 0.45180 -0.36900
O 	O 	0.85760 0.51581 0.22620 -0.44000
O 	O 	0.78230 0.58908 0.19230 -0.31700
Cu	Cu	0.66907 0.50164 0.01519 0.88500
C 	C 	0.85090 0.41180 0.03170 0.35300
C 	C 	0.87310 0.36010 0.03270 -0.06000
C 	C 	0.75420 0.33090 0.03240 0.02200
H 	H 	0.66300 0.34320 0.03510 0.03700
C 	C 	0.77110 0.28390 0.02820 -0.10900
H 	H 	0.68960 0.26520 0.02560 0.06600
C 	C 	0.90490 0.26340 0.02770 0.08200
C 	C 	0.02210 0.29360 0.02930 -0.14000
H 	H 	0.11400 0.28130 0.02880 0.07100
C 	C 	0.00740 0.34060 0.03150 -0.00900
H 	H 	0.08830 0.35930 0.03220 0.05100
C 	C 	0.92270 0.21370 0.02970 0.02200
C 	C 	0.81380 0.18410 0.05960 -0.07900
H 	H 	0.72550 0.19640 0.07180 0.05900
C 	C 	0.83530 0.13710 0.07130 0.04200
H 	H 	0.76410 0.11820 0.09660 0.03100
C 	C 	0.06160 0.14610 0.00900 -0.06100
H 	H 	0.14540 0.13270 0.98870 0.08900
C 	C 	0.04800 0.19290 0.99960 -0.04000
H 	H 	0.12140 0.21070 0.97360 0.05100
C 	C 	0.99020 0.06850 0.06930 -0.19900
H 	H 	0.90360 0.05340 0.08810 0.11200
H 	H 	0.00380 0.05610 0.95870 0.10500
C 	C 	0.13090 0.05830 0.23210 0.33700
N 	N 	0.96040 0.11860 0.04580 -0.05500
N 	N 	0.78800 0.51104 0.84900 -0.23700
N 	N 	0.76150 0.54060 0.73540 -0.03400
N 	N 	0.73310 0.57120 0.62440 -0.06300
N 	N 	0.53510 0.49900 0.17280 -0.26100
N 	N 	0.57750 0.48010 0.31810 -0.02800
N 	N 	0.61850 0.46300 0.45860 -0.06000
O 	O 	0.96110 0.43433 0.01160 -0.38700
O 	O 	0.73330 0.42753 0.04820 -0.37000
O 	O 	0.14240 0.01581 0.27380 -0.44400
O 	O 	0.21770 0.08908 0.30770 -0.29600
Cu	Cu	0.00000 0.00000 0.50000 0.88600
Cu	Cu	-0.00000 0.50000 -0.00000 0.88300
