data_crystal

_cell_length_a 18.42100
_cell_length_b 18.42100
_cell_length_c 8.53700
_cell_angle_alpha 90.00000
_cell_angle_beta  90.00000
_cell_angle_gamma 120.00000

_symmetry_space_group_name_	'P 1'
_symmetry_space_group_name_H-M	'P 1'

loop_
_symmetry_equiv_pos_as_xyz
  x,y,z

loop_
_atom_site_label
_atom_site_type_symbol
_atom_site_fract_x
_atom_site_fract_y
_atom_site_fract_z
_atom_site_charge
C 	C 	0.35460 0.03990 0.29000 0.21800
C 	C 	0.25700 0.99400 0.33900 0.55800
C 	C 	0.32200 0.03900 0.33300 0.91200
C 	C 	0.96010 0.31470 0.29000 0.21600
C 	C 	0.00600 0.26300 0.33900 0.56100
C 	C 	0.96100 0.28300 0.33300 0.91800
C 	C 	0.68530 0.64540 0.29000 0.21100
C 	C 	0.73700 0.74300 0.33900 0.56700
C 	C 	0.71700 0.67800 0.33300 0.93000
C 	C 	0.64540 0.96010 0.79000 0.21500
C 	C 	0.74300 0.00600 0.83900 0.56300
C 	C 	0.67800 0.96100 0.83300 0.91100
C 	C 	0.03990 0.68530 0.79000 0.21400
C 	C 	0.99400 0.73700 0.83900 0.56400
C 	C 	0.03900 0.71700 0.83300 0.91700
C 	C 	0.31470 0.35460 0.79000 0.21200
C 	C 	0.26300 0.25700 0.83900 0.56800
C 	C 	0.28300 0.32200 0.83300 0.93100
C 	C 	0.03990 0.35460 0.71000 0.21900
C 	C 	0.99400 0.25700 0.66100 0.55900
C 	C 	0.03900 0.32200 0.66700 0.91300
C 	C 	0.31470 0.96010 0.71000 0.21700
C 	C 	0.26300 0.00600 0.66100 0.56200
C 	C 	0.28300 0.96100 0.66700 0.91900
C 	C 	0.64540 0.68530 0.71000 0.21200
C 	C 	0.74300 0.73700 0.66100 0.56800
C 	C 	0.67800 0.71700 0.66700 0.93100
C 	C 	0.96010 0.64540 0.21000 0.21600
C 	C 	0.00600 0.74300 0.16100 0.56300
C 	C 	0.96100 0.67800 0.16700 0.91100
C 	C 	0.68530 0.03990 0.21000 0.21400
C 	C 	0.73700 0.99400 0.16100 0.56400
C 	C 	0.71700 0.03900 0.16700 0.91700
C 	C 	0.35460 0.31470 0.21000 0.21200
C 	C 	0.25700 0.26300 0.16100 0.56800
C 	C 	0.32200 0.28300 0.16700 0.93100
C 	C 	0.64540 0.96010 0.71000 0.21900
C 	C 	0.74300 0.00600 0.66100 0.55900
C 	C 	0.67800 0.96100 0.66700 0.91300
C 	C 	0.03990 0.68530 0.71000 0.21700
C 	C 	0.99400 0.73700 0.66100 0.56200
C 	C 	0.03900 0.71700 0.66700 0.91900
C 	C 	0.31470 0.35460 0.71000 0.21200
C 	C 	0.26300 0.25700 0.66100 0.56800
C 	C 	0.28300 0.32200 0.66700 0.93100
C 	C 	0.35460 0.03990 0.21000 0.21600
C 	C 	0.25700 0.99400 0.16100 0.56300
C 	C 	0.32200 0.03900 0.16700 0.91100
C 	C 	0.96010 0.31470 0.21000 0.21400
C 	C 	0.00600 0.26300 0.16100 0.56400
C 	C 	0.96100 0.28300 0.16700 0.91700
C 	C 	0.68530 0.64540 0.21000 0.21200
C 	C 	0.73700 0.74300 0.16100 0.56800
C 	C 	0.71700 0.67800 0.16700 0.93100
C 	C 	0.96010 0.64540 0.29000 0.21900
C 	C 	0.00600 0.74300 0.33900 0.55900
C 	C 	0.96100 0.67800 0.33300 0.91300
C 	C 	0.68530 0.03990 0.29000 0.21700
C 	C 	0.73700 0.99400 0.33900 0.56200
C 	C 	0.71700 0.03900 0.33300 0.91900
C 	C 	0.35460 0.31470 0.29000 0.21200
C 	C 	0.25700 0.26300 0.33900 0.56800
C 	C 	0.32200 0.28300 0.33300 0.93100
C 	C 	0.03990 0.35460 0.79000 0.21600
C 	C 	0.99400 0.25700 0.83900 0.56300
C 	C 	0.03900 0.32200 0.83300 0.91100
C 	C 	0.31470 0.96010 0.79000 0.21400
C 	C 	0.26300 0.00600 0.83900 0.56400
C 	C 	0.28300 0.96100 0.83300 0.91700
C 	C 	0.64540 0.68530 0.79000 0.21200
C 	C 	0.74300 0.73700 0.83900 0.56800
C 	C 	0.67800 0.71700 0.83300 0.93100
Cu	Cu	0.53885 0.07769 0.25000 0.82000
Cu	Cu	0.92231 0.46116 0.25000 0.82000
Cu	Cu	0.53884 0.46115 0.25000 0.82000
Cu	Cu	0.46115 0.92231 0.75000 0.82000
Cu	Cu	0.07769 0.53884 0.75000 0.82000
Cu	Cu	0.46116 0.53885 0.75000 0.82000
C 	C 	0.50975 0.01950 0.05740 -0.28600
C 	C 	0.98050 0.49025 0.05740 -0.28600
C 	C 	0.50975 0.49025 0.05740 -0.28600
C 	C 	0.49025 0.98050 0.55740 -0.28600
C 	C 	0.01950 0.50975 0.55740 -0.28600
C 	C 	0.49025 0.50975 0.55740 -0.28600
C 	C 	0.01950 0.50975 0.94260 -0.28600
C 	C 	0.49025 0.98050 0.94260 -0.28600
C 	C 	0.49025 0.50975 0.94260 -0.28600
C 	C 	0.98050 0.49025 0.44260 -0.28600
C 	C 	0.50975 0.01950 0.44260 -0.28600
C 	C 	0.50975 0.49025 0.44260 -0.28600
C 	C 	0.58940 0.25720 0.25000 -0.00900
N 	N 	0.51740 0.18200 0.25000 -0.23500
O 	O 	0.36830 0.12770 0.25000 0.11300
C 	C 	0.44780 0.18550 0.25000 0.07900
C 	C 	0.37500 0.09510 0.25000 -0.83100
N 	N 	0.32140 0.03520 0.25000 -1.15700
C 	C 	0.25700 0.98900 0.25000 -1.46700
C 	C 	0.74280 0.33220 0.25000 -0.00800
N 	N 	0.81800 0.33540 0.25000 -0.23500
O 	O 	0.87230 0.24060 0.25000 0.11300
C 	C 	0.81450 0.26230 0.25000 0.07900
C 	C 	0.90490 0.27990 0.25000 -0.83100
N 	N 	0.96480 0.28620 0.25000 -1.16100
C 	C 	0.01100 0.26800 0.25000 -1.47300
C 	C 	0.66780 0.41060 0.25000 -0.00800
N 	N 	0.66460 0.48260 0.25000 -0.23500
O 	O 	0.75940 0.63170 0.25000 0.11200
C 	C 	0.73770 0.55220 0.25000 0.08000
C 	C 	0.72010 0.62500 0.25000 -0.83400
N 	N 	0.71380 0.67860 0.25000 -1.16800
C 	C 	0.73200 0.74300 0.25000 -1.49000
C 	C 	0.41060 0.74280 0.75000 -0.00900
N 	N 	0.48260 0.81800 0.75000 -0.23500
O 	O 	0.63170 0.87230 0.75000 0.11300
C 	C 	0.55220 0.81450 0.75000 0.07900
C 	C 	0.62500 0.90490 0.75000 -0.83100
N 	N 	0.67860 0.96480 0.75000 -1.15700
C 	C 	0.74300 0.01100 0.75000 -1.46700
C 	C 	0.25720 0.66780 0.75000 -0.00800
N 	N 	0.18200 0.66460 0.75000 -0.23500
O 	O 	0.12770 0.75940 0.75000 0.11300
C 	C 	0.18550 0.73770 0.75000 0.07900
C 	C 	0.09510 0.72010 0.75000 -0.83100
N 	N 	0.03520 0.71380 0.75000 -1.16100
C 	C 	0.98900 0.73200 0.75000 -1.47300
C 	C 	0.33220 0.58940 0.75000 -0.00800
N 	N 	0.33540 0.51740 0.75000 -0.23500
O 	O 	0.24060 0.36830 0.75000 0.11200
C 	C 	0.26230 0.44780 0.75000 0.08000
C 	C 	0.27990 0.37500 0.75000 -0.83400
N 	N 	0.28620 0.32140 0.75000 -1.16800
C 	C 	0.26800 0.25700 0.75000 -1.49000
C 	C 	0.25720 0.58940 0.75000 -0.00800
N 	N 	0.18200 0.51740 0.75000 -0.23500
O 	O 	0.12770 0.36830 0.75000 0.11300
C 	C 	0.18550 0.44780 0.75000 0.07900
C 	C 	0.09510 0.37500 0.75000 -0.83100
N 	N 	0.03520 0.32140 0.75000 -1.15700
C 	C 	0.98900 0.25700 0.75000 -1.46700
C 	C 	0.33220 0.74280 0.75000 -0.00800
N 	N 	0.33540 0.81800 0.75000 -0.23500
O 	O 	0.24060 0.87230 0.75000 0.11300
C 	C 	0.26230 0.81450 0.75000 0.07900
C 	C 	0.27990 0.90490 0.75000 -0.83100
N 	N 	0.28620 0.96480 0.75000 -1.16100
C 	C 	0.26800 0.01100 0.75000 -1.47300
C 	C 	0.41060 0.66780 0.75000 -0.00800
N 	N 	0.48260 0.66460 0.75000 -0.23500
O 	O 	0.63170 0.75940 0.75000 0.11200
C 	C 	0.55220 0.73770 0.75000 0.08000
C 	C 	0.62500 0.72010 0.75000 -0.83400
N 	N 	0.67860 0.71380 0.75000 -1.16800
C 	C 	0.74300 0.73200 0.75000 -1.49000
C 	C 	0.74280 0.41060 0.25000 -0.00800
N 	N 	0.81800 0.48260 0.25000 -0.23500
O 	O 	0.87230 0.63170 0.25000 0.11300
C 	C 	0.81450 0.55220 0.25000 0.07900
C 	C 	0.90490 0.62500 0.25000 -0.83100
N 	N 	0.96480 0.67860 0.25000 -1.15700
C 	C 	0.01100 0.74300 0.25000 -1.46700
C 	C 	0.66780 0.25720 0.25000 -0.00800
N 	N 	0.66460 0.18200 0.25000 -0.23500
O 	O 	0.75940 0.12770 0.25000 0.11300
C 	C 	0.73770 0.18550 0.25000 0.07900
C 	C 	0.72010 0.09510 0.25000 -0.83100
N 	N 	0.71380 0.03520 0.25000 -1.16100
C 	C 	0.73200 0.98900 0.25000 -1.47300
C 	C 	0.58940 0.33220 0.25000 -0.00800
N 	N 	0.51740 0.33540 0.25000 -0.23500
O 	O 	0.36830 0.24060 0.25000 0.11200
C 	C 	0.44780 0.26230 0.25000 0.08000
C 	C 	0.37500 0.27990 0.25000 -0.83400
N 	N 	0.32140 0.28620 0.25000 -1.16800
C 	C 	0.25700 0.26800 0.25000 -1.49000
