data_crystal

_cell_length_a 18.12260
_cell_length_b 18.12260
_cell_length_c 8.72440
_cell_angle_alpha 90.00000
_cell_angle_beta  90.00000
_cell_angle_gamma 120.00000

_symmetry_space_group_name_	'P 1'
_symmetry_space_group_name_H-M	'P 1'

loop_
_symmetry_equiv_pos_as_xyz
  x,y,z

loop_
_atom_site_label
_atom_site_type_symbol
_atom_site_fract_x
_atom_site_fract_y
_atom_site_fract_z
_atom_site_charge
C 	C 	0.25100 0.99600 0.33500 0.33200
C 	C 	0.34100 0.03700 0.31700 0.41300
C 	C 	0.00400 0.25500 0.33500 0.33200
C 	C 	0.96300 0.30400 0.31700 0.41200
C 	C 	0.74500 0.74900 0.33500 0.33300
C 	C 	0.69600 0.65900 0.31700 0.41500
C 	C 	0.74900 0.00400 0.83500 0.33200
C 	C 	0.65900 0.96300 0.81700 0.41500
C 	C 	0.99600 0.74500 0.83500 0.33200
C 	C 	0.03700 0.69600 0.81700 0.41400
C 	C 	0.25500 0.25100 0.83500 0.33300
C 	C 	0.30400 0.34100 0.81700 0.41500
C 	C 	0.99600 0.25100 0.66500 0.33300
C 	C 	0.03700 0.34100 0.68300 0.41400
C 	C 	0.25500 0.00400 0.66500 0.33300
C 	C 	0.30400 0.96300 0.68300 0.41300
C 	C 	0.74900 0.74500 0.66500 0.33300
C 	C 	0.65900 0.69600 0.68300 0.41500
C 	C 	0.00400 0.74900 0.16500 0.33200
C 	C 	0.96300 0.65900 0.18300 0.41500
C 	C 	0.74500 0.99600 0.16500 0.33200
C 	C 	0.69600 0.03700 0.18300 0.41400
C 	C 	0.25100 0.25500 0.16500 0.33300
C 	C 	0.34100 0.30400 0.18300 0.41500
C 	C 	0.74900 0.00400 0.66500 0.33300
C 	C 	0.65900 0.96300 0.68300 0.41400
C 	C 	0.99600 0.74500 0.66500 0.33300
C 	C 	0.03700 0.69600 0.68300 0.41300
C 	C 	0.25500 0.25100 0.66500 0.33300
C 	C 	0.30400 0.34100 0.68300 0.41500
C 	C 	0.25100 0.99600 0.16500 0.33200
C 	C 	0.34100 0.03700 0.18300 0.41500
C 	C 	0.00400 0.25500 0.16500 0.33200
C 	C 	0.96300 0.30400 0.18300 0.41400
C 	C 	0.74500 0.74900 0.16500 0.33300
C 	C 	0.69600 0.65900 0.18300 0.41500
C 	C 	0.00400 0.74900 0.33500 0.33300
C 	C 	0.96300 0.65900 0.31700 0.41400
C 	C 	0.74500 0.99600 0.33500 0.33300
C 	C 	0.69600 0.03700 0.31700 0.41300
C 	C 	0.25100 0.25500 0.33500 0.33300
C 	C 	0.34100 0.30400 0.31700 0.41500
C 	C 	0.99600 0.25100 0.83500 0.33200
C 	C 	0.03700 0.34100 0.81700 0.41500
C 	C 	0.25500 0.00400 0.83500 0.33200
C 	C 	0.30400 0.96300 0.81700 0.41400
C 	C 	0.74900 0.74500 0.83500 0.33300
C 	C 	0.65900 0.69600 0.81700 0.41500
Cu	Cu	0.53639 0.07279 0.25000 0.80900
Cu	Cu	0.92721 0.46360 0.25000 0.80900
Cu	Cu	0.53639 0.46361 0.25000 0.80800
Cu	Cu	0.46361 0.92721 0.75000 0.80900
Cu	Cu	0.07279 0.53639 0.75000 0.80900
Cu	Cu	0.46360 0.53639 0.75000 0.80800
C 	C 	0.58800 0.25550 0.25000 -0.00100
N 	N 	0.51440 0.17930 0.25000 -0.26400
C 	C 	0.44430 0.18400 0.25000 0.11800
N 	N 	0.32230 0.03010 0.25000 -0.87300
O 	O 	0.36290 0.12840 0.25000 -0.64200
C 	C 	0.37120 0.09140 0.25000 0.56000
C 	C 	0.25200 0.98600 0.25000 -0.52400
C 	C 	0.74450 0.33250 0.25000 -0.00100
N 	N 	0.82070 0.33510 0.25000 -0.26400
C 	C 	0.81600 0.26030 0.25000 0.11800
N 	N 	0.96990 0.29220 0.25000 -0.87300
O 	O 	0.87160 0.23450 0.25000 -0.64200
C 	C 	0.90860 0.27980 0.25000 0.56100
C 	C 	0.01400 0.26600 0.25000 -0.52400
C 	C 	0.66750 0.41200 0.25000 -0.00100
N 	N 	0.66490 0.48560 0.25000 -0.26400
C 	C 	0.73970 0.55570 0.25000 0.11800
N 	N 	0.70780 0.67770 0.25000 -0.87400
O 	O 	0.76550 0.63710 0.25000 -0.64200
C 	C 	0.72020 0.62880 0.25000 0.56000
C 	C 	0.73400 0.74800 0.25000 -0.52400
C 	C 	0.41200 0.74450 0.75000 -0.00100
N 	N 	0.48560 0.82070 0.75000 -0.26400
C 	C 	0.55570 0.81600 0.75000 0.11800
N 	N 	0.67770 0.96990 0.75000 -0.87300
O 	O 	0.63710 0.87160 0.75000 -0.64200
C 	C 	0.62880 0.90860 0.75000 0.56000
C 	C 	0.74800 0.01400 0.75000 -0.52400
C 	C 	0.25550 0.66750 0.75000 -0.00100
N 	N 	0.17930 0.66490 0.75000 -0.26400
C 	C 	0.18400 0.73970 0.75000 0.11800
N 	N 	0.03010 0.70780 0.75000 -0.87300
O 	O 	0.12840 0.76550 0.75000 -0.64200
C 	C 	0.09140 0.72020 0.75000 0.56100
C 	C 	0.98600 0.73400 0.75000 -0.52400
C 	C 	0.33250 0.58800 0.75000 -0.00100
N 	N 	0.33510 0.51440 0.75000 -0.26400
C 	C 	0.26030 0.44430 0.75000 0.11800
N 	N 	0.29220 0.32230 0.75000 -0.87400
O 	O 	0.23450 0.36290 0.75000 -0.64200
C 	C 	0.27980 0.37120 0.75000 0.56000
C 	C 	0.26600 0.25200 0.75000 -0.52400
C 	C 	0.25550 0.58800 0.75000 -0.00100
N 	N 	0.17930 0.51440 0.75000 -0.26400
C 	C 	0.18400 0.44430 0.75000 0.11800
N 	N 	0.03010 0.32230 0.75000 -0.87300
O 	O 	0.12840 0.36290 0.75000 -0.64200
C 	C 	0.09140 0.37120 0.75000 0.56000
C 	C 	0.98600 0.25200 0.75000 -0.52400
C 	C 	0.33250 0.74450 0.75000 -0.00100
N 	N 	0.33510 0.82070 0.75000 -0.26400
C 	C 	0.26030 0.81600 0.75000 0.11800
N 	N 	0.29220 0.96990 0.75000 -0.87300
O 	O 	0.23450 0.87160 0.75000 -0.64200
C 	C 	0.27980 0.90860 0.75000 0.56100
C 	C 	0.26600 0.01400 0.75000 -0.52400
C 	C 	0.41200 0.66750 0.75000 -0.00100
N 	N 	0.48560 0.66490 0.75000 -0.26400
C 	C 	0.55570 0.73970 0.75000 0.11800
N 	N 	0.67770 0.70780 0.75000 -0.87400
O 	O 	0.63710 0.76550 0.75000 -0.64200
C 	C 	0.62880 0.72020 0.75000 0.56000
C 	C 	0.74800 0.73400 0.75000 -0.52400
C 	C 	0.74450 0.41200 0.25000 -0.00100
N 	N 	0.82070 0.48560 0.25000 -0.26400
C 	C 	0.81600 0.55570 0.25000 0.11800
N 	N 	0.96990 0.67770 0.25000 -0.87300
O 	O 	0.87160 0.63710 0.25000 -0.64200
C 	C 	0.90860 0.62880 0.25000 0.56000
C 	C 	0.01400 0.74800 0.25000 -0.52400
C 	C 	0.66750 0.25550 0.25000 -0.00100
N 	N 	0.66490 0.17930 0.25000 -0.26400
C 	C 	0.73970 0.18400 0.25000 0.11800
N 	N 	0.70780 0.03010 0.25000 -0.87300
O 	O 	0.76550 0.12840 0.25000 -0.64200
C 	C 	0.72020 0.09140 0.25000 0.56100
C 	C 	0.73400 0.98600 0.25000 -0.52400
C 	C 	0.58800 0.33250 0.25000 -0.00100
N 	N 	0.51440 0.33510 0.25000 -0.26400
C 	C 	0.44430 0.26030 0.25000 0.11800
N 	N 	0.32230 0.29220 0.25000 -0.87400
O 	O 	0.36290 0.23450 0.25000 -0.64200
C 	C 	0.37120 0.27980 0.25000 0.56000
C 	C 	0.25200 0.26600 0.25000 -0.52400
C 	C 	0.50895 0.01790 0.05880 -0.27200
C 	C 	0.98210 0.49105 0.05880 -0.27200
C 	C 	0.50895 0.49105 0.05880 -0.27200
C 	C 	0.49105 0.98210 0.55880 -0.27200
C 	C 	0.01790 0.50895 0.55880 -0.27200
C 	C 	0.49105 0.50895 0.55880 -0.27200
C 	C 	0.01790 0.50895 0.94120 -0.27200
C 	C 	0.49105 0.98210 0.94120 -0.27200
C 	C 	0.49105 0.50895 0.94120 -0.27200
C 	C 	0.98210 0.49105 0.44120 -0.27200
C 	C 	0.50895 0.01790 0.44120 -0.27200
C 	C 	0.50895 0.49105 0.44120 -0.27200
