data_crystal

_cell_length_a 18.03400
_cell_length_b 18.03400
_cell_length_c 8.79100
_cell_angle_alpha 90.00000
_cell_angle_beta  90.00000
_cell_angle_gamma 120.00000

_symmetry_space_group_name_	'P 1'
_symmetry_space_group_name_H-M	'P 1'

loop_
_symmetry_equiv_pos_as_xyz
  x,y,z

loop_
_atom_site_label
_atom_site_type_symbol
_atom_site_fract_x
_atom_site_fract_y
_atom_site_fract_z
_atom_site_charge
C 	C 	0.24200 0.98800 0.70000 1.29200
C 	C 	0.33800 0.03400 0.68000 0.25100
C 	C 	0.25500 0.96900 0.70900 -1.30800
C 	C 	0.01200 0.25400 0.70000 1.02200
C 	C 	0.96600 0.30400 0.68000 0.22800
C 	C 	0.03100 0.28600 0.70900 -1.05100
C 	C 	0.74600 0.75800 0.70000 1.25700
C 	C 	0.69600 0.66200 0.68000 0.24800
C 	C 	0.71400 0.74500 0.70900 -1.28100
C 	C 	0.75800 0.01200 0.20000 1.29100
C 	C 	0.66200 0.96600 0.18000 0.25000
C 	C 	0.74500 0.03100 0.20900 -1.30900
C 	C 	0.98800 0.74600 0.20000 1.02100
C 	C 	0.03400 0.69600 0.18000 0.22600
C 	C 	0.96900 0.71400 0.20900 -1.05200
C 	C 	0.25400 0.24200 0.20000 1.25600
C 	C 	0.30400 0.33800 0.18000 0.24600
C 	C 	0.28600 0.25500 0.20900 -1.28100
C 	C 	0.98800 0.24200 0.30000 1.29100
C 	C 	0.03400 0.33800 0.32000 0.25000
C 	C 	0.96900 0.25500 0.29100 -1.30900
C 	C 	0.25400 0.01200 0.30000 1.02100
C 	C 	0.30400 0.96600 0.32000 0.22700
C 	C 	0.28600 0.03100 0.29100 -1.05200
C 	C 	0.75800 0.74600 0.30000 1.25600
C 	C 	0.66200 0.69600 0.32000 0.24700
C 	C 	0.74500 0.71400 0.29100 -1.28100
C 	C 	0.01200 0.75800 0.80000 1.29100
C 	C 	0.96600 0.66200 0.82000 0.25000
C 	C 	0.03100 0.74500 0.79100 -1.30900
C 	C 	0.74600 0.98800 0.80000 1.02100
C 	C 	0.69600 0.03400 0.82000 0.22600
C 	C 	0.71400 0.96900 0.79100 -1.05200
C 	C 	0.24200 0.25400 0.80000 1.25600
C 	C 	0.33800 0.30400 0.82000 0.24600
C 	C 	0.25500 0.28600 0.79100 -1.28100
C 	C 	0.75800 0.01200 0.30000 1.29100
C 	C 	0.66200 0.96600 0.32000 0.25000
C 	C 	0.74500 0.03100 0.29100 -1.30900
C 	C 	0.98800 0.74600 0.30000 1.02100
C 	C 	0.03400 0.69600 0.32000 0.22700
C 	C 	0.96900 0.71400 0.29100 -1.05200
C 	C 	0.25400 0.24200 0.30000 1.25600
C 	C 	0.30400 0.33800 0.32000 0.24700
C 	C 	0.28600 0.25500 0.29100 -1.28100
C 	C 	0.24200 0.98800 0.80000 1.29100
C 	C 	0.33800 0.03400 0.82000 0.25000
C 	C 	0.25500 0.96900 0.79100 -1.30900
C 	C 	0.01200 0.25400 0.80000 1.02100
C 	C 	0.96600 0.30400 0.82000 0.22600
C 	C 	0.03100 0.28600 0.79100 -1.05200
C 	C 	0.74600 0.75800 0.80000 1.25600
C 	C 	0.69600 0.66200 0.82000 0.24600
C 	C 	0.71400 0.74500 0.79100 -1.28100
C 	C 	0.01200 0.75800 0.70000 1.29100
C 	C 	0.96600 0.66200 0.68000 0.25000
C 	C 	0.03100 0.74500 0.70900 -1.30900
C 	C 	0.74600 0.98800 0.70000 1.02100
C 	C 	0.69600 0.03400 0.68000 0.22700
C 	C 	0.71400 0.96900 0.70900 -1.05200
C 	C 	0.24200 0.25400 0.70000 1.25600
C 	C 	0.33800 0.30400 0.68000 0.24700
C 	C 	0.25500 0.28600 0.70900 -1.28100
C 	C 	0.98800 0.24200 0.20000 1.29100
C 	C 	0.03400 0.33800 0.18000 0.25000
C 	C 	0.96900 0.25500 0.20900 -1.30900
C 	C 	0.25400 0.01200 0.20000 1.02100
C 	C 	0.30400 0.96600 0.18000 0.22600
C 	C 	0.28600 0.03100 0.20900 -1.05200
C 	C 	0.75800 0.74600 0.20000 1.25600
C 	C 	0.66200 0.69600 0.18000 0.24600
C 	C 	0.74500 0.71400 0.20900 -1.28100
Cu	Cu	0.53610 0.07220 0.75000 0.83300
Cu	Cu	0.92780 0.46390 0.75000 0.83300
Cu	Cu	0.53610 0.46390 0.75000 0.83200
Cu	Cu	0.46390 0.92780 0.25000 0.83300
Cu	Cu	0.07220 0.53610 0.25000 0.83300
Cu	Cu	0.46390 0.53610 0.25000 0.83200
C 	C 	0.50860 0.01720 0.55850 -0.21700
C 	C 	0.98280 0.49140 0.55850 -0.21700
C 	C 	0.50860 0.49140 0.55850 -0.21800
C 	C 	0.49140 0.98280 0.05850 -0.21800
C 	C 	0.01720 0.50860 0.05850 -0.21800
C 	C 	0.49140 0.50860 0.05850 -0.21800
C 	C 	0.01720 0.50860 0.44150 -0.21700
C 	C 	0.49140 0.98280 0.44150 -0.21700
C 	C 	0.49140 0.50860 0.44150 -0.21800
C 	C 	0.98280 0.49140 0.94150 -0.21800
C 	C 	0.50860 0.01720 0.94150 -0.21800
C 	C 	0.50860 0.49140 0.94150 -0.21800
N 	N 	0.51380 0.17890 0.75000 -0.23200
C 	C 	0.58820 0.25570 0.75000 0.01100
C 	C 	0.44290 0.18240 0.75000 0.12200
O 	O 	0.36160 0.12320 0.75000 -0.13200
C 	C 	0.36900 0.09550 0.75000 -0.33100
N 	N 	0.31100 0.02940 0.75000 -0.58000
C 	C 	0.35300 0.03260 0.75000 0.49300
N 	N 	0.82110 0.33490 0.75000 -0.22700
C 	C 	0.74430 0.33250 0.75000 0.01200
C 	C 	0.81760 0.26050 0.75000 0.11700
O 	O 	0.87680 0.23840 0.75000 -0.04700
C 	C 	0.90450 0.27350 0.75000 -0.39900
N 	N 	0.97060 0.28160 0.75000 -0.53300
C 	C 	0.96740 0.32040 0.75000 0.47200
N 	N 	0.66510 0.48620 0.75000 -0.23100
C 	C 	0.66750 0.41180 0.75000 0.01100
C 	C 	0.73950 0.55710 0.75000 0.12200
O 	O 	0.76160 0.63840 0.75000 -0.12000
C 	C 	0.72650 0.63100 0.75000 -0.34100
N 	N 	0.71840 0.68900 0.75000 -0.57000
C 	C 	0.67960 0.64700 0.75000 0.48700
N 	N 	0.48620 0.82110 0.25000 -0.23200
C 	C 	0.41180 0.74430 0.25000 0.01100
C 	C 	0.55710 0.81760 0.25000 0.12200
O 	O 	0.63840 0.87680 0.25000 -0.13200
C 	C 	0.63100 0.90450 0.25000 -0.33100
N 	N 	0.68900 0.97060 0.25000 -0.58000
C 	C 	0.64700 0.96740 0.25000 0.49300
N 	N 	0.17890 0.66510 0.25000 -0.22700
C 	C 	0.25570 0.66750 0.25000 0.01200
C 	C 	0.18240 0.73950 0.25000 0.11700
O 	O 	0.12320 0.76160 0.25000 -0.04700
C 	C 	0.09550 0.72650 0.25000 -0.39900
N 	N 	0.02940 0.71840 0.25000 -0.53300
C 	C 	0.03260 0.67960 0.25000 0.47200
N 	N 	0.33490 0.51380 0.25000 -0.23100
C 	C 	0.33250 0.58820 0.25000 0.01100
C 	C 	0.26050 0.44290 0.25000 0.12200
O 	O 	0.23840 0.36160 0.25000 -0.12000
C 	C 	0.27350 0.36900 0.25000 -0.34100
N 	N 	0.28160 0.31100 0.25000 -0.57000
C 	C 	0.32040 0.35300 0.25000 0.48700
N 	N 	0.17890 0.51380 0.25000 -0.23200
C 	C 	0.25570 0.58820 0.25000 0.01100
C 	C 	0.18240 0.44290 0.25000 0.12200
O 	O 	0.12320 0.36160 0.25000 -0.13200
C 	C 	0.09550 0.36900 0.25000 -0.33100
N 	N 	0.02940 0.31100 0.25000 -0.58000
C 	C 	0.03260 0.35300 0.25000 0.49300
N 	N 	0.33490 0.82110 0.25000 -0.22700
C 	C 	0.33250 0.74430 0.25000 0.01200
C 	C 	0.26050 0.81760 0.25000 0.11700
O 	O 	0.23840 0.87680 0.25000 -0.04700
C 	C 	0.27350 0.90450 0.25000 -0.39900
N 	N 	0.28160 0.97060 0.25000 -0.53300
C 	C 	0.32040 0.96740 0.25000 0.47200
N 	N 	0.48620 0.66510 0.25000 -0.23100
C 	C 	0.41180 0.66750 0.25000 0.01100
C 	C 	0.55710 0.73950 0.25000 0.12200
O 	O 	0.63840 0.76160 0.25000 -0.12000
C 	C 	0.63100 0.72650 0.25000 -0.34100
N 	N 	0.68900 0.71840 0.25000 -0.57000
C 	C 	0.64700 0.67960 0.25000 0.48700
N 	N 	0.82110 0.48620 0.75000 -0.23200
C 	C 	0.74430 0.41180 0.75000 0.01100
C 	C 	0.81760 0.55710 0.75000 0.12200
O 	O 	0.87680 0.63840 0.75000 -0.13200
C 	C 	0.90450 0.63100 0.75000 -0.33100
N 	N 	0.97060 0.68900 0.75000 -0.58000
C 	C 	0.96740 0.64700 0.75000 0.49300
N 	N 	0.66510 0.17890 0.75000 -0.22700
C 	C 	0.66750 0.25570 0.75000 0.01200
C 	C 	0.73950 0.18240 0.75000 0.11700
O 	O 	0.76160 0.12320 0.75000 -0.04700
C 	C 	0.72650 0.09550 0.75000 -0.39900
N 	N 	0.71840 0.02940 0.75000 -0.53300
C 	C 	0.67960 0.03260 0.75000 0.47200
N 	N 	0.51380 0.33490 0.75000 -0.23100
C 	C 	0.58820 0.33250 0.75000 0.01100
C 	C 	0.44290 0.26050 0.75000 0.12200
O 	O 	0.36160 0.23840 0.75000 -0.12000
C 	C 	0.36900 0.27350 0.75000 -0.34100
N 	N 	0.31100 0.28160 0.75000 -0.57000
C 	C 	0.35300 0.32040 0.75000 0.48700
