data_crystal

_cell_length_a 20.77480
_cell_length_b 12.03410
_cell_length_c 10.34860
_cell_angle_alpha 90.00000
_cell_angle_beta  90.00000
_cell_angle_gamma 90.00000

_symmetry_space_group_name_	'P 1'
_symmetry_space_group_name_H-M	'P 1'

loop_
_symmetry_equiv_pos_as_xyz
  x,y,z

loop_
_atom_site_label
_atom_site_type_symbol
_atom_site_fract_x
_atom_site_fract_y
_atom_site_fract_z
_atom_site_charge
C 	C 	0.21570 0.26890 0.34520 -0.16300
H 	H 	0.18840 0.29010 0.41450 0.03300
C 	C 	0.19700 0.23240 0.22570 0.02200
C 	C 	0.12760 0.20970 0.17890 -0.14100
C 	C 	0.10850 0.09060 0.21810 0.05900
C 	C 	0.92940 0.94250 0.67850 0.04600
H 	H 	0.95120 0.89540 0.61910 0.02100
C 	C 	0.12240 0.22470 0.03200 0.11600
C 	C 	0.14140 0.33560 0.97610 -0.42000
H 	H 	0.12730 0.39510 0.03430 0.09400
H 	H 	0.12100 0.34510 0.89150 0.12100
H 	H 	0.18830 0.33870 0.96630 0.09300
C 	C 	0.08340 0.29560 0.24900 0.06600
H 	H 	0.08310 0.27820 0.34250 -0.01000
H 	H 	0.10250 0.37050 0.23860 -0.04300
C 	C 	0.01260 0.29910 0.20000 -0.39400
H 	H 	0.01190 0.32250 0.10940 0.11600
H 	H 	0.98790 0.35200 0.25230 0.11600
H 	H 	0.99340 0.22500 0.20770 0.10700
C 	C 	0.22750 0.16500 0.73500 -0.02000
H 	H 	0.14940 0.16700 0.99050 -0.06200
H 	H 	0.07720 0.20980 0.00680 -0.06800
O 	O 	0.10700 0.06400 0.68200 -0.16000
C 	C 	0.16400 0.12900 0.67300 0.06000
C 	C 	0.28430 0.73110 0.34520 -0.15500
H 	H 	0.31160 0.70990 0.41450 0.03500
C 	C 	0.30300 0.76760 0.22570 0.02800
C 	C 	0.37240 0.79030 0.17890 -0.11100
C 	C 	0.39150 0.90940 0.21810 0.04800
C 	C 	0.57060 0.05750 0.67850 -0.26100
H 	H 	0.54880 0.10460 0.61910 0.09700
C 	C 	0.37760 0.77530 0.03200 0.07700
C 	C 	0.35860 0.66440 0.97610 -0.38200
H 	H 	0.37270 0.60490 0.03430 0.08400
H 	H 	0.37900 0.65490 0.89150 0.11200
H 	H 	0.31170 0.66130 0.96630 0.08300
C 	C 	0.41660 0.70440 0.24900 0.05500
H 	H 	0.41690 0.72180 0.34250 -0.00500
H 	H 	0.39750 0.62950 0.23860 -0.04100
C 	C 	0.48740 0.70090 0.20000 -0.39700
H 	H 	0.48810 0.67750 0.10940 0.11700
H 	H 	0.51210 0.64800 0.25230 0.11900
H 	H 	0.50660 0.77500 0.20770 0.11700
C 	C 	0.27250 0.83500 0.73500 -0.01500
H 	H 	0.35060 0.83300 0.99050 -0.02600
H 	H 	0.42280 0.79020 0.00680 -0.04500
O 	O 	0.39300 0.93600 0.68200 -0.05800
C 	C 	0.33600 0.87100 0.67300 0.08000
C 	C 	0.78430 0.26890 0.65480 -0.16200
H 	H 	0.81160 0.29010 0.58550 0.03400
C 	C 	0.80300 0.23240 0.77430 0.02300
C 	C 	0.87240 0.20970 0.82110 -0.14000
C 	C 	0.89150 0.09060 0.78190 0.06000
C 	C 	0.07060 0.94250 0.32150 0.04700
H 	H 	0.04880 0.89540 0.38090 0.02200
C 	C 	0.87760 0.22470 0.96800 0.11700
C 	C 	0.85860 0.33560 0.02390 -0.41900
H 	H 	0.87270 0.39510 0.96570 0.09500
H 	H 	0.87900 0.34510 0.10850 0.12100
H 	H 	0.81170 0.33870 0.03370 0.09300
C 	C 	0.91660 0.29560 0.75100 0.06600
H 	H 	0.91690 0.27820 0.65750 -0.01000
H 	H 	0.89750 0.37050 0.76140 -0.04300
C 	C 	0.98740 0.29910 0.80000 -0.39400
H 	H 	0.98810 0.32250 0.89060 0.11600
H 	H 	0.01210 0.35200 0.74770 0.11600
H 	H 	0.00660 0.22500 0.79230 0.10700
C 	C 	0.77250 0.16500 0.26500 -0.02000
H 	H 	0.85060 0.16700 0.00950 -0.06200
H 	H 	0.92280 0.20980 0.99320 -0.06800
O 	O 	0.89300 0.06400 0.31800 -0.16000
C 	C 	0.83600 0.12900 0.32700 0.06000
C 	C 	0.71570 0.73110 0.65480 -0.15500
H 	H 	0.68840 0.70990 0.58550 0.03500
C 	C 	0.69700 0.76760 0.77430 0.02800
C 	C 	0.62760 0.79030 0.82110 -0.11100
C 	C 	0.60850 0.90940 0.78190 0.04800
C 	C 	0.42940 0.05750 0.32150 -0.26100
H 	H 	0.45120 0.10460 0.38090 0.09700
C 	C 	0.62240 0.77530 0.96800 0.07700
C 	C 	0.64140 0.66440 0.02390 -0.38200
H 	H 	0.62730 0.60490 0.96570 0.08400
H 	H 	0.62100 0.65490 0.10850 0.11200
H 	H 	0.68830 0.66130 0.03370 0.08300
C 	C 	0.58340 0.70440 0.75100 0.05500
H 	H 	0.58310 0.72180 0.65750 -0.00500
H 	H 	0.60250 0.62950 0.76140 -0.04100
C 	C 	0.51260 0.70090 0.80000 -0.39700
H 	H 	0.51190 0.67750 0.89060 0.11700
H 	H 	0.48790 0.64800 0.74770 0.11900
H 	H 	0.49340 0.77500 0.79230 0.11700
C 	C 	0.72750 0.83500 0.26500 -0.01500
H 	H 	0.64940 0.83300 0.00950 -0.02600
H 	H 	0.57720 0.79020 0.99320 -0.04500
O 	O 	0.60700 0.93600 0.31800 -0.05800
C 	C 	0.66400 0.87100 0.32700 0.08000
C 	C 	0.78430 0.73110 0.65480 -0.15500
H 	H 	0.81160 0.70990 0.58550 0.03500
C 	C 	0.80300 0.76760 0.77430 0.02800
C 	C 	0.87240 0.79030 0.82110 -0.11100
C 	C 	0.89150 0.90940 0.78190 0.04800
C 	C 	0.07060 0.05750 0.32150 -0.25900
H 	H 	0.04880 0.10460 0.38090 0.09700
C 	C 	0.87760 0.77530 0.96800 0.08200
C 	C 	0.85860 0.66440 0.02390 -0.38800
H 	H 	0.87270 0.60490 0.96570 0.08600
H 	H 	0.87900 0.65490 0.10850 0.11300
H 	H 	0.81170 0.66130 0.03370 0.08500
C 	C 	0.91660 0.70440 0.75100 0.05300
H 	H 	0.91690 0.72180 0.65750 -0.00400
H 	H 	0.89750 0.62950 0.76140 -0.04000
C 	C 	0.98740 0.70090 0.80000 -0.39100
H 	H 	0.98810 0.67750 0.89060 0.11600
H 	H 	0.01210 0.64800 0.74770 0.11700
H 	H 	0.00660 0.77500 0.79230 0.11400
C 	C 	0.77250 0.83500 0.26500 -0.01500
H 	H 	0.85060 0.83300 0.00950 -0.02800
H 	H 	0.92280 0.79020 0.99320 -0.04600
O 	O 	0.89300 0.93600 0.31800 -0.05900
C 	C 	0.83600 0.87100 0.32700 0.08000
C 	C 	0.71570 0.26890 0.65480 -0.16200
H 	H 	0.68840 0.29010 0.58550 0.03400
C 	C 	0.69700 0.23240 0.77430 0.02300
C 	C 	0.62760 0.20970 0.82110 -0.14000
C 	C 	0.60850 0.09060 0.78190 0.06000
C 	C 	0.42940 0.94250 0.32150 0.04900
H 	H 	0.45120 0.89540 0.38090 0.02100
C 	C 	0.62240 0.22470 0.96800 0.11300
C 	C 	0.64140 0.33560 0.02390 -0.41200
H 	H 	0.62730 0.39510 0.96570 0.09300
H 	H 	0.62100 0.34510 0.10850 0.12000
H 	H 	0.68830 0.33870 0.03370 0.09100
C 	C 	0.58340 0.29560 0.75100 0.06800
H 	H 	0.58310 0.27820 0.65750 -0.01100
H 	H 	0.60250 0.37050 0.76140 -0.04400
C 	C 	0.51260 0.29910 0.80000 -0.40000
H 	H 	0.51190 0.32250 0.89060 0.11700
H 	H 	0.48790 0.35200 0.74770 0.11900
H 	H 	0.49340 0.22500 0.79230 0.10900
C 	C 	0.72750 0.16500 0.26500 -0.02000
H 	H 	0.64940 0.16700 0.00950 -0.06000
H 	H 	0.57720 0.20980 0.99320 -0.06800
O 	O 	0.60700 0.06400 0.31800 -0.16000
C 	C 	0.66400 0.12900 0.32700 0.06000
C 	C 	0.21570 0.73110 0.34520 -0.15500
H 	H 	0.18840 0.70990 0.41450 0.03500
C 	C 	0.19700 0.76760 0.22570 0.02800
C 	C 	0.12760 0.79030 0.17890 -0.11100
C 	C 	0.10850 0.90940 0.21810 0.04800
C 	C 	0.92940 0.05750 0.67850 -0.25900
H 	H 	0.95120 0.10460 0.61910 0.09700
C 	C 	0.12240 0.77530 0.03200 0.08200
C 	C 	0.14140 0.66440 0.97610 -0.38800
H 	H 	0.12730 0.60490 0.03430 0.08600
H 	H 	0.12100 0.65490 0.89150 0.11300
H 	H 	0.18830 0.66130 0.96630 0.08500
C 	C 	0.08340 0.70440 0.24900 0.05300
H 	H 	0.08310 0.72180 0.34250 -0.00400
H 	H 	0.10250 0.62950 0.23860 -0.04000
C 	C 	0.01260 0.70090 0.20000 -0.39100
H 	H 	0.01190 0.67750 0.10940 0.11600
H 	H 	0.98790 0.64800 0.25230 0.11700
H 	H 	0.99340 0.77500 0.20770 0.11400
C 	C 	0.22750 0.83500 0.73500 -0.01500
H 	H 	0.14940 0.83300 0.99050 -0.02800
H 	H 	0.07720 0.79020 0.00680 -0.04600
O 	O 	0.10700 0.93600 0.68200 -0.05900
C 	C 	0.16400 0.87100 0.67300 0.08000
C 	C 	0.28430 0.26890 0.34520 -0.16200
H 	H 	0.31160 0.29010 0.41450 0.03400
C 	C 	0.30300 0.23240 0.22570 0.02300
C 	C 	0.37240 0.20970 0.17890 -0.14000
C 	C 	0.39150 0.09060 0.21810 0.06000
C 	C 	0.57060 0.94250 0.67850 0.04900
H 	H 	0.54880 0.89540 0.61910 0.02100
C 	C 	0.37760 0.22470 0.03200 0.11300
C 	C 	0.35860 0.33560 0.97610 -0.41200
H 	H 	0.37270 0.39510 0.03430 0.09300
H 	H 	0.37900 0.34510 0.89150 0.12000
H 	H 	0.31170 0.33870 0.96630 0.09100
C 	C 	0.41660 0.29560 0.24900 0.06800
H 	H 	0.41690 0.27820 0.34250 -0.01100
H 	H 	0.39750 0.37050 0.23860 -0.04400
C 	C 	0.48740 0.29910 0.20000 -0.40000
H 	H 	0.48810 0.32250 0.10940 0.11700
H 	H 	0.51210 0.35200 0.25230 0.11900
H 	H 	0.50660 0.22500 0.20770 0.10900
C 	C 	0.27250 0.16500 0.73500 -0.02000
H 	H 	0.35060 0.16700 0.99050 -0.06000
H 	H 	0.42280 0.20980 0.00680 -0.06800
O 	O 	0.39300 0.06400 0.68200 -0.16000
C 	C 	0.33600 0.12900 0.67300 0.06000
Cs	Cs	0.25000 0.00000 0.96634 0.67500
Cs	Cs	0.25000 0.00000 0.35131 0.67900
Cs	Cs	0.75000 0.00000 0.03366 0.67500
Cs	Cs	0.75000 -0.00000 0.64869 0.67900
Cs	Cs	0.01411 -0.00000 0.97218 0.46700
N 	N 	0.13110 0.00000 0.15360 -0.26300
O 	O 	0.13600 0.00000 0.74800 -0.19700
Cs	Cs	0.48589 -0.00000 0.97218 0.46700
N 	N 	0.36890 0.00000 0.15360 -0.26400
O 	O 	0.36400 0.00000 0.74800 -0.19800
Cs	Cs	0.98589 -0.00000 0.02782 0.46700
N 	N 	0.86890 0.00000 0.84640 -0.26300
O 	O 	0.86400 0.00000 0.25200 -0.19700
Cs	Cs	0.51411 -0.00000 0.02782 0.46700
N 	N 	0.63110 0.00000 0.84640 -0.26400
O 	O 	0.63600 0.00000 0.25200 -0.19800
Cs	Cs	0.25000 0.50000 0.16530 0.53000
Cs	Cs	0.25000 0.50000 0.27550 0.53300
Cs	Cs	0.75000 0.50000 0.83470 0.53000
Cs	Cs	0.75000 0.50000 0.72450 0.53300
N 	N 	0.25000 0.20860 0.15120 -0.19600
O 	O 	0.25000 0.07800 0.65300 -0.21800
N 	N 	0.25000 0.79140 0.15120 -0.18100
O 	O 	0.25000 0.92200 0.65300 -0.14200
N 	N 	0.75000 0.20860 0.84880 -0.19600
O 	O 	0.75000 0.07800 0.34700 -0.21800
N 	N 	0.75000 0.79140 0.84880 -0.18100
O 	O 	0.75000 0.92200 0.34700 -0.14200
