data_crystal

_cell_length_a 12.32450
_cell_length_b 12.32450
_cell_length_c 5.96100
_cell_angle_alpha 90.00000
_cell_angle_beta  90.00000
_cell_angle_gamma 90.00000

_symmetry_space_group_name_	'P 1'
_symmetry_space_group_name_H-M	'P 1'

loop_
_symmetry_equiv_pos_as_xyz
  x,y,z

loop_
_atom_site_label
_atom_site_type_symbol
_atom_site_fract_x
_atom_site_fract_y
_atom_site_fract_z
_atom_site_charge
Cu	Cu	0.65916 0.12645 0.45449 0.82500
Cu	Cu	0.86395 0.02542 0.58787 1.51900
S 	S 	0.86909 0.02343 0.20870 -5.54400
N 	N 	0.75450 0.05310 0.83270 -0.21600
C 	C 	0.75580 0.05600 0.05650 1.55400
N 	N 	0.28240 0.25460 0.95770 -0.21400
N 	N 	0.65430 0.09390 0.76560 -0.25200
N 	N 	0.65910 0.09340 0.13850 -0.47800
C 	C 	0.59950 0.11500 0.95200 0.06300
C 	C 	0.48910 0.16030 0.95560 -0.13600
C 	C 	0.42420 0.15300 0.77700 -0.08200
H 	H 	0.44810 0.11720 0.64870 0.00800
C 	C 	0.31830 0.19990 0.78110 -0.09300
H 	H 	0.27330 0.19200 0.65690 0.09000
C 	C 	0.34440 0.25880 0.13800 -0.19900
H 	H 	0.31770 0.29400 0.26480 0.08200
C 	C 	0.42290 0.15550 0.13960 0.31800
H 	H 	0.44480 0.11870 0.26800 -0.10700
C 	C 	0.44850 0.21330 0.76700 0.07300
C 	C 	0.34680 0.25920 0.77300 0.05600
C 	C 	0.32570 0.20470 0.13200 0.25800
C 	C 	0.45030 0.21200 0.14900 -0.27400
Cu	Cu	0.86310 0.02400 0.33520 3.76000
H 	H 	0.49020 0.21770 0.63760 -0.04200
H 	H 	0.32130 0.29480 0.64630 -0.00800
H 	H 	0.28470 0.20350 0.26270 -0.02000
H 	H 	0.49170 0.21560 0.27960 0.08000
S 	S 	0.87080 0.02250 0.71600 -1.03700
Cu	Cu	0.34084 0.87355 0.45449 0.82400
Cu	Cu	0.13605 0.97458 0.58787 1.51800
S 	S 	0.13091 0.97657 0.20870 -5.54500
N 	N 	0.24550 0.94690 0.83270 -0.21700
C 	C 	0.24420 0.94400 0.05650 1.55300
N 	N 	0.71760 0.74540 0.95770 -0.21500
N 	N 	0.34570 0.90610 0.76560 -0.25200
N 	N 	0.34090 0.90660 0.13850 -0.47800
C 	C 	0.40050 0.88500 0.95200 0.06300
C 	C 	0.51090 0.83970 0.95560 -0.13600
C 	C 	0.57580 0.84700 0.77700 -0.08200
H 	H 	0.55190 0.88280 0.64870 0.00800
C 	C 	0.68170 0.80010 0.78110 -0.09300
H 	H 	0.72670 0.80800 0.65690 0.09000
C 	C 	0.65560 0.74120 0.13800 -0.19900
H 	H 	0.68230 0.70600 0.26480 0.08200
C 	C 	0.57710 0.84450 0.13960 0.31800
H 	H 	0.55520 0.88130 0.26800 -0.10700
C 	C 	0.55150 0.78670 0.76700 0.07300
C 	C 	0.65320 0.74080 0.77300 0.05600
C 	C 	0.67430 0.79530 0.13200 0.25800
C 	C 	0.54970 0.78800 0.14900 -0.27400
Cu	Cu	0.13690 0.97600 0.33520 3.76000
H 	H 	0.50980 0.78230 0.63760 -0.04200
H 	H 	0.67870 0.70520 0.64630 -0.00800
H 	H 	0.71530 0.79650 0.26270 -0.02000
H 	H 	0.50830 0.78440 0.27960 0.08000
S 	S 	0.12920 0.97750 0.71600 -1.03700
Cu	Cu	0.87355 0.65916 0.95449 0.79300
Cu	Cu	0.97458 0.86395 0.08787 1.51100
S 	S 	0.97657 0.86909 0.70870 -5.55800
N 	N 	0.94690 0.75450 0.33270 -0.17800
C 	C 	0.94400 0.75580 0.55650 1.47800
N 	N 	0.74540 0.28240 0.45770 -0.17100
N 	N 	0.90610 0.65430 0.26560 -0.23600
N 	N 	0.90660 0.65910 0.63850 -0.50700
C 	C 	0.88500 0.59950 0.45200 0.10800
C 	C 	0.83970 0.48910 0.45560 -0.04900
C 	C 	0.84700 0.42420 0.27700 -0.08700
H 	H 	0.88280 0.44810 0.14870 0.02800
C 	C 	0.80010 0.31830 0.28110 -0.07900
H 	H 	0.80800 0.27330 0.15690 0.10200
C 	C 	0.74120 0.34440 0.63800 -0.19500
H 	H 	0.70600 0.31770 0.76480 0.05900
C 	C 	0.84450 0.42290 0.63960 0.25100
H 	H 	0.88130 0.44480 0.76800 -0.10800
C 	C 	0.78670 0.44850 0.26700 0.05100
C 	C 	0.74080 0.34680 0.27300 0.06500
C 	C 	0.79530 0.32570 0.63200 0.20300
C 	C 	0.78800 0.45030 0.64900 -0.29100
Cu	Cu	0.97600 0.86310 0.83520 3.74600
H 	H 	0.78230 0.49020 0.13760 -0.01100
H 	H 	0.70520 0.32130 0.14630 0.01200
H 	H 	0.79650 0.28470 0.76270 -0.02100
H 	H 	0.78440 0.49170 0.77960 0.06200
S 	S 	0.97750 0.87080 0.21600 -0.95900
Cu	Cu	0.12645 0.34084 0.95449 0.79300
Cu	Cu	0.02542 0.13605 0.08787 1.51100
S 	S 	0.02343 0.13091 0.70870 -5.55800
N 	N 	0.05310 0.24550 0.33270 -0.17800
C 	C 	0.05600 0.24420 0.55650 1.47800
N 	N 	0.25460 0.71760 0.45770 -0.17100
N 	N 	0.09390 0.34570 0.26560 -0.23600
N 	N 	0.09340 0.34090 0.63850 -0.50700
C 	C 	0.11500 0.40050 0.45200 0.10800
C 	C 	0.16030 0.51090 0.45560 -0.04900
C 	C 	0.15300 0.57580 0.27700 -0.08700
H 	H 	0.11720 0.55190 0.14870 0.02800
C 	C 	0.19990 0.68170 0.28110 -0.07900
H 	H 	0.19200 0.72670 0.15690 0.10200
C 	C 	0.25880 0.65560 0.63800 -0.19500
H 	H 	0.29400 0.68230 0.76480 0.05900
C 	C 	0.15550 0.57710 0.63960 0.25100
H 	H 	0.11870 0.55520 0.76800 -0.10800
C 	C 	0.21330 0.55150 0.26700 0.05100
C 	C 	0.25920 0.65320 0.27300 0.06500
C 	C 	0.20470 0.67430 0.63200 0.20300
C 	C 	0.21200 0.54970 0.64900 -0.29100
Cu	Cu	0.02400 0.13690 0.83520 3.74600
H 	H 	0.21770 0.50980 0.13760 -0.01100
H 	H 	0.29480 0.67870 0.14630 0.01200
H 	H 	0.20350 0.71530 0.76270 -0.02100
H 	H 	0.21560 0.50830 0.77960 0.06200
S 	S 	0.02250 0.12920 0.21600 -0.95900
