data_crystal

_cell_length_a 18.07900
_cell_length_b 16.43500
_cell_length_c 11.60300
_cell_angle_alpha 90.00000
_cell_angle_beta  90.00000
_cell_angle_gamma 90.00000

_symmetry_space_group_name_	'P 1'
_symmetry_space_group_name_H-M	'P 1'

loop_
_symmetry_equiv_pos_as_xyz
  x,y,z

loop_
_atom_site_label
_atom_site_type_symbol
_atom_site_fract_x
_atom_site_fract_y
_atom_site_fract_z
_atom_site_charge
V 	V 	0.30264 0.08712 0.62800 1.81300
Li	Li	0.22620 0.10260 0.86060 0.56100
O 	O 	0.30380 0.08590 0.42090 -0.33700
O 	O 	0.30015 0.97937 0.53260 -0.39600
O 	O 	0.30007 0.04415 0.75160 -0.57700
O 	O 	0.20176 0.70537 0.16650 -0.48800
O 	O 	0.40865 0.10413 0.59850 -0.46000
O 	O 	0.22140 0.07370 0.01940 -0.28500
O 	O 	0.19120 0.95570 0.94020 -0.23500
O 	O 	0.46220 0.14460 0.76170 -0.23900
O 	O 	0.22470 0.70990 0.35660 -0.32400
O 	O 	0.64580 0.36800 0.75450 -0.34600
O 	O 	0.69638 0.39930 0.58560 -0.48000
O 	O 	0.53210 0.36210 0.24090 -0.19900
O 	O 	0.46810 0.24860 0.23150 -0.19400
C 	C 	0.29280 0.01210 0.43380 0.30700
C 	C 	0.26720 0.95990 0.33400 -0.04900
C 	C 	0.25130 0.99950 0.23050 0.00900
H 	H 	0.25890 0.05530 0.22410 0.08200
C 	C 	0.22400 0.95570 0.13640 -0.05100
C 	C 	0.21310 0.87270 0.14770 0.02500
H 	H 	0.19510 0.84320 0.08530 0.06600
C 	C 	0.22840 0.83240 0.25050 -0.08100
C 	C 	0.25660 0.87700 0.34280 0.02500
H 	H 	0.26830 0.85050 0.41120 0.07300
C 	C 	0.21140 0.99810 0.02180 0.31300
C 	C 	0.48050 0.22560 0.47260 0.02400
H 	H 	0.44470 0.19480 0.43510 0.06800
C 	C 	0.64720 0.36550 0.64750 0.38200
C 	C 	0.54810 0.25940 0.64510 0.03700
H 	H 	0.55650 0.25160 0.72340 0.06100
C 	C 	0.45180 0.15060 0.65780 0.35000
C 	C 	0.21750 0.74250 0.26080 0.37200
C 	C 	0.51960 0.28530 0.41220 -0.05500
C 	C 	0.49510 0.21230 0.58870 -0.07800
C 	C 	0.50510 0.29960 0.28360 0.30800
C 	C 	0.58820 0.31740 0.58610 -0.08900
C 	C 	0.57410 0.32990 0.46870 0.03100
H 	H 	0.60140 0.36840 0.42810 0.06600
V 	V 	0.69736 0.91288 0.12800 1.81200
Li	Li	0.77380 0.89740 0.36060 0.56000
O 	O 	0.69620 0.91410 0.92090 -0.33900
O 	O 	0.69985 0.02063 0.03260 -0.39200
O 	O 	0.69993 0.95585 0.25160 -0.57500
O 	O 	0.79824 0.29463 0.66650 -0.48900
O 	O 	0.59135 0.89587 0.09850 -0.45700
O 	O 	0.77860 0.92630 0.51940 -0.28900
O 	O 	0.80880 0.04430 0.44020 -0.23300
O 	O 	0.53780 0.85540 0.26170 -0.23700
O 	O 	0.77530 0.29010 0.85660 -0.32600
O 	O 	0.35420 0.63200 0.25450 -0.34400
O 	O 	0.30362 0.60070 0.08560 -0.47700
O 	O 	0.46790 0.63790 0.74090 -0.20000
O 	O 	0.53190 0.75140 0.73150 -0.19600
C 	C 	0.70720 0.98790 0.93380 0.30500
C 	C 	0.73280 0.04010 0.83400 -0.05400
C 	C 	0.74870 0.00050 0.73050 0.00800
H 	H 	0.74110 0.94470 0.72410 0.08200
C 	C 	0.77600 0.04430 0.63640 -0.05100
C 	C 	0.78690 0.12730 0.64770 0.02500
H 	H 	0.80490 0.15680 0.58530 0.06500
C 	C 	0.77160 0.16760 0.75050 -0.08300
C 	C 	0.74340 0.12300 0.84280 0.02700
H 	H 	0.73170 0.14950 0.91120 0.07000
C 	C 	0.78860 0.00190 0.52180 0.31200
C 	C 	0.51950 0.77440 0.97260 0.01300
H 	H 	0.55530 0.80520 0.93510 0.07100
C 	C 	0.35280 0.63450 0.14750 0.37800
C 	C 	0.45190 0.74060 0.14510 0.02900
H 	H 	0.44350 0.74840 0.22340 0.06400
C 	C 	0.54820 0.84940 0.15780 0.34700
C 	C 	0.78250 0.25750 0.76080 0.37300
C 	C 	0.48040 0.71470 0.91220 -0.04900
C 	C 	0.50490 0.78770 0.08870 -0.06800
C 	C 	0.49490 0.70040 0.78360 0.30600
C 	C 	0.41180 0.68260 0.08610 -0.07800
C 	C 	0.42590 0.67010 0.96870 0.01900
H 	H 	0.39860 0.63160 0.92810 0.06900
V 	V 	0.80264 0.41288 0.62800 1.81200
Li	Li	0.72620 0.39740 0.86060 0.56000
O 	O 	0.80380 0.41410 0.42090 -0.33900
O 	O 	0.80015 0.52063 0.53260 -0.40000
O 	O 	0.80007 0.45585 0.75160 -0.57600
O 	O 	0.70176 0.79463 0.16650 -0.48900
O 	O 	0.90865 0.39587 0.59850 -0.45900
O 	O 	0.72140 0.42630 0.01940 -0.28700
O 	O 	0.69120 0.54430 0.94020 -0.24100
O 	O 	0.96220 0.35540 0.76170 -0.23900
O 	O 	0.72470 0.79010 0.35660 -0.32400
O 	O 	0.14580 0.13200 0.75450 -0.34700
O 	O 	0.19638 0.10070 0.58560 -0.48100
O 	O 	0.03210 0.13790 0.24090 -0.19900
O 	O 	0.96810 0.25140 0.23150 -0.19300
C 	C 	0.79280 0.48790 0.43380 0.31000
C 	C 	0.76720 0.54010 0.33400 -0.05300
C 	C 	0.75130 0.50050 0.23050 0.01300
H 	H 	0.75890 0.44470 0.22410 0.08100
C 	C 	0.72400 0.54430 0.13640 -0.05400
C 	C 	0.71310 0.62730 0.14770 0.02700
H 	H 	0.69510 0.65680 0.08530 0.06500
C 	C 	0.72840 0.66760 0.25050 -0.08300
C 	C 	0.75660 0.62300 0.34280 0.02700
H 	H 	0.76830 0.64950 0.41120 0.07200
C 	C 	0.71140 0.50190 0.02180 0.32000
C 	C 	0.98050 0.27440 0.47260 0.02500
H 	H 	0.94470 0.30520 0.43510 0.06700
C 	C 	0.14720 0.13450 0.64750 0.38100
C 	C 	0.04810 0.24060 0.64510 0.03600
H 	H 	0.05650 0.24840 0.72340 0.06100
C 	C 	0.95180 0.34940 0.65780 0.35000
C 	C 	0.71750 0.75750 0.26080 0.37300
C 	C 	0.01960 0.21470 0.41220 -0.05600
C 	C 	0.99510 0.28770 0.58870 -0.07800
C 	C 	0.00510 0.20040 0.28360 0.30700
C 	C 	0.08820 0.18260 0.58610 -0.08900
C 	C 	0.07410 0.17010 0.46870 0.03100
H 	H 	0.10140 0.13160 0.42810 0.06600
V 	V 	0.19736 0.58712 0.12800 1.81200
Li	Li	0.27380 0.60260 0.36060 0.56000
O 	O 	0.19620 0.58590 0.92090 -0.33900
O 	O 	0.19985 0.47937 0.03260 -0.39400
O 	O 	0.19993 0.54415 0.25160 -0.57500
O 	O 	0.29824 0.20537 0.66650 -0.48900
O 	O 	0.09135 0.60413 0.09850 -0.45700
O 	O 	0.27860 0.57370 0.51940 -0.28900
O 	O 	0.30880 0.45570 0.44020 -0.23400
O 	O 	0.03780 0.64460 0.26170 -0.23700
O 	O 	0.27530 0.20990 0.85660 -0.32600
O 	O 	0.85420 0.86800 0.25450 -0.34400
O 	O 	0.80362 0.89930 0.08560 -0.47900
O 	O 	0.96790 0.86210 0.74090 -0.20000
O 	O 	0.03190 0.74860 0.73150 -0.19500
C 	C 	0.20720 0.51210 0.93380 0.30300
C 	C 	0.23280 0.45990 0.83400 -0.05100
C 	C 	0.24870 0.49950 0.73050 0.01000
H 	H 	0.24110 0.55530 0.72410 0.08100
C 	C 	0.27600 0.45570 0.63640 -0.05200
C 	C 	0.28690 0.37270 0.64770 0.02600
H 	H 	0.30490 0.34320 0.58530 0.06500
C 	C 	0.27160 0.33240 0.75050 -0.08300
C 	C 	0.24340 0.37700 0.84280 0.02600
H 	H 	0.23170 0.35050 0.91120 0.07100
C 	C 	0.28860 0.49810 0.52180 0.31300
C 	C 	0.01950 0.72560 0.97260 0.01500
H 	H 	0.05530 0.69480 0.93510 0.07000
C 	C 	0.85280 0.86550 0.14750 0.37800
C 	C 	0.95190 0.75940 0.14510 0.03000
H 	H 	0.94350 0.75160 0.22340 0.06400
C 	C 	0.04820 0.65060 0.15780 0.34700
C 	C 	0.28250 0.24250 0.76080 0.37300
C 	C 	0.98040 0.78530 0.91220 -0.05100
C 	C 	0.00490 0.71230 0.08870 -0.06800
C 	C 	0.99490 0.79960 0.78360 0.30500
C 	C 	0.91180 0.81740 0.08610 -0.08000
C 	C 	0.92590 0.82990 0.96870 0.02000
H 	H 	0.89860 0.86840 0.92810 0.06900
