data_crystal

_cell_length_a 9.88360
_cell_length_b 10.98170
_cell_length_c 12.86810
_cell_angle_alpha 90.00000
_cell_angle_beta  90.00000
_cell_angle_gamma 99.38400

_symmetry_space_group_name_	'P 1'
_symmetry_space_group_name_H-M	'P 1'

loop_
_symmetry_equiv_pos_as_xyz
  x,y,z

loop_
_atom_site_label
_atom_site_type_symbol
_atom_site_fract_x
_atom_site_fract_y
_atom_site_fract_z
_atom_site_charge
Mg	Mg	0.62790 0.74970 0.76510 1.47500
Mg	Mg	0.12500 0.75260 0.76430 1.47400
Mg	Mg	0.37210 0.25030 0.26510 1.47400
Mg	Mg	0.87500 0.24740 0.26430 1.47300
H 	H 	0.09950 0.01150 0.53880 0.06400
H 	H 	0.08650 0.13860 0.39990 0.00900
H 	H 	0.69340 0.99710 0.58210 0.06400
H 	H 	0.69480 0.12360 0.44180 0.01200
H 	H 	0.05040 0.49610 0.93370 0.06600
H 	H 	0.05340 0.36350 0.07220 0.01600
H 	H 	0.65360 0.49820 0.99260 0.05600
H 	H 	0.66670 0.36520 0.12810 0.01500
H 	H 	0.38390 0.37360 0.87570 0.04500
H 	H 	0.37660 0.24660 0.01810 0.01800
H 	H 	0.33310 0.64880 0.06480 0.04000
H 	H 	0.35050 0.52440 0.20130 0.02600
H 	H 	0.39290 0.84760 0.46110 0.04600
H 	H 	0.38150 0.98050 0.32260 0.01600
H 	H 	0.39820 0.13510 0.65060 0.04600
H 	H 	0.38450 0.25790 0.50730 0.01600
H 	H 	0.90050 0.98850 0.03880 0.06400
H 	H 	0.91350 0.86140 0.89990 0.00900
H 	H 	0.30660 0.00290 0.08210 0.06300
H 	H 	0.30520 0.87640 0.94180 0.01200
H 	H 	0.94960 0.50390 0.43370 0.06700
H 	H 	0.94660 0.63650 0.57220 0.01400
H 	H 	0.34640 0.50180 0.49260 0.05900
H 	H 	0.33330 0.63480 0.62810 0.01400
H 	H 	0.61610 0.62640 0.37570 0.04400
H 	H 	0.62340 0.75340 0.51810 0.01800
H 	H 	0.66690 0.35120 0.56480 0.04000
H 	H 	0.64950 0.47560 0.70130 0.02600
H 	H 	0.60710 0.15240 0.96110 0.04600
H 	H 	0.61850 0.01950 0.82260 0.01600
H 	H 	0.60180 0.86490 0.15060 0.04600
H 	H 	0.61550 0.74210 0.00730 0.01800
C 	C 	0.90350 0.89900 0.66610 0.43000
C 	C 	0.89570 0.98410 0.57640 -0.08000
C 	C 	0.01530 0.03180 0.51960 -0.04600
C 	C 	0.00690 0.10790 0.43620 0.04200
C 	C 	0.77450 0.02260 0.54590 -0.04900
C 	C 	0.77670 0.09880 0.46130 0.04600
C 	C 	0.84710 0.60290 0.85900 0.46400
C 	C 	0.84910 0.51210 0.94790 -0.08700
C 	C 	0.97140 0.47140 0.97260 -0.04500
C 	C 	0.97220 0.39250 0.05740 0.04100
C 	C 	0.73650 0.47240 0.00750 -0.03000
C 	C 	0.74580 0.39350 0.09030 0.02700
C 	C 	0.34820 0.60700 0.85930 0.47400
C 	C 	0.35050 0.52210 0.95230 -0.10300
C 	C 	0.37040 0.40470 0.94140 -0.02700
C 	C 	0.37080 0.32940 0.02860 0.03100
C 	C 	0.34360 0.56720 0.05370 -0.02000
C 	C 	0.35220 0.49190 0.13460 0.01000
C 	C 	0.40360 0.89350 0.66550 0.41800
C 	C 	0.39230 0.97590 0.57430 -0.08800
C 	C 	0.39040 0.93060 0.47330 -0.03800
C 	C 	0.38460 0.01200 0.38980 0.03400
C 	C 	0.39320 0.09990 0.58470 -0.03400
C 	C 	0.38670 0.17430 0.49770 0.02800
C 	C 	0.09650 0.10100 0.16610 0.43000
C 	C 	0.10430 0.01590 0.07640 -0.07900
C 	C 	0.98470 0.96820 0.01960 -0.04600
C 	C 	0.99310 0.89210 0.93620 0.04100
C 	C 	0.22550 0.97740 0.04590 -0.04600
C 	C 	0.22330 0.90120 0.96130 0.04300
C 	C 	0.15290 0.39710 0.35900 0.46300
C 	C 	0.15090 0.48790 0.44790 -0.08300
C 	C 	0.02860 0.52860 0.47260 -0.04700
C 	C 	0.02780 0.60750 0.55740 0.04400
C 	C 	0.26350 0.52760 0.50750 -0.03600
C 	C 	0.25420 0.60650 0.59030 0.02900
C 	C 	0.65180 0.39300 0.35930 0.47400
C 	C 	0.64950 0.47790 0.45230 -0.10200
C 	C 	0.62960 0.59530 0.44140 -0.02500
C 	C 	0.62920 0.67060 0.52860 0.02900
C 	C 	0.65640 0.43280 0.55370 -0.02300
C 	C 	0.64780 0.50810 0.63460 0.01100
C 	C 	0.59640 0.10650 0.16550 0.41800
C 	C 	0.60770 0.02410 0.07430 -0.08700
C 	C 	0.60960 0.06940 0.97330 -0.03900
C 	C 	0.61540 0.98800 0.88980 0.03400
C 	C 	0.60680 0.90010 0.08470 -0.03200
C 	C 	0.61330 0.82570 0.99770 0.02400
N 	N 	0.88810 0.13980 0.40510 -0.23100
N 	N 	0.86360 0.35550 0.11910 -0.22200
N 	N 	0.36360 0.36780 0.12420 -0.21600
N 	N 	0.38350 0.13050 0.40240 -0.22600
N 	N 	0.11190 0.86020 0.90510 -0.23100
N 	N 	0.13640 0.64450 0.61910 -0.22300
N 	N 	0.63640 0.63220 0.62420 -0.21600
N 	N 	0.61650 0.86950 0.90240 -0.22500
O 	O 	0.79600 0.86630 0.71950 -0.50500
O 	O 	0.01760 0.86470 0.68320 -0.49100
O 	O 	0.73540 0.64240 0.85090 -0.50900
O 	O 	0.94970 0.62870 0.80640 -0.50900
O 	O 	0.45290 0.63000 0.80730 -0.51500
O 	O 	0.23620 0.64100 0.84580 -0.50900
O 	O 	0.51500 0.85400 0.67540 -0.48400
O 	O 	0.30260 0.87120 0.72750 -0.48400
O 	O 	0.20400 0.13370 0.21950 -0.50500
O 	O 	0.98240 0.13530 0.18320 -0.49100
O 	O 	0.26460 0.35760 0.35090 -0.50800
O 	O 	0.05030 0.37130 0.30640 -0.50900
O 	O 	0.54710 0.37000 0.30730 -0.51500
O 	O 	0.76380 0.35900 0.34580 -0.50800
O 	O 	0.48500 0.14600 0.17540 -0.48400
O 	O 	0.69740 0.12880 0.22750 -0.48400
