data_crystal

_cell_length_a 9.84600
_cell_length_b 10.99750
_cell_length_c 12.84150
_cell_angle_alpha 90.00000
_cell_angle_beta  90.00000
_cell_angle_gamma 99.39000

_symmetry_space_group_name_	'P 1'
_symmetry_space_group_name_H-M	'P 1'

loop_
_symmetry_equiv_pos_as_xyz
  x,y,z

loop_
_atom_site_label
_atom_site_type_symbol
_atom_site_fract_x
_atom_site_fract_y
_atom_site_fract_z
_atom_site_charge
Mg	Mg	0.12410 0.75210 0.05790 1.47200
Mg	Mg	0.37240 0.25096 0.55730 1.47500
Mg	Mg	0.62760 0.74904 0.05730 1.47300
Mg	Mg	0.87590 0.24790 0.55790 1.47400
H 	H 	0.10140 0.01350 0.27930 0.05900
H 	H 	0.64940 0.47680 0.11730 0.00900
H 	H 	0.62070 0.75270 0.30230 0.02100
H 	H 	0.39300 0.13340 0.16820 0.03400
H 	H 	0.33300 0.64800 0.75670 0.03700
H 	H 	0.05140 0.49460 0.88550 0.07500
H 	H 	0.38690 0.25750 0.31050 0.01700
H 	H 	0.61830 0.02110 0.99600 0.03600
H 	H 	0.08620 0.13760 0.41950 0.01100
H 	H 	0.65470 0.49830 0.82730 0.06200
H 	H 	0.37930 0.24730 0.80230 0.02600
H 	H 	0.60700 0.86660 0.66820 0.04600
H 	H 	0.38100 0.37090 0.94480 0.05000
H 	H 	0.91380 0.86240 0.91950 0.02400
H 	H 	0.30580 0.87940 0.87870 0.02300
H 	H 	0.89860 0.98650 0.77930 0.06100
H 	H 	0.61900 0.62910 0.44480 0.04200
H 	H 	0.61310 0.74250 0.81050 0.02100
H 	H 	0.30510 0.00710 0.73860 0.05900
H 	H 	0.69490 0.99290 0.23860 0.05800
H 	H 	0.69420 0.12060 0.37870 0.01400
H 	H 	0.94860 0.50540 0.38550 0.07000
H 	H 	0.34530 0.50170 0.32730 0.06200
H 	H 	0.66780 0.36640 0.69070 0.01100
H 	H 	0.94510 0.63520 0.24700 0.01200
H 	H 	0.05490 0.36480 0.74700 0.01500
H 	H 	0.39490 0.84820 0.36000 0.04000
H 	H 	0.66700 0.35200 0.25670 0.03900
H 	H 	0.38170 0.97890 0.49600 0.02300
H 	H 	0.33220 0.63360 0.19070 0.00600
H 	H 	0.35060 0.52320 0.61730 0.02600
H 	H 	0.60510 0.15180 0.86000 0.04800
C 	C 	0.98360 0.96770 0.79920 -0.03100
C 	C 	0.97340 0.39380 0.76180 0.04300
C 	C 	0.77610 0.02020 0.27470 -0.04200
C 	C 	0.25280 0.60530 0.22850 0.03500
C 	C 	0.35420 0.52300 0.86870 -0.12400
C 	C 	0.62770 0.67020 0.29220 0.01800
C 	C 	0.90350 0.89770 0.15420 0.46700
C 	C 	0.39220 0.93100 0.34740 -0.02200
C 	C 	0.64700 0.50940 0.18400 0.02000
C 	C 	0.15390 0.39770 0.46100 0.44600
C 	C 	0.38780 0.17400 0.32080 0.02300
C 	C 	0.60810 0.90020 0.73470 -0.03100
C 	C 	0.39190 0.09980 0.23470 -0.02700
C 	C 	0.60780 0.06900 0.84740 -0.03000
C 	C 	0.38580 0.01070 0.42880 0.01900
C 	C 	0.34480 0.56680 0.76760 -0.01000
C 	C 	0.39450 0.97470 0.24730 -0.10400
C 	C 	0.35300 0.49060 0.68400 0.01200
C 	C 	0.61420 0.98930 0.92880 0.03300
C 	C 	0.61220 0.82600 0.82080 0.02800
C 	C 	0.37070 0.40330 0.87900 -0.00300
C 	C 	0.22290 0.90260 0.85870 0.04400
C 	C 	0.62930 0.59670 0.37900 -0.02000
C 	C 	0.00660 0.10770 0.38240 0.03500
C 	C 	0.09650 0.10230 0.65420 0.46600
C 	C 	0.97210 0.47060 0.84640 -0.04300
C 	C 	0.89800 0.98390 0.24470 -0.09500
C 	C 	0.99340 0.89230 0.88240 0.03600
C 	C 	0.65520 0.43320 0.26760 -0.02800
C 	C 	0.73780 0.47250 0.81200 -0.03500
C 	C 	0.77710 0.09740 0.35870 0.04200
C 	C 	0.26220 0.52750 0.31200 -0.04800
C 	C 	0.02790 0.52940 0.34640 -0.05600
C 	C 	0.02660 0.60620 0.26180 0.04400
C 	C 	0.59720 0.10840 0.65420 0.45200
C 	C 	0.60550 0.02530 0.74730 -0.09500
C 	C 	0.10200 0.01610 0.74470 -0.09400
C 	C 	0.01640 0.03230 0.29920 -0.03800
C 	C 	0.22390 0.97980 0.77470 -0.03400
C 	C 	0.37230 0.32980 0.79220 0.01200
C 	C 	0.14850 0.48880 0.37200 -0.07400
C 	C 	0.84610 0.60230 0.96100 0.51200
C 	C 	0.65240 0.39260 0.46050 0.46700
C 	C 	0.74720 0.39470 0.72850 0.03500
C 	C 	0.40280 0.89160 0.15420 0.45500
C 	C 	0.85150 0.51120 0.87200 -0.08600
C 	C 	0.64580 0.47700 0.36870 -0.10400
C 	C 	0.34760 0.60740 0.96050 0.53800
N 	N 	0.13530 0.64190 0.19940 -0.23500
N 	N 	0.11170 0.85930 0.91310 -0.20800
N 	N 	0.88830 0.14070 0.41310 -0.22300
N 	N 	0.86470 0.35810 0.69940 -0.22900
N 	N 	0.38510 0.13210 0.41720 -0.21700
N 	N 	0.36430 0.37000 0.69430 -0.21800
N 	N 	0.63570 0.63000 0.19430 -0.22400
N 	N 	0.61490 0.86790 0.91720 -0.20700
O 	O 	0.51380 0.85390 0.14600 -0.51100
O 	O 	0.95060 0.63050 0.01370 -0.56600
O 	O 	0.76480 0.35710 0.47460 -0.50500
O 	O 	0.20390 0.13180 0.60140 -0.51700
O 	O 	0.79610 0.86820 0.10140 -0.53700
O 	O 	0.04940 0.36950 0.51370 -0.50500
O 	O 	0.01540 0.86520 0.13790 -0.52400
O 	O 	0.54680 0.36780 0.51290 -0.51300
O 	O 	0.73380 0.64210 0.97050 -0.49300
O 	O 	0.98460 0.13480 0.63790 -0.51100
O 	O 	0.30330 0.87240 0.09410 -0.52100
O 	O 	0.45320 0.63220 0.01290 -0.57600
O 	O 	0.48620 0.14610 0.64600 -0.50000
O 	O 	0.23520 0.64290 0.97460 -0.49700
O 	O 	0.26620 0.35790 0.47050 -0.50300
O 	O 	0.69670 0.12760 0.59410 -0.49900
