data_crystal

_cell_length_a 7.89510
_cell_length_b 9.80700
_cell_length_c 17.36710
_cell_angle_alpha 106.40000
_cell_angle_beta  96.40700
_cell_angle_gamma 90.00000

_symmetry_space_group_name_	'P 1'
_symmetry_space_group_name_H-M	'P 1'

loop_
_symmetry_equiv_pos_as_xyz
  x,y,z

loop_
_atom_site_label
_atom_site_type_symbol
_atom_site_fract_x
_atom_site_fract_y
_atom_site_fract_z
_atom_site_charge
Cd	Cd	0.25000 0.52921 -0.00000 1.15700
Cd	Cd	0.75000 0.47079 -0.00000 1.15500
H 	H 	0.70180 0.54270 0.22200 0.00600
H 	H 	0.85850 0.65210 0.34480 0.09700
H 	H 	0.72420 0.03150 0.32040 0.10000
H 	H 	0.56370 0.92210 0.19900 -0.01200
H 	H 	0.61090 0.82800 0.45080 0.06500
H 	H 	0.50160 0.84900 0.56860 0.03900
H 	H 	0.65510 0.97070 0.69180 0.05000
H 	H 	0.08290 0.93100 0.30480 0.06500
H 	H 	0.79820 0.32070 0.77800 0.02900
H 	H 	0.64150 0.30730 0.65520 0.08500
H 	H 	0.77580 0.71110 0.67960 0.08400
H 	H 	0.93630 0.72310 0.80100 0.03000
H 	H 	0.88910 0.37720 0.54920 0.05700
H 	H 	0.99840 0.28040 0.43140 0.04500
H 	H 	0.84490 0.27890 0.30820 0.03400
H 	H 	0.41710 0.62620 0.69520 0.06400
H 	H 	0.29820 0.45730 0.77800 0.03100
H 	H 	0.14150 0.34790 0.65520 0.08300
H 	H 	0.27580 0.96850 0.67960 0.07500
H 	H 	0.43630 0.07790 0.80100 0.03700
H 	H 	0.38910 0.17200 0.54920 0.05500
H 	H 	0.49840 0.15100 0.43140 0.05100
H 	H 	0.34490 0.02930 0.30820 0.03000
H 	H 	0.91710 0.06900 0.69520 0.05700
H 	H 	0.20180 0.67930 0.22200 0.00800
H 	H 	0.35850 0.69270 0.34480 0.09500
H 	H 	0.22420 0.28890 0.32040 0.09300
H 	H 	0.06370 0.27690 0.19900 -0.00600
H 	H 	0.11090 0.62280 0.45080 0.06200
H 	H 	0.00160 0.71960 0.56860 0.04600
H 	H 	0.15510 0.72110 0.69180 0.04600
H 	H 	0.58290 0.37380 0.30480 0.05800
C 	C 	0.50410 0.64770 0.12240 0.33600
C 	C 	0.61460 0.72125 0.19870 -0.18300
C 	C 	0.70460 0.64127 0.24214 0.09100
C 	C 	0.79930 0.70702 0.31564 -0.18100
C 	C 	0.80600 0.85328 0.34576 0.12600
C 	C 	0.71870 0.93280 0.30120 -0.19700
C 	C 	0.62280 0.86719 0.22818 0.09900
C 	C 	0.90690 0.92665 0.42550 -0.08500
C 	C 	0.06730 0.98814 0.42648 0.04200
C 	C 	0.83750 0.93697 0.49734 0.03500
C 	C 	0.67420 0.87704 0.49928 -0.08600
C 	C 	0.60860 0.88922 0.56944 -0.01600
C 	C 	0.70130 0.96259 0.64378 -0.05400
C 	C 	0.14260 0.97872 0.35444 -0.09800
C 	C 	0.99590 0.52530 0.87760 0.29700
C 	C 	0.88540 0.52255 0.80130 -0.12100
C 	C 	0.79540 0.39913 0.75786 0.04900
C 	C 	0.70070 0.39138 0.68436 -0.14100
C 	C 	0.69400 0.50752 0.65424 0.09300
C 	C 	0.78130 0.63160 0.69880 -0.14500
C 	C 	0.87720 0.63901 0.77182 0.05500
C 	C 	0.59310 0.50115 0.57450 -0.05700
C 	C 	0.43270 0.56166 0.57352 0.02100
C 	C 	0.66250 0.43963 0.50266 0.01700
C 	C 	0.82580 0.37776 0.50072 -0.06600
C 	C 	0.89140 0.31978 0.43056 -0.03700
C 	C 	0.79870 0.31881 0.35622 -0.02800
C 	C 	0.35740 0.62428 0.64556 -0.07300
C 	C 	0.49590 0.35230 0.87760 0.30400
C 	C 	0.38540 0.27875 0.80130 -0.11400
C 	C 	0.29540 0.35873 0.75786 0.04300
C 	C 	0.20070 0.29298 0.68436 -0.13100
C 	C 	0.19400 0.14672 0.65424 0.08200
C 	C 	0.28130 0.06720 0.69880 -0.12500
C 	C 	0.37720 0.13281 0.77182 0.04500
C 	C 	0.09310 0.07335 0.57450 -0.04000
C 	C 	0.93270 0.01186 0.57352 0.00500
C 	C 	0.16250 0.06303 0.50266 0.00900
C 	C 	0.32580 0.12296 0.50072 -0.05400
C 	C 	0.39140 0.11078 0.43056 -0.04900
C 	C 	0.29870 0.03741 0.35622 -0.00900
C 	C 	0.85740 0.02128 0.64556 -0.05400
C 	C 	0.00410 0.47470 0.12240 0.34100
C 	C 	0.11460 0.47745 0.19870 -0.17800
C 	C 	0.20460 0.60087 0.24214 0.08600
C 	C 	0.29930 0.60862 0.31564 -0.17200
C 	C 	0.30600 0.49248 0.34576 0.11600
C 	C 	0.21870 0.36840 0.30120 -0.18000
C 	C 	0.12280 0.36099 0.22818 0.09100
C 	C 	0.40690 0.49885 0.42550 -0.06900
C 	C 	0.56730 0.43834 0.42648 0.02700
C 	C 	0.33750 0.56037 0.49734 0.02600
C 	C 	0.17420 0.62224 0.49928 -0.07300
C 	C 	0.10860 0.68022 0.56944 -0.02900
C 	C 	0.20130 0.68119 0.64378 -0.03300
C 	C 	0.64260 0.37572 0.35444 -0.08100
O 	O 	0.38800 0.71607 0.09534 -0.45300
O 	O 	0.52630 0.51906 0.08792 -0.52900
O 	O 	0.11200 0.62073 0.90466 -0.33300
O 	O 	0.97370 0.43114 0.91208 -0.40500
O 	O 	0.61200 0.28393 0.90466 -0.33800
O 	O 	0.47370 0.48094 0.91208 -0.40400
O 	O 	0.88800 0.37927 0.09534 -0.45800
O 	O 	0.02630 0.56886 0.08792 -0.52800
