data_crystal

_cell_length_a 8.55520
_cell_length_b 10.11330
_cell_length_c 16.70250
_cell_angle_alpha 90.00000
_cell_angle_beta  94.94000
_cell_angle_gamma 90.00000

_symmetry_space_group_name_	'P 1'
_symmetry_space_group_name_H-M	'P 1'

loop_
_symmetry_equiv_pos_as_xyz
  x,y,z

loop_
_atom_site_label
_atom_site_type_symbol
_atom_site_fract_x
_atom_site_fract_y
_atom_site_fract_z
_atom_site_charge
P 	P 	0.65562 0.26770 0.17795 0.71200
P 	P 	0.47390 0.78816 0.08375 0.68100
P 	P 	0.62484 0.26808 0.49267 0.73000
P 	P 	0.84313 0.55025 0.32252 0.71500
P 	P 	0.02530 0.03079 0.41588 0.54800
P 	P 	0.87519 0.54958 0.00899 0.73700
Al	Al	0.83320 0.25785 0.34987 2.39800
Al	Al	0.98060 0.23170 0.54840 2.40100
Al	Al	0.66440 0.55810 0.15113 2.39800
Al	Al	0.47910 0.08700 0.04863 2.39800
Al	Al	0.32480 0.07670 0.51886 2.39400
Al	Al	0.82413 0.24115 0.01952 2.39800
F 	F 	0.54950 0.50390 0.05200 -0.94100
F 	F 	0.19750 0.23010 0.53010 -0.89000
F 	F 	0.95030 0.31680 0.44742 -0.93600
F 	F 	0.69350 0.08760 0.03070 -0.95000
O 	O 	0.66990 0.23150 0.40730 -0.70300
O 	O 	0.78750 0.27910 0.12070 -0.74900
O 	O 	0.83080 0.58270 0.09380 -0.67500
O 	O 	0.71700 0.20190 0.25790 -0.62300
O 	O 	0.29360 0.77260 0.07130 -0.62800
O 	O 	0.20470 0.04780 0.42590 -0.70000
O 	O 	0.92990 0.40410 0.00720 -0.58800
O 	O 	0.75950 0.24140 0.55630 -0.60600
O 	O 	0.53550 0.70130 0.15560 -0.57600
O 	O 	0.73830 0.57490 0.94380 -0.58200
O 	O 	0.51700 0.18490 0.14230 -0.61500
O 	O 	0.51550 0.93060 0.10500 -0.41800
O 	O 	0.56750 0.41300 0.49210 -0.57700
O 	O 	0.54930 0.74760 0.00760 -0.59900
O 	O 	0.90170 0.40770 0.30630 -0.64900
O 	O 	0.98150 0.63600 0.35710 -0.56700
O 	O 	0.96250 0.12000 0.34450 -0.64300
O 	O 	0.59860 0.40860 0.19380 -0.66500
O 	O 	0.77200 0.61270 0.24498 -0.59200
O 	O 	0.48920 0.17420 0.50950 -0.69000
O 	O 	0.01080 0.63660 0.98940 -0.61800
O 	O 	0.98320 0.88740 0.39350 -0.40300
O 	O 	0.95240 0.07310 0.49200 -0.69400
O 	O 	0.71420 0.53500 0.38140 -0.73500
P 	P 	0.34438 0.76770 0.82205 0.71200
P 	P 	0.52610 0.28816 0.91625 0.67900
P 	P 	0.37516 0.76808 0.50733 0.73300
P 	P 	0.15687 0.05025 0.67748 0.58400
P 	P 	0.97470 0.53079 0.58412 0.65800
P 	P 	0.12481 0.04958 0.99101 0.62200
Al	Al	0.16680 0.75785 0.65013 2.39900
Al	Al	0.01940 0.73170 0.45160 2.40200
Al	Al	0.33560 0.05810 0.84887 2.39100
Al	Al	0.52090 0.58700 0.95137 2.40300
Al	Al	0.67520 0.57670 0.48114 2.39900
Al	Al	0.17587 0.74115 0.98048 2.39900
F 	F 	0.45050 0.00390 0.94800 -1.02700
F 	F 	0.80250 0.73010 0.46990 -0.86900
F 	F 	0.04970 0.81680 0.55258 -0.88800
F 	F 	0.30650 0.58760 0.96930 -0.88900
O 	O 	0.33010 0.73150 0.59270 -0.66000
O 	O 	0.21250 0.77910 0.87930 -0.70000
O 	O 	0.16920 0.08270 0.90620 -0.71800
O 	O 	0.28300 0.70190 0.74210 -0.57900
O 	O 	0.70640 0.27260 0.92870 -0.67800
O 	O 	0.79530 0.54780 0.57410 -0.63800
O 	O 	0.07010 0.90410 0.99280 -0.44700
O 	O 	0.24050 0.74140 0.44370 -0.55500
O 	O 	0.46450 0.20130 0.84440 -0.62300
O 	O 	0.26170 0.07490 0.05620 -0.63900
O 	O 	0.48300 0.68490 0.85770 -0.55900
O 	O 	0.48450 0.43060 0.89500 -0.54100
O 	O 	0.43250 0.91300 0.50790 -0.46600
O 	O 	0.45070 0.24760 0.99240 -0.63300
O 	O 	0.09830 0.90770 0.69370 -0.51000
O 	O 	0.01850 0.13600 0.64290 -0.58600
O 	O 	0.03750 0.62000 0.65550 -0.60400
O 	O 	0.40140 0.90860 0.80620 -0.55900
O 	O 	0.22800 0.11270 0.75502 -0.63600
O 	O 	0.51080 0.67420 0.49050 -0.63400
O 	O 	0.98920 0.13660 0.01060 -0.65600
O 	O 	0.01680 0.38740 0.60650 -0.53200
O 	O 	0.04760 0.57310 0.50800 -0.64300
O 	O 	0.28580 0.03500 0.61860 -0.81000
