data_crystal

_cell_length_a 28.01030
_cell_length_b 28.01030
_cell_length_c 6.40440
_cell_angle_alpha 90.00000
_cell_angle_beta  90.00000
_cell_angle_gamma 120.00000

_symmetry_space_group_name_	'P 1'
_symmetry_space_group_name_H-M	'P 1'

loop_
_symmetry_equiv_pos_as_xyz
  x,y,z

loop_
_atom_site_label
_atom_site_type_symbol
_atom_site_fract_x
_atom_site_fract_y
_atom_site_fract_z
_atom_site_charge
Fe	Fe	0.30220 0.02780 0.71130 1.10800
P 	P 	0.42628 0.04033 0.57860 0.41500
O 	O 	0.47740 0.09100 0.51790 -0.25800
O 	O 	0.39160 0.05610 0.71640 -0.49800
O 	O 	0.38900 0.01180 0.39630 -0.51400
N 	N 	0.46191 0.01835 0.93700 -0.18200
C 	C 	0.44516 0.99458 0.72020 -0.07000
C 	C 	0.52392 0.05833 0.95440 0.03700
C 	C 	0.44649 0.97338 0.10140 -0.03700
Fe	Fe	0.96887 0.36113 0.04463 1.10700
P 	P 	0.09295 0.37366 0.91193 0.41400
O 	O 	0.14407 0.42433 0.85123 -0.25800
O 	O 	0.05827 0.38943 0.04973 -0.49700
O 	O 	0.05567 0.34513 0.72963 -0.51400
N 	N 	0.12858 0.35168 0.27033 -0.18300
C 	C 	0.11183 0.32791 0.05353 -0.06900
C 	C 	0.19059 0.39166 0.28773 0.03600
C 	C 	0.11316 0.30671 0.43473 -0.03700
Fe	Fe	0.63553 0.69447 0.37797 1.10800
P 	P 	0.75961 0.70700 0.24527 0.41500
O 	O 	0.81073 0.75767 0.18457 -0.25800
O 	O 	0.72493 0.72277 0.38307 -0.49800
O 	O 	0.72233 0.67847 0.06297 -0.51400
N 	N 	0.79524 0.68502 0.60367 -0.18300
C 	C 	0.77849 0.66125 0.38687 -0.07000
C 	C 	0.85725 0.72500 0.62107 0.03600
C 	C 	0.77982 0.64005 0.76807 -0.03600
Fe	Fe	0.97220 0.27440 0.71130 1.10800
P 	P 	0.95967 0.38595 0.57860 0.41500
O 	O 	0.90900 0.38640 0.51790 -0.25800
O 	O 	0.94390 0.33550 0.71640 -0.49800
O 	O 	0.98820 0.37720 0.39630 -0.51400
N 	N 	0.98165 0.44356 0.93700 -0.18200
C 	C 	0.00542 0.45058 0.72020 -0.07000
C 	C 	0.94167 0.46559 0.95440 0.03700
C 	C 	0.02662 0.47311 0.10140 -0.03700
Fe	Fe	0.63887 0.60773 0.04463 1.10800
P 	P 	0.62634 0.71928 0.91193 0.41400
O 	O 	0.57567 0.71973 0.85123 -0.25800
O 	O 	0.61057 0.66883 0.04973 -0.49700
O 	O 	0.65487 0.71053 0.72963 -0.51400
N 	N 	0.64832 0.77689 0.27033 -0.18300
C 	C 	0.67209 0.78391 0.05353 -0.06900
C 	C 	0.60834 0.79892 0.28773 0.03600
C 	C 	0.69329 0.80644 0.43473 -0.03700
Fe	Fe	0.30553 0.94107 0.37797 1.10800
P 	P 	0.29300 0.05262 0.24527 0.41500
O 	O 	0.24233 0.05307 0.18457 -0.25800
O 	O 	0.27723 0.00217 0.38307 -0.49800
O 	O 	0.32153 0.04387 0.06297 -0.51400
N 	N 	0.31498 0.11023 0.60367 -0.18300
C 	C 	0.33875 0.11725 0.38687 -0.07000
C 	C 	0.27500 0.13226 0.62107 0.03600
C 	C 	0.35995 0.13978 0.76807 -0.03600
Fe	Fe	0.72560 0.69780 0.71130 1.10800
P 	P 	0.61405 0.57372 0.57860 0.41500
O 	O 	0.61360 0.52260 0.51790 -0.25800
O 	O 	0.66450 0.60840 0.71640 -0.49800
O 	O 	0.62280 0.61100 0.39630 -0.51400
N 	N 	0.55644 0.53809 0.93700 -0.18300
C 	C 	0.54942 0.55484 0.72020 -0.07000
C 	C 	0.53441 0.47608 0.95440 0.03700
C 	C 	0.52689 0.55351 0.10140 -0.03700
Fe	Fe	0.39227 0.03113 0.04463 1.10700
P 	P 	0.28072 0.90705 0.91193 0.41400
O 	O 	0.28027 0.85593 0.85123 -0.25800
O 	O 	0.33117 0.94173 0.04973 -0.49700
O 	O 	0.28947 0.94433 0.72963 -0.51400
N 	N 	0.22311 0.87142 0.27033 -0.18300
C 	C 	0.21609 0.88817 0.05353 -0.06800
C 	C 	0.20108 0.80941 0.28773 0.03600
C 	C 	0.19356 0.88684 0.43473 -0.03700
Fe	Fe	0.05893 0.36447 0.37797 1.10800
P 	P 	0.94738 0.24039 0.24527 0.41500
O 	O 	0.94693 0.18927 0.18457 -0.25800
O 	O 	0.99783 0.27507 0.38307 -0.49800
O 	O 	0.95613 0.27767 0.06297 -0.51500
N 	N 	0.88977 0.20476 0.60367 -0.18300
C 	C 	0.88275 0.22151 0.38687 -0.07000
C 	C 	0.86774 0.14275 0.62107 0.03600
C 	C 	0.86022 0.22018 0.76807 -0.03600
Fe	Fe	0.69780 0.97220 0.28870 1.10800
P 	P 	0.57372 0.95967 0.42140 0.41500
O 	O 	0.52260 0.90900 0.48210 -0.25800
O 	O 	0.60840 0.94390 0.28360 -0.49800
O 	O 	0.61100 0.98820 0.60370 -0.51400
N 	N 	0.53809 0.98165 0.06300 -0.18200
C 	C 	0.55484 0.00542 0.27980 -0.07000
C 	C 	0.47608 0.94167 0.04560 0.03700
C 	C 	0.55351 0.02662 0.89860 -0.03700
Fe	Fe	0.36447 0.30553 0.62203 1.10800
P 	P 	0.24039 0.29300 0.75473 0.41500
O 	O 	0.18927 0.24233 0.81543 -0.25800
O 	O 	0.27507 0.27723 0.61693 -0.49800
O 	O 	0.27767 0.32153 0.93703 -0.51400
N 	N 	0.20476 0.31498 0.39633 -0.18300
C 	C 	0.22151 0.33875 0.61313 -0.07000
C 	C 	0.14275 0.27500 0.37893 0.03600
C 	C 	0.22018 0.35995 0.23193 -0.03600
Fe	Fe	0.03113 0.63887 0.95537 1.10700
P 	P 	0.90705 0.62634 0.08807 0.41400
O 	O 	0.85593 0.57567 0.14877 -0.25800
O 	O 	0.94173 0.61057 0.95027 -0.49700
O 	O 	0.94433 0.65487 0.27037 -0.51400
N 	N 	0.87142 0.64832 0.72967 -0.18300
C 	C 	0.88817 0.67209 0.94647 -0.06900
C 	C 	0.80941 0.60834 0.71227 0.03600
C 	C 	0.88684 0.69329 0.56527 -0.03700
Fe	Fe	0.02780 0.72560 0.28870 1.10800
P 	P 	0.04033 0.61405 0.42140 0.41500
O 	O 	0.09100 0.61360 0.48210 -0.25800
O 	O 	0.05610 0.66450 0.28360 -0.49800
O 	O 	0.01180 0.62280 0.60370 -0.51400
N 	N 	0.01835 0.55644 0.06300 -0.18200
C 	C 	0.99458 0.54942 0.27980 -0.07000
C 	C 	0.05833 0.53441 0.04560 0.03700
C 	C 	0.97338 0.52689 0.89860 -0.03700
Fe	Fe	0.69447 0.05893 0.62203 1.10800
P 	P 	0.70700 0.94738 0.75473 0.41500
O 	O 	0.75767 0.94693 0.81543 -0.25800
O 	O 	0.72277 0.99783 0.61693 -0.49800
O 	O 	0.67847 0.95613 0.93703 -0.51400
N 	N 	0.68502 0.88977 0.39633 -0.18300
C 	C 	0.66125 0.88275 0.61313 -0.07000
C 	C 	0.72500 0.86774 0.37893 0.03600
C 	C 	0.64005 0.86022 0.23193 -0.03600
Fe	Fe	0.36113 0.39227 0.95537 1.10800
P 	P 	0.37366 0.28072 0.08807 0.41400
O 	O 	0.42433 0.28027 0.14877 -0.25800
O 	O 	0.38943 0.33117 0.95027 -0.49700
O 	O 	0.34513 0.28947 0.27037 -0.51400
N 	N 	0.35168 0.22311 0.72967 -0.18300
C 	C 	0.32791 0.21609 0.94647 -0.06900
C 	C 	0.39166 0.20108 0.71227 0.03600
C 	C 	0.30671 0.19356 0.56527 -0.03700
Fe	Fe	0.27440 0.30220 0.28870 1.10800
P 	P 	0.38595 0.42628 0.42140 0.41500
O 	O 	0.38640 0.47740 0.48210 -0.25800
O 	O 	0.33550 0.39160 0.28360 -0.49800
O 	O 	0.37720 0.38900 0.60370 -0.51400
N 	N 	0.44356 0.46191 0.06300 -0.18300
C 	C 	0.45058 0.44516 0.27980 -0.07000
C 	C 	0.46559 0.52392 0.04560 0.03700
C 	C 	0.47311 0.44649 0.89860 -0.03700
Fe	Fe	0.94107 0.63553 0.62203 1.10800
P 	P 	0.05262 0.75961 0.75473 0.41500
O 	O 	0.05307 0.81073 0.81543 -0.25800
O 	O 	0.00217 0.72493 0.61693 -0.49800
O 	O 	0.04387 0.72233 0.93703 -0.51500
N 	N 	0.11023 0.79524 0.39633 -0.18300
C 	C 	0.11725 0.77849 0.61313 -0.07000
C 	C 	0.13226 0.85725 0.37893 0.03600
C 	C 	0.13978 0.77982 0.23193 -0.03600
Fe	Fe	0.60773 0.96887 0.95537 1.10700
P 	P 	0.71928 0.09295 0.08807 0.41400
O 	O 	0.71973 0.14407 0.14877 -0.25800
O 	O 	0.66883 0.05827 0.95027 -0.49700
O 	O 	0.71053 0.05567 0.27037 -0.51400
N 	N 	0.77689 0.12858 0.72967 -0.18300
C 	C 	0.78391 0.11183 0.94647 -0.06800
C 	C 	0.79892 0.19059 0.71227 0.03600
C 	C 	0.80644 0.11316 0.56527 -0.03700
