data_crystal

_cell_length_a 28.09420
_cell_length_b 28.09420
_cell_length_c 6.28460
_cell_angle_alpha 90.00000
_cell_angle_beta  90.00000
_cell_angle_gamma 120.00000

_symmetry_space_group_name_	'P 1'
_symmetry_space_group_name_H-M	'P 1'

loop_
_symmetry_equiv_pos_as_xyz
  x,y,z

loop_
_atom_site_label
_atom_site_type_symbol
_atom_site_fract_x
_atom_site_fract_y
_atom_site_fract_z
_atom_site_charge
Co	Co	0.30680 0.03248 0.71680 1.12500
P 	P 	0.42240 0.03100 0.57050 0.43700
O 	O 	0.47470 0.08250 0.52200 -0.26400
O 	O 	0.38960 0.04450 0.71850 -0.51800
O 	O 	0.38500 0.00290 0.38420 -0.53200
N 	N 	0.44779 0.99440 0.95570 -0.18000
C 	C 	0.43940 0.98470 0.71730 -0.06800
C 	C 	0.49750 0.05080 0.00100 -0.04400
C 	C 	0.45150 0.94970 0.08000 0.03700
Co	Co	0.97347 0.36581 0.05013 1.12600
P 	P 	0.08907 0.36433 0.90383 0.43700
O 	O 	0.14137 0.41583 0.85533 -0.26400
O 	O 	0.05627 0.37783 0.05183 -0.51700
O 	O 	0.05167 0.33623 0.71753 -0.53100
N 	N 	0.11446 0.32773 0.28903 -0.17900
C 	C 	0.10607 0.31803 0.05063 -0.06600
C 	C 	0.16417 0.38413 0.33433 -0.04200
C 	C 	0.11817 0.28303 0.41333 0.03600
Co	Co	0.64013 0.69915 0.38347 1.12600
P 	P 	0.75573 0.69767 0.23717 0.43800
O 	O 	0.80803 0.74917 0.18867 -0.26400
O 	O 	0.72293 0.71117 0.38517 -0.51700
O 	O 	0.71833 0.66957 0.05087 -0.53200
N 	N 	0.78112 0.66107 0.62237 -0.17900
C 	C 	0.77273 0.65137 0.38397 -0.06700
C 	C 	0.83083 0.71747 0.66767 -0.04200
C 	C 	0.78483 0.61637 0.74667 0.03700
Co	Co	0.96752 0.27432 0.71680 1.12600
P 	P 	0.96900 0.39140 0.57050 0.43800
O 	O 	0.91750 0.39220 0.52200 -0.26300
O 	O 	0.95550 0.34510 0.71850 -0.51700
O 	O 	0.99710 0.38210 0.38420 -0.53100
N 	N 	0.00560 0.45339 0.95570 -0.17900
C 	C 	0.01530 0.45470 0.71730 -0.06700
C 	C 	0.94920 0.44670 0.00100 -0.04300
C 	C 	0.05030 0.50180 0.08000 0.03700
Co	Co	0.63419 0.60765 0.05013 1.12600
P 	P 	0.63567 0.72473 0.90383 0.43700
O 	O 	0.58417 0.72553 0.85533 -0.26400
O 	O 	0.62217 0.67843 0.05183 -0.51700
O 	O 	0.66377 0.71543 0.71753 -0.53100
N 	N 	0.67227 0.78672 0.28903 -0.17900
C 	C 	0.68197 0.78803 0.05063 -0.06600
C 	C 	0.61587 0.78003 0.33433 -0.04200
C 	C 	0.71697 0.83513 0.41333 0.03600
Co	Co	0.30085 0.94099 0.38347 1.12600
P 	P 	0.30233 0.05807 0.23717 0.43800
O 	O 	0.25083 0.05887 0.18867 -0.26300
O 	O 	0.28883 0.01177 0.38517 -0.51700
O 	O 	0.33043 0.04877 0.05087 -0.53200
N 	N 	0.33893 0.12006 0.62237 -0.17900
C 	C 	0.34863 0.12137 0.38397 -0.06700
C 	C 	0.28253 0.11337 0.66767 -0.04200
C 	C 	0.38363 0.16847 0.74667 0.03700
Co	Co	0.72568 0.69320 0.71680 1.12600
P 	P 	0.60860 0.57760 0.57050 0.43800
O 	O 	0.60780 0.52530 0.52200 -0.26300
O 	O 	0.65490 0.61040 0.71850 -0.51700
O 	O 	0.61790 0.61500 0.38420 -0.53100
N 	N 	0.54661 0.55221 0.95570 -0.17900
C 	C 	0.54530 0.56060 0.71730 -0.06700
C 	C 	0.55330 0.50250 0.00100 -0.04300
C 	C 	0.49820 0.54850 0.08000 0.03700
Co	Co	0.39235 0.02653 0.05013 1.12600
P 	P 	0.27527 0.91093 0.90383 0.43700
O 	O 	0.27447 0.85863 0.85533 -0.26400
O 	O 	0.32157 0.94373 0.05183 -0.51700
O 	O 	0.28457 0.94833 0.71753 -0.53100
N 	N 	0.21328 0.88554 0.28903 -0.17900
C 	C 	0.21197 0.89393 0.05063 -0.06600
C 	C 	0.21997 0.83583 0.33433 -0.04200
C 	C 	0.16487 0.88183 0.41333 0.03600
Co	Co	0.05901 0.35987 0.38347 1.12600
P 	P 	0.94193 0.24427 0.23717 0.43800
O 	O 	0.94113 0.19197 0.18867 -0.26400
O 	O 	0.98823 0.27707 0.38517 -0.51700
O 	O 	0.95123 0.28167 0.05087 -0.53200
N 	N 	0.87994 0.21888 0.62237 -0.17900
C 	C 	0.87863 0.22727 0.38397 -0.06700
C 	C 	0.88663 0.16917 0.66767 -0.04200
C 	C 	0.83153 0.21517 0.74667 0.03700
Co	Co	0.69320 0.96752 0.28320 1.12600
P 	P 	0.57760 0.96900 0.42950 0.43800
O 	O 	0.52530 0.91750 0.47800 -0.26300
O 	O 	0.61040 0.95550 0.28150 -0.51700
O 	O 	0.61500 0.99710 0.61580 -0.53100
N 	N 	0.55221 0.00560 0.04430 -0.17900
C 	C 	0.56060 0.01530 0.28270 -0.06700
C 	C 	0.50250 0.94920 0.99900 -0.04300
C 	C 	0.54850 0.05030 0.92000 0.03700
Co	Co	0.35987 0.30085 0.61653 1.12600
P 	P 	0.24427 0.30233 0.76283 0.43800
O 	O 	0.19197 0.25083 0.81133 -0.26400
O 	O 	0.27707 0.28883 0.61483 -0.51700
O 	O 	0.28167 0.33043 0.94913 -0.53200
N 	N 	0.21888 0.33893 0.37763 -0.17900
C 	C 	0.22727 0.34863 0.61603 -0.06700
C 	C 	0.16917 0.28253 0.33233 -0.04200
C 	C 	0.21517 0.38363 0.25333 0.03700
Co	Co	0.02653 0.63419 0.94987 1.12600
P 	P 	0.91093 0.63567 0.09617 0.43700
O 	O 	0.85863 0.58417 0.14467 -0.26400
O 	O 	0.94373 0.62217 0.94817 -0.51700
O 	O 	0.94833 0.66377 0.28247 -0.53100
N 	N 	0.88554 0.67227 0.71097 -0.17900
C 	C 	0.89393 0.68197 0.94937 -0.06600
C 	C 	0.83583 0.61587 0.66567 -0.04200
C 	C 	0.88183 0.71697 0.58667 0.03600
Co	Co	0.03248 0.72568 0.28320 1.12600
P 	P 	0.03100 0.60860 0.42950 0.43800
O 	O 	0.08250 0.60780 0.47800 -0.26300
O 	O 	0.04450 0.65490 0.28150 -0.51700
O 	O 	0.00290 0.61790 0.61580 -0.53100
N 	N 	0.99440 0.54661 0.04430 -0.17900
C 	C 	0.98470 0.54530 0.28270 -0.06700
C 	C 	0.05080 0.55330 0.99900 -0.04300
C 	C 	0.94970 0.49820 0.92000 0.03700
Co	Co	0.69915 0.05901 0.61653 1.12600
P 	P 	0.69767 0.94193 0.76283 0.43800
O 	O 	0.74917 0.94113 0.81133 -0.26300
O 	O 	0.71117 0.98823 0.61483 -0.51700
O 	O 	0.66957 0.95123 0.94913 -0.53200
N 	N 	0.66107 0.87994 0.37763 -0.17900
C 	C 	0.65137 0.87863 0.61603 -0.06700
C 	C 	0.71747 0.88663 0.33233 -0.04200
C 	C 	0.61637 0.83153 0.25333 0.03700
Co	Co	0.36581 0.39235 0.94987 1.12600
P 	P 	0.36433 0.27527 0.09617 0.43700
O 	O 	0.41583 0.27447 0.14467 -0.26400
O 	O 	0.37783 0.32157 0.94817 -0.51700
O 	O 	0.33623 0.28457 0.28247 -0.53100
N 	N 	0.32773 0.21328 0.71097 -0.17900
C 	C 	0.31803 0.21197 0.94937 -0.06600
C 	C 	0.38413 0.21997 0.66567 -0.04200
C 	C 	0.28303 0.16487 0.58667 0.03600
Co	Co	0.27432 0.30680 0.28320 1.12600
P 	P 	0.39140 0.42240 0.42950 0.43800
O 	O 	0.39220 0.47470 0.47800 -0.26300
O 	O 	0.34510 0.38960 0.28150 -0.51700
O 	O 	0.38210 0.38500 0.61580 -0.53100
N 	N 	0.45339 0.44779 0.04430 -0.17900
C 	C 	0.45470 0.43940 0.28270 -0.06700
C 	C 	0.44670 0.49750 0.99900 -0.04300
C 	C 	0.50180 0.45150 0.92000 0.03700
Co	Co	0.94099 0.64013 0.61653 1.12600
P 	P 	0.05807 0.75573 0.76283 0.43800
O 	O 	0.05887 0.80803 0.81133 -0.26400
O 	O 	0.01177 0.72293 0.61483 -0.51700
O 	O 	0.04877 0.71833 0.94913 -0.53200
N 	N 	0.12006 0.78112 0.37763 -0.17900
C 	C 	0.12137 0.77273 0.61603 -0.06700
C 	C 	0.11337 0.83083 0.33233 -0.04200
C 	C 	0.16847 0.78483 0.25333 0.03700
Co	Co	0.60765 0.97347 0.94987 1.12600
P 	P 	0.72473 0.08907 0.09617 0.43700
O 	O 	0.72553 0.14137 0.14467 -0.26400
O 	O 	0.67843 0.05627 0.94817 -0.51700
O 	O 	0.71543 0.05167 0.28247 -0.53100
N 	N 	0.78672 0.11446 0.71097 -0.17900
C 	C 	0.78803 0.10607 0.94937 -0.06600
C 	C 	0.78003 0.16417 0.66567 -0.04200
C 	C 	0.83513 0.11817 0.58667 0.03600
