data_crystal

_cell_length_a 12.75590
_cell_length_b 12.75590
_cell_length_c 17.74100
_cell_angle_alpha 90.00000
_cell_angle_beta  90.00000
_cell_angle_gamma 120.00000

_symmetry_space_group_name_	'P 1'
_symmetry_space_group_name_H-M	'P 1'

loop_
_symmetry_equiv_pos_as_xyz
  x,y,z

loop_
_atom_site_label
_atom_site_type_symbol
_atom_site_fract_x
_atom_site_fract_y
_atom_site_fract_z
_atom_site_charge
O 	O 	0.94020 0.34900 0.08420 -0.45300
O 	O 	0.82010 0.38730 0.15450 -0.44700
C 	C 	0.87260 0.33000 0.13980 0.41700
C 	C 	0.82400 0.20200 0.17750 -0.17500
H 	H 	0.75910 0.13860 0.14830 0.05900
H 	H 	0.88820 0.18310 0.18410 0.11900
C 	C 	0.89800 0.27800 0.20820 -0.04500
H 	H 	0.92080 0.21810 0.19420 -0.02500
H 	H 	0.96220 0.34030 0.23820 0.08700
O 	O 	0.65100 0.59120 0.08420 -0.48300
O 	O 	0.61270 0.43280 0.15450 -0.46100
C 	C 	0.67000 0.54260 0.13980 0.42200
C 	C 	0.79800 0.62200 0.17750 -0.10600
H 	H 	0.86140 0.62050 0.14830 0.07800
H 	H 	0.81690 0.70510 0.18410 0.05300
C 	C 	0.72200 0.62000 0.20820 -0.11500
H 	H 	0.78190 0.70270 0.19420 0.04700
H 	H 	0.65970 0.62190 0.23820 0.05200
O 	O 	0.40880 0.05980 0.08420 -0.52100
O 	O 	0.56720 0.17990 0.15450 -0.46700
C 	C 	0.45740 0.12740 0.13980 0.40400
C 	C 	0.37800 0.17600 0.17750 -0.08000
H 	H 	0.37950 0.24090 0.14830 0.04100
H 	H 	0.29490 0.11180 0.18410 0.00800
C 	C 	0.38000 0.10200 0.20820 -0.10000
H 	H 	0.29730 0.07920 0.19420 0.04100
H 	H 	0.37810 0.03780 0.23820 -0.00800
O 	O 	0.05980 0.65100 0.08420 -0.51400
O 	O 	0.17990 0.61270 0.15450 -0.46900
C 	C 	0.12740 0.67000 0.13980 0.41100
C 	C 	0.17600 0.79800 0.17750 -0.06500
H 	H 	0.24090 0.86140 0.14830 0.06100
H 	H 	0.11180 0.81690 0.18410 0.00100
C 	C 	0.10200 0.72200 0.20820 -0.12900
H 	H 	0.07920 0.78190 0.19420 0.06800
H 	H 	0.03780 0.65970 0.23820 0.00000
O 	O 	0.34900 0.40880 0.08420 -0.49700
O 	O 	0.38730 0.56720 0.15450 -0.45800
C 	C 	0.33000 0.45740 0.13980 0.40800
C 	C 	0.20200 0.37800 0.17750 -0.13600
H 	H 	0.13860 0.37950 0.14830 0.04100
H 	H 	0.18310 0.29490 0.18410 0.06600
C 	C 	0.27800 0.38000 0.20820 -0.05900
H 	H 	0.21810 0.29730 0.19420 -0.00500
H 	H 	0.34030 0.37810 0.23820 0.03500
O 	O 	0.59120 0.94020 0.08420 -0.44800
O 	O 	0.43280 0.82010 0.15450 -0.44900
C 	C 	0.54260 0.87260 0.13980 0.42300
C 	C 	0.62200 0.82400 0.17750 -0.16000
H 	H 	0.62050 0.75910 0.14830 0.07600
H 	H 	0.70510 0.88820 0.18410 0.11100
C 	C 	0.62000 0.89800 0.20820 -0.07300
H 	H 	0.70270 0.92080 0.19420 0.00100
H 	H 	0.62190 0.96220 0.23820 0.09500
O 	O 	0.34900 0.94020 0.41580 -0.40600
O 	O 	0.38730 0.82010 0.34550 -0.43200
C 	C 	0.33000 0.87260 0.36020 0.41300
C 	C 	0.20200 0.82400 0.32250 -0.16700
H 	H 	0.13860 0.75910 0.35170 0.06900
H 	H 	0.18310 0.88820 0.31590 0.12000
C 	C 	0.27800 0.89800 0.29180 -0.05100
H 	H 	0.21810 0.92080 0.30580 -0.02000
H 	H 	0.34030 0.96220 0.26180 0.09100
O 	O 	0.59120 0.65100 0.41580 -0.43400
O 	O 	0.43280 0.61270 0.34550 -0.44500
C 	C 	0.54260 0.67000 0.36020 0.41800
C 	C 	0.62200 0.79800 0.32250 -0.09600
H 	H 	0.62050 0.86140 0.35170 0.08900
H 	H 	0.70510 0.81690 0.31590 0.05500
C 	C 	0.62000 0.72200 0.29180 -0.12200
H 	H 	0.70270 0.78190 0.30580 0.05200
H 	H 	0.62190 0.65970 0.26180 0.05500
O 	O 	0.05980 0.40880 0.41580 -0.47200
O 	O 	0.17990 0.56720 0.34550 -0.45100
C 	C 	0.12740 0.45740 0.36020 0.40100
C 	C 	0.17600 0.37800 0.32250 -0.07100
H 	H 	0.24090 0.37950 0.35170 0.05200
H 	H 	0.11180 0.29490 0.31590 0.00900
C 	C 	0.10200 0.38000 0.29180 -0.10700
H 	H 	0.07920 0.29730 0.30580 0.04600
H 	H 	0.03780 0.37810 0.26180 -0.00500
O 	O 	0.65100 0.05980 0.41580 -0.46600
O 	O 	0.61270 0.17990 0.34550 -0.45300
C 	C 	0.67000 0.12740 0.36020 0.40800
C 	C 	0.79800 0.17600 0.32250 -0.05600
H 	H 	0.86140 0.24090 0.35170 0.07100
H 	H 	0.81690 0.11180 0.31590 0.00300
C 	C 	0.72200 0.10200 0.29180 -0.13600
H 	H 	0.78190 0.07920 0.30580 0.07200
H 	H 	0.65970 0.03780 0.26180 0.00400
O 	O 	0.40880 0.34900 0.41580 -0.44700
O 	O 	0.56720 0.38730 0.34550 -0.44200
C 	C 	0.45740 0.33000 0.36020 0.40500
C 	C 	0.37800 0.20200 0.32250 -0.12600
H 	H 	0.37950 0.13860 0.35170 0.05100
H 	H 	0.29490 0.18310 0.31590 0.06800
C 	C 	0.38000 0.27800 0.29180 -0.06600
H 	H 	0.29730 0.21810 0.30580 -0.00000
H 	H 	0.37810 0.34030 0.26180 0.03900
O 	O 	0.94020 0.59120 0.41580 -0.40000
O 	O 	0.82010 0.43280 0.34550 -0.43400
C 	C 	0.87260 0.54260 0.36020 0.42000
C 	C 	0.82400 0.62200 0.32250 -0.15100
H 	H 	0.75910 0.62050 0.35170 0.08700
H 	H 	0.88820 0.70510 0.31590 0.11300
C 	C 	0.89800 0.62000 0.29180 -0.08000
H 	H 	0.92080 0.70270 0.30580 0.00600
H 	H 	0.96220 0.62190 0.26180 0.09900
O 	O 	0.05980 0.65100 0.91580 -0.39400
O 	O 	0.17990 0.61270 0.84550 -0.43000
C 	C 	0.12740 0.67000 0.86020 0.40000
C 	C 	0.17600 0.79800 0.82250 -0.04400
H 	H 	0.24090 0.86140 0.85170 0.08300
H 	H 	0.11180 0.81690 0.81590 0.00300
C 	C 	0.10200 0.72200 0.79180 -0.14100
H 	H 	0.07920 0.78190 0.80580 0.07900
H 	H 	0.03780 0.65970 0.76180 0.00600
O 	O 	0.34900 0.40880 0.91580 -0.37500
O 	O 	0.38730 0.56720 0.84550 -0.42000
C 	C 	0.33000 0.45740 0.86020 0.39700
C 	C 	0.20200 0.37800 0.82250 -0.11400
H 	H 	0.13860 0.37950 0.85170 0.06400
H 	H 	0.18310 0.29490 0.81590 0.06700
C 	C 	0.27800 0.38000 0.79180 -0.07300
H 	H 	0.21810 0.29730 0.80580 0.00900
H 	H 	0.34030 0.37810 0.76180 0.04200
O 	O 	0.59120 0.94020 0.91580 -0.33100
O 	O 	0.43280 0.82010 0.84550 -0.41200
C 	C 	0.54260 0.87260 0.86020 0.41200
C 	C 	0.62200 0.82400 0.82250 -0.13800
H 	H 	0.62050 0.75910 0.85170 0.09900
H 	H 	0.70510 0.88820 0.81590 0.11200
C 	C 	0.62000 0.89800 0.79180 -0.08700
H 	H 	0.70270 0.92080 0.80580 0.01500
H 	H 	0.62190 0.96220 0.76180 0.10000
O 	O 	0.94020 0.34900 0.91580 -0.33700
O 	O 	0.82010 0.38730 0.84550 -0.41000
C 	C 	0.87260 0.33000 0.86020 0.40600
C 	C 	0.82400 0.20200 0.82250 -0.15300
H 	H 	0.75910 0.13860 0.85170 0.08100
H 	H 	0.88820 0.18310 0.81590 0.11800
C 	C 	0.89800 0.27800 0.79180 -0.05900
H 	H 	0.92080 0.21810 0.80580 -0.01100
H 	H 	0.96220 0.34030 0.76180 0.09200
O 	O 	0.65100 0.59120 0.91580 -0.36300
O 	O 	0.61270 0.43280 0.84550 -0.42300
C 	C 	0.67000 0.54260 0.86020 0.41100
C 	C 	0.79800 0.62200 0.82250 -0.08400
H 	H 	0.86140 0.62050 0.85170 0.10100
H 	H 	0.81690 0.70510 0.81590 0.05500
C 	C 	0.72200 0.62000 0.79180 -0.12800
H 	H 	0.78190 0.70270 0.80580 0.06000
H 	H 	0.65970 0.62190 0.76180 0.05700
O 	O 	0.40880 0.05980 0.91580 -0.40000
O 	O 	0.56720 0.17990 0.84550 -0.42900
C 	C 	0.45740 0.12740 0.86020 0.39300
C 	C 	0.37800 0.17600 0.82250 -0.05900
H 	H 	0.37950 0.24090 0.85170 0.06500
H 	H 	0.29490 0.11180 0.81590 0.01000
C 	C 	0.38000 0.10200 0.79180 -0.11400
H 	H 	0.29730 0.07920 0.80580 0.05400
H 	H 	0.37810 0.03780 0.76180 -0.00100
O 	O 	0.65100 0.05980 0.58420 -0.46600
O 	O 	0.61270 0.17990 0.65450 -0.45300
C 	C 	0.67000 0.12740 0.63980 0.40800
C 	C 	0.79800 0.17600 0.67750 -0.05500
H 	H 	0.86140 0.24090 0.64830 0.07100
H 	H 	0.81690 0.11180 0.68410 0.00300
C 	C 	0.72200 0.10200 0.70820 -0.13500
H 	H 	0.78190 0.07920 0.69420 0.07400
H 	H 	0.65970 0.03780 0.73820 0.00300
O 	O 	0.40880 0.34900 0.58420 -0.44700
O 	O 	0.56720 0.38730 0.65450 -0.44300
C 	C 	0.45740 0.33000 0.63980 0.40400
C 	C 	0.37800 0.20200 0.67750 -0.12500
H 	H 	0.37950 0.13860 0.64830 0.05100
H 	H 	0.29490 0.18310 0.68410 0.06700
C 	C 	0.38000 0.27800 0.70820 -0.06600
H 	H 	0.29730 0.21810 0.69420 0.00300
H 	H 	0.37810 0.34030 0.73820 0.03800
O 	O 	0.94020 0.59120 0.58420 -0.40000
O 	O 	0.82010 0.43280 0.65450 -0.43400
C 	C 	0.87260 0.54260 0.63980 0.41900
C 	C 	0.82400 0.62200 0.67750 -0.14900
H 	H 	0.75910 0.62050 0.64830 0.08700
H 	H 	0.88820 0.70510 0.68410 0.11100
C 	C 	0.89800 0.62000 0.70820 -0.08000
H 	H 	0.92080 0.70270 0.69420 0.00900
H 	H 	0.96220 0.62190 0.73820 0.09700
O 	O 	0.34900 0.94020 0.58420 -0.40600
O 	O 	0.38730 0.82010 0.65450 -0.43300
C 	C 	0.33000 0.87260 0.63980 0.41200
C 	C 	0.20200 0.82400 0.67750 -0.16400
H 	H 	0.13860 0.75910 0.64830 0.06800
H 	H 	0.18310 0.88820 0.68410 0.11700
C 	C 	0.27800 0.89800 0.70820 -0.05200
H 	H 	0.21810 0.92080 0.69420 -0.01700
H 	H 	0.34030 0.96220 0.73820 0.08800
O 	O 	0.59120 0.65100 0.58420 -0.43400
O 	O 	0.43280 0.61270 0.65450 -0.44600
C 	C 	0.54260 0.67000 0.63980 0.41800
C 	C 	0.62200 0.79800 0.67750 -0.09600
H 	H 	0.62050 0.86140 0.64830 0.08900
H 	H 	0.70510 0.81690 0.68410 0.05400
C 	C 	0.62000 0.72200 0.70820 -0.12100
H 	H 	0.70270 0.78190 0.69420 0.05400
H 	H 	0.62190 0.65970 0.73820 0.05400
O 	O 	0.05980 0.40880 0.58420 -0.47200
O 	O 	0.17990 0.56720 0.65450 -0.45200
C 	C 	0.12740 0.45740 0.63980 0.40100
C 	C 	0.17600 0.37800 0.67750 -0.07100
H 	H 	0.24090 0.37950 0.64830 0.05200
H 	H 	0.11180 0.29490 0.68410 0.01000
C 	C 	0.10200 0.38000 0.70820 -0.10700
H 	H 	0.07920 0.29730 0.69420 0.04800
H 	H 	0.03780 0.37810 0.73820 -0.00500
Gd	Gd	0.66667 0.33333 0.25000 1.66200
Gd	Gd	0.33333 0.66667 0.25000 1.66200
Gd	Gd	0.33333 0.66667 0.75000 1.66800
Gd	Gd	0.66667 0.33333 0.75000 1.66800
Cd	Cd	-0.00000 0.50000 -0.00000 1.14000
Cd	Cd	0.50000 0.50000 -0.00000 1.16800
Cd	Cd	0.50000 0.00000 -0.00000 1.14000
Cd	Cd	0.50000 0.00000 0.50000 1.19700
Cd	Cd	0.50000 0.50000 0.50000 1.22500
Cd	Cd	0.00000 0.50000 0.50000 1.19700
O 	O 	0.78040 0.21960 0.25000 -0.21800
O 	O 	0.78040 0.56080 0.25000 -0.20800
O 	O 	0.43920 0.21960 0.25000 -0.22800
O 	O 	0.21960 0.78040 0.25000 -0.21800
O 	O 	0.21960 0.43920 0.25000 -0.22800
O 	O 	0.56080 0.78040 0.25000 -0.20800
O 	O 	0.21960 0.78040 0.75000 -0.22000
O 	O 	0.21960 0.43920 0.75000 -0.22900
O 	O 	0.56080 0.78040 0.75000 -0.21000
O 	O 	0.78040 0.21960 0.75000 -0.22000
O 	O 	0.78040 0.56080 0.75000 -0.21000
O 	O 	0.43920 0.21960 0.75000 -0.22900
