data_crystal

_cell_length_a 12.69470
_cell_length_b 12.69470
_cell_length_c 17.83300
_cell_angle_alpha 90.00000
_cell_angle_beta  90.00000
_cell_angle_gamma 120.00000

_symmetry_space_group_name_	'P 1'
_symmetry_space_group_name_H-M	'P 1'

loop_
_symmetry_equiv_pos_as_xyz
  x,y,z

loop_
_atom_site_label
_atom_site_type_symbol
_atom_site_fract_x
_atom_site_fract_y
_atom_site_fract_z
_atom_site_charge
O 	O 	0.93880 0.34910 0.08430 -0.45800
O 	O 	0.81970 0.38870 0.15560 -0.49000
C 	C 	0.87200 0.33150 0.14030 0.42100
C 	C 	0.82300 0.20100 0.17860 -0.14900
H 	H 	0.75740 0.13710 0.14970 0.04600
H 	H 	0.88740 0.18230 0.18530 0.11400
C 	C 	0.89700 0.27700 0.20850 -0.05100
H 	H 	0.91890 0.21630 0.19420 -0.02700
H 	H 	0.96250 0.33910 0.23850 0.09100
O 	O 	0.65090 0.58970 0.08430 -0.48500
O 	O 	0.61130 0.43100 0.15560 -0.50200
C 	C 	0.66850 0.54050 0.14030 0.42600
C 	C 	0.79900 0.62200 0.17860 -0.09200
H 	H 	0.86290 0.62030 0.14970 0.07200
H 	H 	0.81770 0.70510 0.18530 0.05300
C 	C 	0.72300 0.62000 0.20850 -0.10400
H 	H 	0.78370 0.70260 0.19420 0.04000
H 	H 	0.66090 0.62340 0.23850 0.04600
O 	O 	0.41030 0.06120 0.08430 -0.52300
O 	O 	0.56900 0.18030 0.15560 -0.50700
C 	C 	0.45950 0.12800 0.14030 0.40700
C 	C 	0.37800 0.17700 0.17860 -0.07100
H 	H 	0.37970 0.24260 0.14970 0.03700
H 	H 	0.29490 0.11260 0.18530 0.00600
C 	C 	0.38000 0.10300 0.20850 -0.08500
H 	H 	0.29740 0.08110 0.19420 0.03600
H 	H 	0.37660 0.03750 0.23850 -0.01900
O 	O 	0.06120 0.65090 0.08430 -0.51500
O 	O 	0.18030 0.61130 0.15560 -0.50900
C 	C 	0.12800 0.66850 0.14030 0.41400
C 	C 	0.17700 0.79900 0.17860 -0.05900
H 	H 	0.24260 0.86290 0.14970 0.05800
H 	H 	0.11260 0.81770 0.18530 0.00200
C 	C 	0.10300 0.72300 0.20850 -0.10900
H 	H 	0.08110 0.78370 0.19420 0.06000
H 	H 	0.03750 0.66090 0.23850 -0.01100
O 	O 	0.34910 0.41030 0.08430 -0.49900
O 	O 	0.38870 0.56900 0.15560 -0.49900
C 	C 	0.33150 0.45950 0.14030 0.41300
C 	C 	0.20100 0.37800 0.17860 -0.11500
H 	H 	0.13710 0.37970 0.14970 0.03200
H 	H 	0.18230 0.29490 0.18530 0.06200
C 	C 	0.27700 0.38000 0.20850 -0.05600
H 	H 	0.21630 0.29740 0.19420 -0.00800
H 	H 	0.33910 0.37660 0.23850 0.03200
O 	O 	0.58970 0.93880 0.08430 -0.45100
O 	O 	0.43100 0.81970 0.15560 -0.49000
C 	C 	0.54050 0.87200 0.14030 0.42800
C 	C 	0.62200 0.82300 0.17860 -0.13600
H 	H 	0.62030 0.75740 0.14970 0.06700
H 	H 	0.70510 0.88740 0.18530 0.10900
C 	C 	0.62000 0.89700 0.20850 -0.07500
H 	H 	0.70260 0.91890 0.19420 -0.00400
H 	H 	0.62340 0.96250 0.23850 0.09700
O 	O 	0.34910 0.93880 0.41570 -0.40900
O 	O 	0.38870 0.81970 0.34440 -0.47400
C 	C 	0.33150 0.87200 0.35970 0.41900
C 	C 	0.20100 0.82300 0.32140 -0.13900
H 	H 	0.13710 0.75740 0.35030 0.05800
H 	H 	0.18230 0.88740 0.31470 0.11600
C 	C 	0.27700 0.89700 0.29150 -0.05700
H 	H 	0.21630 0.91890 0.30580 -0.02300
H 	H 	0.33910 0.96250 0.26150 0.09400
O 	O 	0.58970 0.65090 0.41570 -0.43600
O 	O 	0.43100 0.61130 0.34440 -0.48600
C 	C 	0.54050 0.66850 0.35970 0.42200
C 	C 	0.62200 0.79900 0.32140 -0.08400
H 	H 	0.62030 0.86290 0.35030 0.08300
H 	H 	0.70510 0.81770 0.31470 0.05500
C 	C 	0.62000 0.72300 0.29150 -0.11000
H 	H 	0.70260 0.78370 0.30580 0.04400
H 	H 	0.62340 0.66090 0.26150 0.04900
O 	O 	0.06120 0.41030 0.41570 -0.47400
O 	O 	0.18030 0.56900 0.34440 -0.49200
C 	C 	0.12800 0.45950 0.35970 0.40400
C 	C 	0.17700 0.37800 0.32140 -0.06200
H 	H 	0.24260 0.37970 0.35030 0.04800
H 	H 	0.11260 0.29490 0.31470 0.00800
C 	C 	0.10300 0.38000 0.29150 -0.09100
H 	H 	0.08110 0.29740 0.30580 0.04000
H 	H 	0.03750 0.37660 0.26150 -0.01500
O 	O 	0.65090 0.06120 0.41570 -0.46700
O 	O 	0.61130 0.18030 0.34440 -0.49300
C 	C 	0.66850 0.12800 0.35970 0.41100
C 	C 	0.79900 0.17700 0.32140 -0.05100
H 	H 	0.86290 0.24260 0.35030 0.06800
H 	H 	0.81770 0.11260 0.31470 0.00300
C 	C 	0.72300 0.10300 0.29150 -0.11500
H 	H 	0.78370 0.08110 0.30580 0.06400
H 	H 	0.66090 0.03750 0.26150 -0.00800
O 	O 	0.41030 0.34910 0.41570 -0.45000
O 	O 	0.56900 0.38870 0.34440 -0.48400
C 	C 	0.45950 0.33150 0.35970 0.40900
C 	C 	0.37800 0.20100 0.32140 -0.10600
H 	H 	0.37970 0.13710 0.35030 0.04300
H 	H 	0.29490 0.18230 0.31470 0.06400
C 	C 	0.38000 0.27700 0.29150 -0.06200
H 	H 	0.29740 0.21630 0.30580 -0.00300
H 	H 	0.37660 0.33910 0.26150 0.03600
O 	O 	0.93880 0.58970 0.41570 -0.40300
O 	O 	0.81970 0.43100 0.34440 -0.47500
C 	C 	0.87200 0.54050 0.35970 0.42500
C 	C 	0.82300 0.62200 0.32140 -0.12700
H 	H 	0.75740 0.62030 0.35030 0.07700
H 	H 	0.88740 0.70510 0.31470 0.11100
C 	C 	0.89700 0.62000 0.29150 -0.08100
H 	H 	0.91890 0.70260 0.30580 0.00100
H 	H 	0.96250 0.62340 0.26150 0.10000
O 	O 	0.06120 0.65090 0.91570 -0.39600
O 	O 	0.18030 0.61130 0.84440 -0.47200
C 	C 	0.12800 0.66850 0.85970 0.40300
C 	C 	0.17700 0.79900 0.82140 -0.04100
H 	H 	0.24260 0.86290 0.85030 0.08000
H 	H 	0.11260 0.81770 0.81470 0.00400
C 	C 	0.10300 0.72300 0.79150 -0.11900
H 	H 	0.08110 0.78370 0.80580 0.07100
H 	H 	0.03750 0.66090 0.76150 -0.00600
O 	O 	0.34910 0.41030 0.91570 -0.37800
O 	O 	0.38870 0.56900 0.84440 -0.46200
C 	C 	0.33150 0.45950 0.85970 0.40200
C 	C 	0.20100 0.37800 0.82140 -0.09500
H 	H 	0.13710 0.37970 0.85030 0.05600
H 	H 	0.18230 0.29490 0.81470 0.06400
C 	C 	0.27700 0.38000 0.79150 -0.06800
H 	H 	0.21630 0.29740 0.80580 0.00500
H 	H 	0.33910 0.37660 0.76150 0.03800
O 	O 	0.58970 0.93880 0.91570 -0.33300
O 	O 	0.43100 0.81970 0.84440 -0.45400
C 	C 	0.54050 0.87200 0.85970 0.41800
C 	C 	0.62200 0.82300 0.82140 -0.11600
H 	H 	0.62030 0.75740 0.85030 0.08900
H 	H 	0.70510 0.88740 0.81470 0.11000
C 	C 	0.62000 0.89700 0.79150 -0.08600
H 	H 	0.70260 0.91890 0.80580 0.00900
H 	H 	0.62340 0.96250 0.76150 0.10100
O 	O 	0.93880 0.34910 0.91570 -0.34000
O 	O 	0.81970 0.38870 0.84440 -0.45300
C 	C 	0.87200 0.33150 0.85970 0.41200
C 	C 	0.82300 0.20100 0.82140 -0.12700
H 	H 	0.75740 0.13710 0.85030 0.07000
H 	H 	0.88740 0.18230 0.81470 0.11400
C 	C 	0.89700 0.27700 0.79150 -0.06200
H 	H 	0.91890 0.21630 0.80580 -0.01500
H 	H 	0.96250 0.33910 0.76150 0.09400
O 	O 	0.65090 0.58970 0.91570 -0.36500
O 	O 	0.61130 0.43100 0.84440 -0.46400
C 	C 	0.66850 0.54050 0.85970 0.41500
C 	C 	0.79900 0.62200 0.82140 -0.07300
H 	H 	0.86290 0.62030 0.85030 0.09500
H 	H 	0.81770 0.70510 0.81470 0.05500
C 	C 	0.72300 0.62000 0.79150 -0.11400
H 	H 	0.78370 0.70260 0.80580 0.05100
H 	H 	0.66090 0.62340 0.76150 0.05100
O 	O 	0.41030 0.06120 0.91570 -0.40200
O 	O 	0.56900 0.18030 0.84440 -0.47000
C 	C 	0.45950 0.12800 0.85970 0.39700
C 	C 	0.37800 0.17700 0.82140 -0.05200
H 	H 	0.37970 0.24260 0.85030 0.06100
H 	H 	0.29490 0.11260 0.81470 0.01000
C 	C 	0.38000 0.10300 0.79150 -0.09600
H 	H 	0.29740 0.08110 0.80580 0.04800
H 	H 	0.37660 0.03750 0.76150 -0.01200
O 	O 	0.65090 0.06120 0.58430 -0.46700
O 	O 	0.61130 0.18030 0.65560 -0.49400
C 	C 	0.66850 0.12800 0.64030 0.41100
C 	C 	0.79900 0.17700 0.67860 -0.05100
H 	H 	0.86290 0.24260 0.64970 0.06800
H 	H 	0.81770 0.11260 0.68530 0.00400
C 	C 	0.72300 0.10300 0.70850 -0.11400
H 	H 	0.78370 0.08110 0.69420 0.06600
H 	H 	0.66090 0.03750 0.73850 -0.00900
O 	O 	0.41030 0.34910 0.58430 -0.45000
O 	O 	0.56900 0.38870 0.65560 -0.48500
C 	C 	0.45950 0.33150 0.64030 0.40900
C 	C 	0.37800 0.20100 0.67860 -0.10600
H 	H 	0.37970 0.13710 0.64970 0.04300
H 	H 	0.29490 0.18230 0.68530 0.06400
C 	C 	0.38000 0.27700 0.70850 -0.06200
H 	H 	0.29740 0.21630 0.69420 -0.00000
H 	H 	0.37660 0.33910 0.73850 0.03500
O 	O 	0.93880 0.58970 0.58430 -0.40300
O 	O 	0.81970 0.43100 0.65560 -0.47600
C 	C 	0.87200 0.54050 0.64030 0.42500
C 	C 	0.82300 0.62200 0.67860 -0.12600
H 	H 	0.75740 0.62030 0.64970 0.07700
H 	H 	0.88740 0.70510 0.68530 0.10900
C 	C 	0.89700 0.62000 0.70850 -0.08100
H 	H 	0.91890 0.70260 0.69420 0.00300
H 	H 	0.96250 0.62340 0.73850 0.09800
O 	O 	0.34910 0.93880 0.58430 -0.41000
O 	O 	0.38870 0.81970 0.65560 -0.47500
C 	C 	0.33150 0.87200 0.64030 0.41800
C 	C 	0.20100 0.82300 0.67860 -0.13700
H 	H 	0.13710 0.75740 0.64970 0.05700
H 	H 	0.18230 0.88740 0.68530 0.11400
C 	C 	0.27700 0.89700 0.70850 -0.05700
H 	H 	0.21630 0.91890 0.69420 -0.02000
H 	H 	0.33910 0.96250 0.73850 0.09100
O 	O 	0.58970 0.65090 0.58430 -0.43600
O 	O 	0.43100 0.61130 0.65560 -0.48700
C 	C 	0.54050 0.66850 0.64030 0.42200
C 	C 	0.62200 0.79900 0.67860 -0.08300
H 	H 	0.62030 0.86290 0.64970 0.08300
H 	H 	0.70510 0.81770 0.68530 0.05500
C 	C 	0.62000 0.72300 0.70850 -0.10900
H 	H 	0.70260 0.78370 0.69420 0.04600
H 	H 	0.62340 0.66090 0.73850 0.04800
O 	O 	0.06120 0.41030 0.58430 -0.47400
O 	O 	0.18030 0.56900 0.65560 -0.49300
C 	C 	0.12800 0.45950 0.64030 0.40400
C 	C 	0.17700 0.37800 0.67860 -0.06200
H 	H 	0.24260 0.37970 0.64970 0.04800
H 	H 	0.11260 0.29490 0.68530 0.00900
C 	C 	0.10300 0.38000 0.70850 -0.09000
H 	H 	0.08110 0.29740 0.69420 0.04200
H 	H 	0.03750 0.37660 0.73850 -0.01500
Tb	Tb	0.66667 0.33333 0.25000 1.99400
Tb	Tb	0.33333 0.66667 0.25000 1.99400
Tb	Tb	0.33333 0.66667 0.75000 2.00000
Tb	Tb	0.66667 0.33333 0.75000 2.00000
Cd	Cd	-0.00000 0.50000 -0.00000 1.14000
Cd	Cd	0.50000 0.50000 -0.00000 1.16700
Cd	Cd	0.50000 0.00000 -0.00000 1.14000
Cd	Cd	0.50000 0.00000 0.50000 1.19700
Cd	Cd	0.50000 0.50000 0.50000 1.22500
Cd	Cd	-0.00000 0.50000 0.50000 1.19700
O 	O 	0.77970 0.22030 0.25000 -0.26000
O 	O 	0.77970 0.55940 0.25000 -0.25000
O 	O 	0.44060 0.22030 0.25000 -0.26900
O 	O 	0.22030 0.77970 0.25000 -0.26000
O 	O 	0.22030 0.44060 0.25000 -0.26900
O 	O 	0.55940 0.77970 0.25000 -0.25000
O 	O 	0.22030 0.77970 0.75000 -0.26200
O 	O 	0.22030 0.44060 0.75000 -0.27100
O 	O 	0.55940 0.77970 0.75000 -0.25200
O 	O 	0.77970 0.22030 0.75000 -0.26200
O 	O 	0.77970 0.55940 0.75000 -0.25200
O 	O 	0.44060 0.22030 0.75000 -0.27100
