data_crystal

_cell_length_a 8.61900
_cell_length_b 17.81800
_cell_length_c 18.38500
_cell_angle_alpha 95.67200
_cell_angle_beta  102.22300
_cell_angle_gamma 101.05300

_symmetry_space_group_name_	'P 1'
_symmetry_space_group_name_H-M	'P 1'

loop_
_symmetry_equiv_pos_as_xyz
  x,y,z

loop_
_atom_site_label
_atom_site_type_symbol
_atom_site_fract_x
_atom_site_fract_y
_atom_site_fract_z
_atom_site_charge
Eu	Eu	0.05711 0.77358 0.14318 1.80000
Eu	Eu	0.94289 0.22642 0.85682 1.92300
Zn	Zn	0.50000 0.50000 -0.00000 1.18600
Zn	Zn	0.00000 0.00000 0.50000 1.17900
Zn	Zn	0.50000 0.00000 -0.00000 1.16700
H 	H 	0.66100 0.54980 0.19240 0.14800
H 	H 	0.80730 0.51520 0.17800 0.15900
H 	H 	0.40170 0.38330 0.10680 0.02600
H 	H 	0.51610 0.41510 0.18640 0.05300
H 	H 	0.41750 0.52920 0.18540 0.07000
H 	H 	0.28370 0.45630 0.18490 0.06200
H 	H 	0.16190 0.52640 0.10710 0.04900
H 	H 	0.18470 0.45650 0.05500 0.01200
H 	H 	0.14240 0.51780 0.95270 0.03600
H 	H 	0.15240 0.60410 0.98460 0.05400
H 	H 	0.75850 0.39650 0.12640 0.05600
H 	H 	0.60880 0.35770 0.05970 0.03000
H 	H 	0.47050 0.62850 0.13860 0.12300
H 	H 	0.47310 0.66470 0.06450 0.10600
H 	H 	0.12750 0.87360 0.40310 0.13000
H 	H 	0.93850 0.84810 0.37670 0.14700
H 	H 	0.87850 0.03140 0.33830 -0.01600
H 	H 	0.88710 0.96440 0.27830 0.04700
H 	H 	0.71860 0.87600 0.33620 0.10700
H 	H 	0.62900 0.93350 0.29440 0.11000
H 	H 	0.54630 0.92600 0.40300 0.01100
H 	H 	0.65600 0.00860 0.41140 -0.03200
H 	H 	0.68290 0.02740 0.53540 -0.00000
H 	H 	0.59870 0.94500 0.54770 0.05000
H 	H 	0.66750 0.83970 0.51140 0.14100
H 	H 	0.71470 0.83040 0.43370 0.12900
H 	H 	0.21780 0.99560 0.33960 0.15100
H 	H 	0.15250 0.06530 0.37160 0.08600
H 	H 	0.56540 0.91130 0.13870 0.11500
H 	H 	0.47970 0.84360 0.07370 0.10000
H 	H 	0.72700 0.90110 0.95080 0.01700
H 	H 	0.74480 0.83590 0.00120 -0.04200
H 	H 	0.45580 0.79130 0.96540 0.11300
H 	H 	0.54240 0.77940 0.90000 0.10000
H 	H 	0.31180 0.81740 0.85080 0.03800
H 	H 	0.45640 0.88590 0.85180 0.04400
H 	H 	0.29600 0.97070 0.83620 0.04500
H 	H 	0.13060 0.91990 0.84270 0.04600
H 	H 	0.10170 0.86300 0.93820 0.12100
H 	H 	0.23560 0.81920 0.97120 0.12500
H 	H 	0.87140 0.94960 0.12150 0.07500
H 	H 	0.86820 0.99140 0.05000 0.04700
H 	H 	0.33900 0.45020 0.80760 0.14400
H 	H 	0.19270 0.48480 0.82200 0.14800
H 	H 	0.59830 0.61670 0.89320 0.06000
H 	H 	0.48390 0.58490 0.81360 0.06300
H 	H 	0.58250 0.47080 0.81460 0.05800
H 	H 	0.71630 0.54370 0.81510 0.06000
H 	H 	0.83810 0.47360 0.89290 0.09000
H 	H 	0.81530 0.54350 0.94500 0.07500
H 	H 	0.85760 0.48220 0.04730 0.06500
H 	H 	0.84760 0.39590 0.01540 0.06400
H 	H 	0.24150 0.60350 0.87360 0.06800
H 	H 	0.39120 0.64230 0.94030 0.07300
H 	H 	0.52950 0.37150 0.86140 0.12200
H 	H 	0.52690 0.33530 0.93550 0.13500
H 	H 	0.87250 0.12640 0.59690 0.08900
H 	H 	0.06150 0.15190 0.62330 0.07400
H 	H 	0.12150 0.96860 0.66170 0.13800
H 	H 	0.11290 0.03560 0.72170 0.11200
H 	H 	0.28140 0.12400 0.66380 0.02700
H 	H 	0.37100 0.06650 0.70560 0.00600
H 	H 	0.45370 0.07400 0.59700 0.10300
H 	H 	0.34400 0.99140 0.58860 0.13700
H 	H 	0.31710 0.97260 0.46460 0.09800
H 	H 	0.40130 0.05500 0.45230 0.07000
H 	H 	0.33250 0.16030 0.48860 0.13900
H 	H 	0.28530 0.16960 0.56630 0.13300
H 	H 	0.78220 0.00440 0.66040 0.01700
H 	H 	0.84750 0.93470 0.62840 0.04700
H 	H 	0.43460 0.08870 0.86130 0.10900
H 	H 	0.52030 0.15640 0.92630 0.13900
H 	H 	0.27300 0.09890 0.04920 0.09400
H 	H 	0.25520 0.16410 0.99880 0.17100
H 	H 	0.54420 0.20870 0.03460 0.00100
H 	H 	0.45760 0.22060 0.10000 0.00200
H 	H 	0.68820 0.18260 0.14920 0.08500
H 	H 	0.54360 0.11410 0.14820 0.06600
H 	H 	0.70400 0.02930 0.16380 0.05600
H 	H 	0.86940 0.08010 0.15730 0.08400
H 	H 	0.89830 0.13700 0.06180 0.15300
H 	H 	0.76440 0.18080 0.02880 0.14900
H 	H 	0.12860 0.05040 0.87850 0.09500
H 	H 	0.13180 0.00860 0.95000 0.08100
C 	C 	0.76490 0.59970 0.11370 0.45300
C 	C 	0.71160 0.53210 0.15350 -0.38200
C 	C 	0.46580 0.43010 0.13920 -0.07900
C 	C 	0.35170 0.48170 0.15480 -0.14300
C 	C 	0.24230 0.50330 0.08910 -0.06600
C 	C 	0.21650 0.56690 0.97420 -0.03400
C 	C 	0.68570 0.40590 0.08190 -0.09000
C 	C 	0.40280 0.63540 0.09140 -0.28900
C 	C 	0.28100 0.68210 0.10860 0.38500
C 	C 	0.04900 0.84940 0.28760 0.36600
C 	C 	0.03350 0.88060 0.36690 -0.31900
C 	C 	0.87730 0.97660 0.32950 0.07100
C 	C 	0.71240 0.92990 0.33780 -0.24900
C 	C 	0.65730 0.95410 0.40850 0.07500
C 	C 	0.70130 0.97680 0.54460 -0.04700
C 	C 	0.74870 0.85860 0.48440 -0.33300
C 	C 	0.91200 0.84280 0.52330 0.39800
C 	C 	0.17440 0.01510 0.38040 -0.24600
C 	C 	0.68130 0.82080 0.14210 0.44400
C 	C 	0.58500 0.87490 0.10060 -0.29000
C 	C 	0.67360 0.86910 0.98200 0.13300
C 	C 	0.51430 0.81830 0.93260 -0.23700
C 	C 	0.39810 0.85720 0.88350 -0.03100
C 	C 	0.23140 0.95390 0.87130 -0.03400
C 	C 	0.21290 0.87010 0.96700 -0.28100
C 	C 	0.22700 0.91100 0.04510 0.37400
C 	C 	0.80640 0.97500 0.08620 -0.03300
C 	C 	0.23510 0.40030 0.88630 0.45000
C 	C 	0.28840 0.46790 0.84650 -0.37400
C 	C 	0.53420 0.56990 0.86080 -0.10700
C 	C 	0.64830 0.51830 0.84520 -0.09600
C 	C 	0.75770 0.49670 0.91090 -0.11400
C 	C 	0.78350 0.43310 0.02580 -0.17300
C 	C 	0.31430 0.59410 0.91810 -0.14100
C 	C 	0.59720 0.36460 0.90860 -0.28500
C 	C 	0.71900 0.31790 0.89140 0.39600
C 	C 	0.95100 0.15060 0.71240 0.34100
C 	C 	0.96650 0.11940 0.63310 -0.18400
C 	C 	0.12270 0.02340 0.67050 -0.28000
C 	C 	0.28760 0.07010 0.66220 0.02300
C 	C 	0.34270 0.04590 0.59150 -0.26900
C 	C 	0.29870 0.02320 0.45540 -0.16700
C 	C 	0.25130 0.14140 0.51560 -0.32600
C 	C 	0.08800 0.15720 0.47670 0.33200
C 	C 	0.82560 0.98490 0.61960 -0.00800
C 	C 	0.31870 0.17920 0.85790 0.46500
C 	C 	0.41500 0.12510 0.89940 -0.31700
C 	C 	0.32640 0.13090 0.01800 -0.33200
C 	C 	0.48570 0.18170 0.06740 0.01900
C 	C 	0.60190 0.14280 0.11650 -0.17600
C 	C 	0.76860 0.04610 0.12870 -0.19400
C 	C 	0.78710 0.12990 0.03300 -0.46700
C 	C 	0.77300 0.08900 0.95490 0.52100
C 	C 	0.19360 0.02500 0.91380 -0.19200
N 	N 	0.59620 0.46503 0.10370 -0.15900
N 	N 	0.32750 0.55805 0.04620 -0.17900
N 	N 	0.02040 0.96090 0.38230 -0.12600
N 	N 	0.75670 0.94150 0.48070 -0.17200
N 	N 	0.65190 0.92026 0.04680 -0.18800
N 	N 	0.32240 0.91094 0.92534 -0.15800
N 	N 	0.40380 0.53497 0.89630 -0.13800
N 	N 	0.67250 0.44195 0.95380 -0.10800
N 	N 	0.97960 0.03910 0.61770 -0.14000
N 	N 	0.24330 0.05850 0.51930 -0.14100
N 	N 	0.34810 0.07974 0.95320 -0.08100
N 	N 	0.67760 0.08906 0.07466 -0.13300
O 	O 	0.87420 0.65337 0.15140 -0.43800
O 	O 	0.69350 0.59752 0.04496 -0.49300
O 	O 	0.26080 0.73786 0.07302 -0.47000
O 	O 	0.20180 0.66506 0.15590 -0.43200
O 	O 	0.03980 0.77795 0.27493 -0.42600
O 	O 	0.07110 0.89296 0.23917 -0.39100
O 	O 	0.90890 0.77700 0.54100 -0.25700
O 	O 	0.04090 0.89413 0.53343 -0.44700
O 	O 	0.80430 0.80757 0.12248 -0.47100
O 	O 	0.61990 0.79261 0.19176 -0.31500
O 	O 	0.12870 0.88075 0.08152 -0.48100
O 	O 	0.33430 0.97209 0.07049 -0.42400
O 	O 	0.12580 0.34663 0.84860 -0.46900
O 	O 	0.30650 0.40248 0.95504 -0.44600
O 	O 	0.73920 0.26214 0.92698 -0.43600
O 	O 	0.79820 0.33494 0.84410 -0.42500
O 	O 	0.96020 0.22205 0.72507 -0.40300
O 	O 	0.92890 0.10704 0.76083 -0.38400
O 	O 	0.09110 0.22300 0.45900 -0.26600
O 	O 	0.95910 0.10587 0.46657 -0.39800
O 	O 	0.19570 0.19243 0.87752 -0.50600
O 	O 	0.38010 0.20739 0.80824 -0.32500
O 	O 	0.87130 0.11925 0.91848 -0.50500
O 	O 	0.66570 0.02791 0.92951 -0.47400
