data_crystal

_cell_length_a 9.94110
_cell_length_b 9.94110
_cell_length_c 11.21000
_cell_angle_alpha 63.67860
_cell_angle_beta  63.67860
_cell_angle_gamma 89.99990

_symmetry_space_group_name_	'P 1'
_symmetry_space_group_name_H-M	'P 1'

loop_
_symmetry_equiv_pos_as_xyz
  x,y,z

loop_
_atom_site_label
_atom_site_type_symbol
_atom_site_fract_x
_atom_site_fract_y
_atom_site_fract_z
_atom_site_charge
Cd	Cd	0.86416 0.61416 0.77168 1.17500
Cd	Cd	0.61416 0.86416 0.27168 1.17500
Cd	Cd	0.13584 0.38584 0.22832 1.17500
Cd	Cd	0.38584 0.13584 0.72832 1.17500
C 	C 	0.61300 0.55860 0.55820 0.16100
C 	C 	0.32880 0.88320 0.55820 0.16100
C 	C 	0.55860 0.32880 0.05820 0.16400
C 	C 	0.88320 0.61300 0.05820 0.16300
C 	C 	0.38700 0.44140 0.44180 0.16200
C 	C 	0.67120 0.11680 0.44180 0.16200
C 	C 	0.44140 0.67120 0.94180 0.16400
C 	C 	0.11680 0.38700 0.94180 0.16300
N 	N 	0.75368 0.75252 0.51484 -0.08500
N 	N 	0.74791 0.62566 0.63060 -0.17700
N 	N 	0.66005 0.50206 0.66034 -0.13000
N 	N 	0.66775 0.71116 0.46770 -0.20800
N 	N 	0.51751 0.46270 0.55132 -0.15000
N 	N 	0.23148 0.73264 0.51484 -0.08400
N 	N 	0.12149 0.74374 0.63060 -0.17600
N 	N 	0.17961 0.83760 0.66034 -0.12800
N 	N 	0.36455 0.82114 0.46770 -0.20800
N 	N 	0.43117 0.98598 0.55132 -0.15000
N 	N 	0.75252 0.23148 0.01484 -0.08200
N 	N 	0.62566 0.12149 0.13060 -0.17600
N 	N 	0.50206 0.17961 0.16034 -0.13000
N 	N 	0.71116 0.36455 0.96770 -0.21200
N 	N 	0.46270 0.43117 0.05132 -0.15100
N 	N 	0.73264 0.75368 0.01484 -0.08500
N 	N 	0.74374 0.74791 0.13060 -0.17800
N 	N 	0.83760 0.66005 0.16034 -0.13000
N 	N 	0.82114 0.66775 0.96770 -0.21100
N 	N 	0.98598 0.51751 0.05132 -0.14900
N 	N 	0.24632 0.24748 0.48516 -0.08500
N 	N 	0.25209 0.37434 0.36940 -0.17700
N 	N 	0.33995 0.49794 0.33966 -0.13000
N 	N 	0.33225 0.28884 0.53230 -0.20800
N 	N 	0.48249 0.53730 0.44868 -0.15000
N 	N 	0.76852 0.26736 0.48516 -0.08400
N 	N 	0.87851 0.25626 0.36940 -0.17600
N 	N 	0.82039 0.16240 0.33966 -0.12800
N 	N 	0.63545 0.17886 0.53230 -0.20800
N 	N 	0.56883 0.01402 0.44868 -0.15000
N 	N 	0.24748 0.76852 0.98516 -0.08200
N 	N 	0.37434 0.87851 0.86940 -0.17600
N 	N 	0.49794 0.82039 0.83966 -0.13000
N 	N 	0.28884 0.63545 0.03230 -0.21200
N 	N 	0.53730 0.56883 0.94868 -0.15100
N 	N 	0.26736 0.24632 0.98516 -0.08500
N 	N 	0.25626 0.25209 0.86940 -0.17800
N 	N 	0.16240 0.33995 0.83966 -0.13000
N 	N 	0.17886 0.33225 0.03230 -0.21100
N 	N 	0.01402 0.48249 0.94868 -0.14900
