data_crystal

_cell_length_a 5.01690
_cell_length_b 20.69490
_cell_length_c 24.98510
_cell_angle_alpha 90.00000
_cell_angle_beta  90.00000
_cell_angle_gamma 95.72100

_symmetry_space_group_name_	'P 1'
_symmetry_space_group_name_H-M	'P 1'

loop_
_symmetry_equiv_pos_as_xyz
  x,y,z

loop_
_atom_site_label
_atom_site_type_symbol
_atom_site_fract_x
_atom_site_fract_y
_atom_site_fract_z
_atom_site_charge
Mn	Mn	0.17934 0.06154 0.96045 1.28300
Mn	Mn	0.32066 0.43846 0.46045 1.28400
Mn	Mn	0.82066 0.93846 0.03955 1.28300
Mn	Mn	0.67934 0.56154 0.53955 1.28400
H 	H 	0.68160 0.34160 0.40240 -0.00200
H 	H 	0.69170 0.27920 0.32450 0.12200
H 	H 	0.07990 0.36980 0.26320 0.13000
H 	H 	0.06970 0.43220 0.34110 -0.00100
H 	H 	0.94000 0.31270 0.12260 0.07300
H 	H 	0.99800 0.24380 0.05120 0.03900
H 	H 	0.01460 0.04320 0.14070 0.02500
H 	H 	0.93580 0.11770 0.20600 0.07200
H 	H 	0.81840 0.15840 0.90240 -0.00300
H 	H 	0.80830 0.22080 0.82450 0.11900
H 	H 	0.42010 0.13020 0.76320 0.12800
H 	H 	0.43030 0.06780 0.84110 -0.00200
H 	H 	0.56000 0.18730 0.62260 0.07300
H 	H 	0.50200 0.25620 0.55120 0.03800
H 	H 	0.48540 0.45680 0.64070 0.02300
H 	H 	0.56420 0.38230 0.70600 0.07500
H 	H 	0.31840 0.65840 0.59760 -0.00300
H 	H 	0.30830 0.72080 0.67550 0.12100
H 	H 	0.92010 0.63020 0.73680 0.12900
H 	H 	0.93030 0.56780 0.65890 -0.00200
H 	H 	0.06000 0.68730 0.87740 0.07300
H 	H 	0.00200 0.75620 0.94880 0.03900
H 	H 	0.98540 0.95680 0.85930 0.02500
H 	H 	0.06420 0.88230 0.79400 0.07200
H 	H 	0.18160 0.84160 0.09760 -0.00300
H 	H 	0.19170 0.77920 0.17550 0.11900
H 	H 	0.57990 0.86980 0.23680 0.12800
H 	H 	0.56970 0.93220 0.15890 -0.00200
H 	H 	0.44000 0.81270 0.37740 0.07300
H 	H 	0.49800 0.74380 0.44880 0.03800
H 	H 	0.51460 0.54320 0.35930 0.02300
H 	H 	0.43580 0.61770 0.29400 0.07500
C 	C 	0.55940 0.34730 0.37420 0.08600
C 	C 	0.56540 0.31020 0.32790 -0.18200
C 	C 	0.38700 0.31860 0.28650 0.19800
C 	C 	0.20200 0.36400 0.29150 -0.18400
C 	C 	0.19600 0.40110 0.33780 0.09200
C 	C 	0.58900 0.30030 0.20160 0.21600
C 	C 	0.62000 0.25720 0.15470 -0.02500
C 	C 	0.45280 0.19850 0.14950 -0.00800
C 	C 	0.24700 0.18420 0.18690 -0.02700
C 	C 	0.20000 0.22780 0.23190 0.21000
C 	C 	0.82500 0.27360 0.11850 -0.06400
C 	C 	0.85900 0.23210 0.07630 0.03900
C 	C 	0.70000 0.17410 0.06910 -0.14400
C 	C 	0.49960 0.15550 0.10660 0.10900
C 	C 	0.33350 0.09530 0.10620 -0.14400
C 	C 	0.12680 0.08290 0.14290 0.03900
C 	C 	0.08200 0.12670 0.18200 -0.05900
C 	C 	0.39330 0.03720 0.07260 0.39400
C 	C 	0.74930 0.13930 0.01750 0.43200
C 	C 	0.94060 0.15270 0.87420 0.08800
C 	C 	0.93460 0.18980 0.82790 -0.17400
C 	C 	0.11300 0.18140 0.78650 0.19000
C 	C 	0.29800 0.13600 0.79150 -0.18100
C 	C 	0.30400 0.09890 0.83780 0.08900
C 	C 	0.91100 0.19970 0.70160 0.22000
C 	C 	0.88000 0.24280 0.65470 -0.02000
C 	C 	0.04720 0.30150 0.64950 -0.01300
C 	C 	0.25300 0.31580 0.68690 -0.02400
C 	C 	0.30000 0.27220 0.73190 0.20800
C 	C 	0.67500 0.22640 0.61850 -0.06500
C 	C 	0.64100 0.26790 0.57630 0.03900
C 	C 	0.80000 0.32590 0.56910 -0.13900
C 	C 	0.00040 0.34450 0.60660 0.10600
C 	C 	0.16650 0.40470 0.60620 -0.14400
C 	C 	0.37320 0.41710 0.64290 0.04100
C 	C 	0.41800 0.37330 0.68200 -0.06400
C 	C 	0.10670 0.46280 0.57260 0.39100
C 	C 	0.75070 0.36070 0.51750 0.42900
C 	C 	0.44060 0.65270 0.62580 0.08600
C 	C 	0.43460 0.68980 0.67210 -0.18200
C 	C 	0.61300 0.68140 0.71350 0.19800
C 	C 	0.79800 0.63600 0.70850 -0.18400
C 	C 	0.80400 0.59890 0.66220 0.09200
C 	C 	0.41100 0.69970 0.79840 0.21600
C 	C 	0.38000 0.74280 0.84530 -0.02500
C 	C 	0.54720 0.80150 0.85050 -0.00800
C 	C 	0.75300 0.81580 0.81310 -0.02700
C 	C 	0.80000 0.77220 0.76810 0.21000
C 	C 	0.17500 0.72640 0.88150 -0.06400
C 	C 	0.14100 0.76790 0.92370 0.03900
C 	C 	0.30000 0.82590 0.93090 -0.14400
C 	C 	0.50040 0.84450 0.89340 0.10900
C 	C 	0.66650 0.90470 0.89380 -0.14400
C 	C 	0.87320 0.91710 0.85710 0.03900
C 	C 	0.91800 0.87330 0.81800 -0.05900
C 	C 	0.60670 0.96280 0.92740 0.39400
C 	C 	0.25070 0.86070 0.98250 0.43200
C 	C 	0.05940 0.84730 0.12580 0.08800
C 	C 	0.06540 0.81020 0.17210 -0.17400
C 	C 	0.88700 0.81860 0.21350 0.19000
C 	C 	0.70200 0.86400 0.20850 -0.18100
C 	C 	0.69600 0.90110 0.16220 0.08900
C 	C 	0.08900 0.80030 0.29840 0.22000
C 	C 	0.12000 0.75720 0.34530 -0.02000
C 	C 	0.95280 0.69850 0.35050 -0.01300
C 	C 	0.74700 0.68420 0.31310 -0.02400
C 	C 	0.70000 0.72780 0.26810 0.20800
C 	C 	0.32500 0.77360 0.38150 -0.06500
C 	C 	0.35900 0.73210 0.42370 0.03900
C 	C 	0.20000 0.67410 0.43090 -0.13900
C 	C 	0.99960 0.65550 0.39340 0.10600
C 	C 	0.83350 0.59530 0.39380 -0.14400
C 	C 	0.62680 0.58290 0.35710 0.04100
C 	C 	0.58200 0.62670 0.31800 -0.06400
C 	C 	0.89330 0.53720 0.42740 0.39100
C 	C 	0.24930 0.63930 0.48250 0.42900
N 	N 	0.37470 0.39280 0.37910 -0.23700
N 	N 	0.39430 0.28080 0.23720 -0.19000
N 	N 	0.12530 0.10720 0.87910 -0.23900
N 	N 	0.10570 0.21920 0.73720 -0.19100
N 	N 	0.62530 0.60720 0.62090 -0.23700
N 	N 	0.60570 0.71920 0.76280 -0.19000
N 	N 	0.87470 0.89280 0.12090 -0.23900
N 	N 	0.89430 0.78080 0.26280 -0.19100
O 	O 	0.21430 0.00960 0.04200 -0.53300
O 	O 	0.62000 0.01870 0.07960 -0.43300
O 	O 	0.55250 0.12180 0.98870 -0.44400
O 	O 	0.98510 0.13630 0.00600 -0.43300
O 	O 	0.73490 0.35130 0.20690 -0.22400
O 	O 	0.01660 0.21800 0.26390 -0.22000
O 	O 	0.28570 0.49040 0.54200 -0.53400
O 	O 	0.88000 0.48130 0.57960 -0.43200
O 	O 	0.94750 0.37820 0.48870 -0.44000
O 	O 	0.51490 0.36370 0.50600 -0.43500
O 	O 	0.76510 0.14870 0.70690 -0.22400
O 	O 	0.48340 0.28200 0.76390 -0.22000
O 	O 	0.78570 0.99040 0.95800 -0.53300
O 	O 	0.38000 0.98130 0.92040 -0.43300
O 	O 	0.44750 0.87820 0.01130 -0.44400
O 	O 	0.01490 0.86370 0.99400 -0.43300
O 	O 	0.26510 0.64870 0.79310 -0.22400
O 	O 	0.98340 0.78200 0.73610 -0.22000
O 	O 	0.71430 0.50960 0.45800 -0.53400
O 	O 	0.12000 0.51870 0.42040 -0.43200
O 	O 	0.05250 0.62180 0.51130 -0.44000
O 	O 	0.48510 0.63630 0.49400 -0.43500
O 	O 	0.23490 0.85130 0.29310 -0.22400
O 	O 	0.51660 0.71800 0.23610 -0.22000
