data_crystal

_cell_length_a 4.97380
_cell_length_b 24.83600
_cell_length_c 20.66300
_cell_angle_alpha 90.00000
_cell_angle_beta  95.90300
_cell_angle_gamma 90.00000

_symmetry_space_group_name_	'P 1'
_symmetry_space_group_name_H-M	'P 1'

loop_
_symmetry_equiv_pos_as_xyz
  x,y,z

loop_
_atom_site_label
_atom_site_type_symbol
_atom_site_fract_x
_atom_site_fract_y
_atom_site_fract_z
_atom_site_charge
Cd	Cd	0.32280 0.95764 0.44051 1.24300
O 	O 	0.94320 0.98257 0.37813 -0.42200
O 	O 	0.50260 0.00155 0.36211 -0.41100
O 	O 	0.28220 0.04105 0.48795 -0.52400
O 	O 	0.87140 0.07872 0.47595 -0.42400
O 	O 	0.76370 0.19706 0.13660 -0.22500
O 	O 	0.48310 0.25722 0.26970 -0.22000
N 	N 	0.12780 0.37373 0.10130 -0.25900
C 	C 	0.96000 0.36660 0.14640 0.13500
H 	H 	0.84340 0.39530 0.15540 -0.01800
C 	C 	0.94710 0.31930 0.18100 -0.22400
H 	H 	0.82440 0.31560 0.21300 0.13700
C 	C 	0.11390 0.27810 0.16820 0.23400
C 	C 	0.27730 0.28300 0.11990 -0.23300
H 	H 	0.38650 0.25400 0.10810 0.14300
C 	C 	0.27850 0.33240 0.08830 0.13700
H 	H 	0.39590 0.33650 0.05510 -0.01700
N 	N 	0.10940 0.22919 0.20590 -0.19300
C 	C 	0.90770 0.19130 0.18730 0.21900
C 	C 	0.88120 0.14600 0.23280 -0.02700
C 	C 	0.04760 0.14263 0.29230 -0.00600
C 	C 	0.25780 0.18080 0.30670 -0.02900
C 	C 	0.29930 0.22440 0.26110 0.20700
C 	C 	0.68080 0.10900 0.21730 -0.05500
H 	H 	0.56890 0.11180 0.17730 0.06900
C 	C 	0.64100 0.06690 0.26060 0.02400
H 	H 	0.50230 0.04120 0.24940 0.04300
C 	C 	0.79990 0.06200 0.31960 -0.11800
C 	C 	0.00490 0.10150 0.33840 0.09300
C 	C 	0.16650 0.10281 0.39970 -0.13800
C 	C 	0.37240 0.13990 0.41130 0.03600
H 	H 	0.48210 0.13950 0.45180 0.02500
C 	C 	0.42140 0.17830 0.36410 -0.05700
H 	H 	0.56860 0.20260 0.37200 0.07300
C 	C 	0.74720 0.01195 0.35760 0.39300
C 	C 	0.10120 0.07073 0.45800 0.38700
Cd	Cd	0.17720 0.45764 0.05949 1.24400
O 	O 	0.55680 0.48257 0.12187 -0.42300
O 	O 	0.99740 0.50155 0.13789 -0.40900
O 	O 	0.21780 0.54105 0.01205 -0.52400
O 	O 	0.62860 0.57872 0.02405 -0.42600
O 	O 	0.73630 0.69706 0.36340 -0.22600
O 	O 	0.01690 0.75722 0.23030 -0.22100
N 	N 	0.37220 0.87373 0.39870 -0.25700
C 	C 	0.54000 0.86660 0.35360 0.13300
H 	H 	0.65660 0.89530 0.34460 -0.01800
C 	C 	0.55290 0.81930 0.31900 -0.23400
H 	H 	0.67560 0.81560 0.28700 0.13900
C 	C 	0.38610 0.77810 0.33180 0.24300
C 	C 	0.22270 0.78300 0.38010 -0.23700
H 	H 	0.11350 0.75400 0.39190 0.14500
C 	C 	0.22150 0.83240 0.41170 0.14000
H 	H 	0.10410 0.83650 0.44490 -0.01800
N 	N 	0.39060 0.72919 0.29410 -0.19100
C 	C 	0.59230 0.69130 0.31270 0.21500
C 	C 	0.61880 0.64600 0.26720 -0.03200
C 	C 	0.45240 0.64263 0.20770 -0.00000
C 	C 	0.24220 0.68080 0.19330 -0.03200
C 	C 	0.20070 0.72440 0.23890 0.20900
C 	C 	0.81920 0.60900 0.28270 -0.05300
H 	H 	0.93110 0.61180 0.32270 0.06900
C 	C 	0.85900 0.56690 0.23940 0.02300
H 	H 	0.99770 0.54120 0.25060 0.04400
C 	C 	0.70010 0.56200 0.18040 -0.12100
C 	C 	0.49510 0.60150 0.16160 0.09600
C 	C 	0.33350 0.60281 0.10030 -0.13800
C 	C 	0.12760 0.63990 0.08870 0.03400
H 	H 	0.01790 0.63950 0.04820 0.02700
C 	C 	0.07860 0.67830 0.13590 -0.05300
H 	H 	0.93140 0.70260 0.12800 0.07000
C 	C 	0.75280 0.51195 0.14240 0.39400
C 	C 	0.39880 0.57073 0.04200 0.38900
Cd	Cd	0.67720 0.04236 0.55949 1.24400
O 	O 	0.05680 0.01743 0.62187 -0.42100
O 	O 	0.49740 0.99845 0.63789 -0.41100
O 	O 	0.71780 0.95895 0.51205 -0.52400
O 	O 	0.12860 0.92128 0.52405 -0.42400
O 	O 	0.23630 0.80294 0.86340 -0.22500
O 	O 	0.51690 0.74278 0.73030 -0.22000
N 	N 	0.87220 0.62627 0.89870 -0.25900
C 	C 	0.04000 0.63340 0.85360 0.13500
H 	H 	0.15660 0.60470 0.84460 -0.01800
C 	C 	0.05290 0.68070 0.81900 -0.22400
H 	H 	0.17560 0.68440 0.78700 0.13700
C 	C 	0.88610 0.72190 0.83180 0.23400
C 	C 	0.72270 0.71700 0.88010 -0.23300
H 	H 	0.61350 0.74600 0.89190 0.14300
C 	C 	0.72150 0.66760 0.91170 0.13700
H 	H 	0.60410 0.66350 0.94490 -0.01700
N 	N 	0.89060 0.77081 0.79410 -0.19300
C 	C 	0.09230 0.80870 0.81270 0.21900
C 	C 	0.11880 0.85400 0.76720 -0.02700
C 	C 	0.95240 0.85737 0.70770 -0.00600
C 	C 	0.74220 0.81920 0.69330 -0.02900
C 	C 	0.70070 0.77560 0.73890 0.20700
C 	C 	0.31920 0.89100 0.78270 -0.05500
H 	H 	0.43110 0.88820 0.82270 0.06900
C 	C 	0.35900 0.93310 0.73940 0.02400
H 	H 	0.49770 0.95880 0.75060 0.04300
C 	C 	0.20010 0.93800 0.68040 -0.11800
C 	C 	0.99510 0.89850 0.66160 0.09300
C 	C 	0.83350 0.89719 0.60030 -0.13800
C 	C 	0.62760 0.86010 0.58870 0.03600
H 	H 	0.51790 0.86050 0.54820 0.02500
C 	C 	0.57860 0.82170 0.63590 -0.05700
H 	H 	0.43140 0.79740 0.62800 0.07300
C 	C 	0.25280 0.98805 0.64240 0.39300
C 	C 	0.89880 0.92927 0.54200 0.38700
Cd	Cd	0.82280 0.54236 0.94050 1.24400
O 	O 	0.44320 0.51743 0.87813 -0.42300
O 	O 	0.00260 0.49845 0.86211 -0.40900
O 	O 	0.78220 0.45895 0.98795 -0.52400
O 	O 	0.37140 0.42128 0.97595 -0.42600
O 	O 	0.26370 0.30294 0.63660 -0.22600
O 	O 	0.98310 0.24278 0.76970 -0.22100
N 	N 	0.62780 0.12627 0.60130 -0.25700
C 	C 	0.46000 0.13340 0.64640 0.13300
H 	H 	0.34340 0.10470 0.65540 -0.01800
C 	C 	0.44710 0.18070 0.68100 -0.23400
H 	H 	0.32440 0.18440 0.71300 0.13900
C 	C 	0.61390 0.22190 0.66820 0.24300
C 	C 	0.77730 0.21700 0.61990 -0.23700
H 	H 	0.88650 0.24600 0.60810 0.14500
C 	C 	0.77850 0.16760 0.58830 0.14000
H 	H 	0.89590 0.16350 0.55510 -0.01800
N 	N 	0.60940 0.27081 0.70590 -0.19100
C 	C 	0.40770 0.30870 0.68730 0.21500
C 	C 	0.38120 0.35400 0.73280 -0.03200
C 	C 	0.54760 0.35737 0.79230 -0.00000
C 	C 	0.75780 0.31920 0.80670 -0.03200
C 	C 	0.79930 0.27560 0.76110 0.20900
C 	C 	0.18080 0.39100 0.71730 -0.05300
H 	H 	0.06890 0.38820 0.67730 0.06900
C 	C 	0.14100 0.43310 0.76060 0.02300
H 	H 	0.00230 0.45880 0.74940 0.04400
C 	C 	0.29990 0.43800 0.81960 -0.12100
C 	C 	0.50490 0.39850 0.83840 0.09600
C 	C 	0.66650 0.39719 0.89970 -0.13800
C 	C 	0.87240 0.36010 0.91130 0.03400
H 	H 	0.98210 0.36050 0.95180 0.02700
C 	C 	0.92140 0.32170 0.86410 -0.05300
H 	H 	0.06860 0.29740 0.87200 0.07000
C 	C 	0.24720 0.48805 0.85760 0.39400
C 	C 	0.60120 0.42927 0.95800 0.38900
