data_crystal

_cell_length_a 5.58710
_cell_length_b 25.94620
_cell_length_c 17.49830
_cell_angle_alpha 90.00000
_cell_angle_beta  96.03100
_cell_angle_gamma 90.00000

_symmetry_space_group_name_	'P 1'
_symmetry_space_group_name_H-M	'P 1'

loop_
_symmetry_equiv_pos_as_xyz
  x,y,z

loop_
_atom_site_label
_atom_site_type_symbol
_atom_site_fract_x
_atom_site_fract_y
_atom_site_fract_z
_atom_site_charge
Zn	Zn	0.89206 0.47323 0.42807 1.21400
O 	O 	0.71300 0.54098 0.41684 -0.46100
O 	O 	0.82990 0.57555 0.53239 -0.45100
O 	O 	0.26420 0.55616 0.48002 -0.46600
O 	O 	0.14660 0.51183 0.37262 -0.43500
O 	O 	0.68550 0.81304 0.34467 -0.22000
O 	O 	0.99380 0.75740 0.21130 -0.21200
N 	N 	0.23380 0.92238 0.15426 -0.26700
N 	N 	0.34300 0.78447 0.27760 -0.19200
C 	C 	0.42780 0.89310 0.14590 0.12800
H 	H 	0.53460 0.90330 0.11150 0.00000
C 	C 	0.47230 0.84804 0.18750 -0.22400
H 	H 	0.60660 0.82800 0.18080 0.14000
C 	C 	0.31440 0.83331 0.23890 0.23300
C 	C 	0.12200 0.86450 0.25030 -0.22800
H 	H 	0.01840 0.85620 0.28670 0.14200
C 	C 	0.08710 0.90847 0.20630 0.12800
H 	H 	0.95580 0.92940 0.21300 -0.00400
C 	C 	0.54550 0.77753 0.33010 0.21300
C 	C 	0.57370 0.72632 0.36740 -0.02900
C 	C 	0.40830 0.68654 0.34650 -0.00500
C 	C 	0.20880 0.69565 0.29150 -0.02500
C 	C 	0.16740 0.74703 0.25640 0.20000
C 	C 	0.76390 0.71831 0.42150 -0.05500
H 	H 	0.87040 0.74510 0.43550 0.07400
C 	C 	0.79910 0.66982 0.45600 0.02000
H 	H 	0.92840 0.66480 0.49320 0.04600
C 	C 	0.64480 0.62939 0.43560 -0.11300
C 	C 	0.43850 0.63706 0.38190 0.09400
C 	C 	0.25970 0.59885 0.36150 -0.11300
C 	C 	0.07680 0.60826 0.30520 0.01900
H 	H 	0.96790 0.58210 0.29020 0.04700
C 	C 	0.05020 0.65699 0.26920 -0.06900
H 	H 	0.92540 0.66270 0.23070 0.08000
C 	C 	0.72970 0.57693 0.46500 0.40000
C 	C 	0.23010 0.55090 0.40840 0.38900
Zn	Zn	0.10794 0.97323 0.07193 1.21300
O 	O 	0.28700 0.04098 0.08316 -0.46100
O 	O 	0.17010 0.07555 0.96761 -0.45200
O 	O 	0.73580 0.05616 0.01998 -0.46400
O 	O 	0.85340 0.01183 0.12738 -0.43400
O 	O 	0.31450 0.31304 0.15533 -0.22100
O 	O 	0.00620 0.25740 0.28870 -0.21300
N 	N 	0.76620 0.42238 0.34574 -0.26700
N 	N 	0.65700 0.28447 0.22240 -0.19200
C 	C 	0.57220 0.39310 0.35410 0.12900
H 	H 	0.46540 0.40330 0.38850 0.00100
C 	C 	0.52770 0.34804 0.31250 -0.22500
H 	H 	0.39340 0.32800 0.31920 0.14000
C 	C 	0.68560 0.33331 0.26110 0.23400
C 	C 	0.87800 0.36450 0.24970 -0.23000
H 	H 	0.98160 0.35620 0.21330 0.14400
C 	C 	0.91290 0.40847 0.29370 0.13200
H 	H 	0.04420 0.42940 0.28700 -0.00700
C 	C 	0.45450 0.27753 0.16990 0.21300
C 	C 	0.42630 0.22632 0.13260 -0.02900
C 	C 	0.59170 0.18654 0.15350 -0.00400
C 	C 	0.79120 0.19565 0.20850 -0.02600
C 	C 	0.83260 0.24703 0.24360 0.20200
C 	C 	0.23610 0.21831 0.07850 -0.05500
H 	H 	0.12960 0.24510 0.06450 0.07400
C 	C 	0.20090 0.16982 0.04400 0.01900
H 	H 	0.07160 0.16480 0.00680 0.04600
C 	C 	0.35520 0.12939 0.06440 -0.11300
C 	C 	0.56150 0.13706 0.11810 0.09400
C 	C 	0.74030 0.09885 0.13850 -0.11300
C 	C 	0.92320 0.10826 0.19480 0.02000
H 	H 	0.03210 0.08210 0.20980 0.04600
C 	C 	0.94980 0.15699 0.23080 -0.06700
H 	H 	0.07460 0.16270 0.26930 0.07900
C 	C 	0.27030 0.07693 0.03500 0.40000
C 	C 	0.76990 0.05090 0.09160 0.38900
Zn	Zn	0.10794 0.52677 0.57193 1.21400
O 	O 	0.28700 0.45902 0.58316 -0.46100
O 	O 	0.17010 0.42445 0.46761 -0.45100
O 	O 	0.73580 0.44384 0.51998 -0.46600
O 	O 	0.85340 0.48817 0.62738 -0.43500
O 	O 	0.31450 0.18696 0.65533 -0.22000
O 	O 	0.00620 0.24260 0.78870 -0.21200
N 	N 	0.76620 0.07762 0.84574 -0.26700
N 	N 	0.65700 0.21553 0.72240 -0.19200
C 	C 	0.57220 0.10690 0.85410 0.12800
H 	H 	0.46540 0.09670 0.88850 0.00000
C 	C 	0.52770 0.15196 0.81250 -0.22400
H 	H 	0.39340 0.17200 0.81920 0.14000
C 	C 	0.68560 0.16669 0.76110 0.23300
C 	C 	0.87800 0.13550 0.74970 -0.22800
H 	H 	0.98160 0.14380 0.71330 0.14200
C 	C 	0.91290 0.09153 0.79370 0.12800
H 	H 	0.04420 0.07060 0.78700 -0.00400
C 	C 	0.45450 0.22247 0.66990 0.21300
C 	C 	0.42630 0.27368 0.63260 -0.02900
C 	C 	0.59170 0.31346 0.65350 -0.00500
C 	C 	0.79120 0.30435 0.70850 -0.02500
C 	C 	0.83260 0.25297 0.74360 0.20000
C 	C 	0.23610 0.28169 0.57850 -0.05500
H 	H 	0.12960 0.25490 0.56450 0.07400
C 	C 	0.20090 0.33018 0.54400 0.02000
H 	H 	0.07160 0.33520 0.50680 0.04600
C 	C 	0.35520 0.37061 0.56440 -0.11300
C 	C 	0.56150 0.36294 0.61810 0.09400
C 	C 	0.74030 0.40115 0.63850 -0.11300
C 	C 	0.92320 0.39174 0.69480 0.01900
H 	H 	0.03210 0.41790 0.70980 0.04700
C 	C 	0.94980 0.34301 0.73080 -0.06900
H 	H 	0.07460 0.33730 0.76930 0.08000
C 	C 	0.27030 0.42307 0.53500 0.40000
C 	C 	0.76990 0.44910 0.59160 0.38900
Zn	Zn	0.89206 0.02677 0.92807 1.21300
O 	O 	0.71300 0.95902 0.91684 -0.46100
O 	O 	0.82990 0.92445 0.03239 -0.45200
O 	O 	0.26420 0.94384 0.98002 -0.46400
O 	O 	0.14660 0.98817 0.87262 -0.43400
O 	O 	0.68550 0.68696 0.84467 -0.22100
O 	O 	0.99380 0.74260 0.71130 -0.21300
N 	N 	0.23380 0.57762 0.65426 -0.26700
N 	N 	0.34300 0.71553 0.77760 -0.19200
C 	C 	0.42780 0.60690 0.64590 0.12900
H 	H 	0.53460 0.59670 0.61150 0.00100
C 	C 	0.47230 0.65196 0.68750 -0.22500
H 	H 	0.60660 0.67200 0.68080 0.14000
C 	C 	0.31440 0.66669 0.73890 0.23400
C 	C 	0.12200 0.63550 0.75030 -0.23000
H 	H 	0.01840 0.64380 0.78670 0.14400
C 	C 	0.08710 0.59153 0.70630 0.13200
H 	H 	0.95580 0.57060 0.71300 -0.00700
C 	C 	0.54550 0.72247 0.83010 0.21300
C 	C 	0.57370 0.77368 0.86740 -0.02900
C 	C 	0.40830 0.81346 0.84650 -0.00400
C 	C 	0.20880 0.80435 0.79150 -0.02600
C 	C 	0.16740 0.75297 0.75640 0.20200
C 	C 	0.76390 0.78169 0.92150 -0.05500
H 	H 	0.87040 0.75490 0.93550 0.07400
C 	C 	0.79910 0.83018 0.95600 0.01900
H 	H 	0.92840 0.83520 0.99320 0.04600
C 	C 	0.64480 0.87061 0.93560 -0.11300
C 	C 	0.43850 0.86294 0.88190 0.09400
C 	C 	0.25970 0.90115 0.86150 -0.11300
C 	C 	0.07680 0.89174 0.80520 0.02000
H 	H 	0.96790 0.91790 0.79020 0.04600
C 	C 	0.05020 0.84301 0.76920 -0.06700
H 	H 	0.92540 0.83730 0.73070 0.07900
C 	C 	0.72970 0.92307 0.96500 0.40000
C 	C 	0.23010 0.94910 0.90840 0.38900
