data_crystal

_cell_length_a 18.00430
_cell_length_b 18.15940
_cell_length_c 21.11640
_cell_angle_alpha 90.00000
_cell_angle_beta  90.00000
_cell_angle_gamma 93.34400

_symmetry_space_group_name_	'P 1'
_symmetry_space_group_name_H-M	'P 1'

loop_
_symmetry_equiv_pos_as_xyz
  x,y,z

loop_
_atom_site_label
_atom_site_type_symbol
_atom_site_fract_x
_atom_site_fract_y
_atom_site_fract_z
_atom_site_charge
Mn	Mn	0.30523 0.01426 0.06274 1.30700
Mn	Mn	0.65396 0.35260 0.68503 1.28400
Mn	Mn	0.69477 0.48574 0.56274 1.30700
Mn	Mn	0.34604 0.14740 0.18503 1.28400
Cu	Cu	0.26868 0.51199 0.77000 0.72200
Cu	Cu	0.20501 0.59129 0.86340 0.72300
Cu	Cu	0.20803 0.44052 0.87019 0.72500
Cu	Cu	0.11982 0.50949 0.79078 0.71800
Cu	Cu	0.73132 0.98801 0.27000 0.72100
Cu	Cu	0.79499 0.90871 0.36340 0.72300
Cu	Cu	0.79197 0.05948 0.37019 0.72700
Cu	Cu	0.88018 0.99051 0.29078 0.71900
H 	H 	0.62370 0.43510 0.78430 0.24000
H 	H 	0.70110 0.21930 0.70170 0.24500
H 	H 	0.24290 0.64150 0.99110 0.00200
H 	H 	0.91060 0.55170 0.64640 0.07700
H 	H 	0.42450 0.48490 0.78570 0.00000
H 	H 	0.02660 0.57130 0.69200 0.00100
H 	H 	0.27750 0.74710 0.04520 0.08700
H 	H 	0.22270 0.86300 0.89540 0.08100
H 	H 	0.31870 0.51300 0.63210 0.01100
H 	H 	0.98490 0.41500 0.80820 -0.01000
H 	H 	0.24550 0.40710 0.00200 -0.00100
H 	H 	0.22530 0.27940 0.85760 0.02600
H 	H 	0.26810 0.18210 0.91830 0.06700
H 	H 	0.28080 0.31440 0.06570 0.05800
H 	H 	0.42340 0.50330 0.57320 0.07000
H 	H 	0.86960 0.39050 0.76560 0.08500
H 	H 	0.53250 0.46410 0.73370 0.03500
H 	H 	0.19480 0.75540 0.84270 0.02300
H 	H 	0.37630 0.06490 0.28430 0.24000
H 	H 	0.29890 0.28070 0.20170 0.24400
H 	H 	0.75710 0.85850 0.49110 0.00400
H 	H 	0.08940 0.94830 0.14640 0.07700
H 	H 	0.57550 0.01510 0.28570 0.00100
H 	H 	0.97340 0.92870 0.19200 -0.00200
H 	H 	0.72250 0.75290 0.54520 0.08400
H 	H 	0.77730 0.63700 0.39540 0.07900
H 	H 	0.68130 0.98700 0.13210 0.01300
H 	H 	0.01510 0.08500 0.30820 -0.00900
H 	H 	0.75450 0.09290 0.50200 -0.00000
H 	H 	0.77470 0.22060 0.35760 0.02600
H 	H 	0.73190 0.31790 0.41830 0.06800
H 	H 	0.71920 0.18560 0.56570 0.05800
H 	H 	0.57660 0.99670 0.07320 0.06500
H 	H 	0.13040 0.10950 0.26560 0.08400
H 	H 	0.46750 0.03590 0.23370 0.03300
H 	H 	0.80520 0.74460 0.34270 0.02400
C 	C 	0.23970 0.68660 0.97080 0.05900
C 	C 	0.92510 0.52100 0.67880 -0.08400
C 	C 	0.42420 0.48720 0.74170 0.04900
C 	C 	0.99480 0.53320 0.70730 0.05700
C 	C 	0.26000 0.75040 0.00400 -0.08900
C 	C 	0.22850 0.81840 0.91590 -0.08000
C 	C 	0.56290 0.47650 0.61490 0.32200
C 	C 	0.36310 0.50490 0.65270 0.04100
C 	C 	0.97090 0.44330 0.77390 0.07800
C 	C 	0.30290 0.17550 0.04080 0.40300
C 	C 	0.24880 0.36050 0.98430 0.05500
C 	C 	0.23780 0.28710 0.89990 0.02500
C 	C 	0.26210 0.22780 0.93690 -0.04200
C 	C 	0.27540 0.88980 0.01060 0.29000
C 	C 	0.27050 0.30510 0.02320 -0.05700
C 	C 	0.25450 0.81830 0.97680 -0.00200
C 	C 	0.27650 0.23790 0.99920 -0.05600
C 	C 	0.42530 0.49880 0.61710 -0.05700
C 	C 	0.90120 0.42740 0.74820 -0.09200
C 	C 	0.49030 0.47670 0.71170 -0.07100
C 	C 	0.80240 0.45040 0.66500 0.38400
C 	C 	0.21090 0.75310 0.88440 0.04400
C 	C 	0.49040 0.48600 0.64680 -0.05500
C 	C 	0.87970 0.46520 0.69840 -0.01400
C 	C 	0.76030 0.81340 0.47080 0.05300
C 	C 	0.07490 0.97900 0.17880 -0.08300
C 	C 	0.57580 0.01280 0.24170 0.04600
C 	C 	0.00520 0.96680 0.20730 0.06000
C 	C 	0.74000 0.74960 0.50400 -0.07900
C 	C 	0.77150 0.68160 0.41590 -0.07500
C 	C 	0.43710 0.02350 0.11490 0.32500
C 	C 	0.63690 0.99510 0.15270 0.03200
C 	C 	0.02910 0.05670 0.27390 0.07400
C 	C 	0.69710 0.32450 0.54080 0.40200
C 	C 	0.75120 0.13950 0.48430 0.05600
C 	C 	0.76220 0.21290 0.39990 0.02600
C 	C 	0.73790 0.27220 0.43690 -0.04300
C 	C 	0.72460 0.61020 0.51060 0.29700
C 	C 	0.72950 0.19490 0.52320 -0.05800
C 	C 	0.74550 0.68170 0.47680 -0.01100
C 	C 	0.72350 0.26210 0.49920 -0.05400
C 	C 	0.57470 0.00120 0.11710 -0.04500
C 	C 	0.09880 0.07260 0.24820 -0.09000
C 	C 	0.50970 0.02330 0.21170 -0.06700
C 	C 	0.19760 0.04960 0.16500 0.38500
C 	C 	0.78910 0.74690 0.38440 0.04100
C 	C 	0.50960 0.01400 0.14680 -0.06100
C 	C 	0.12030 0.03480 0.19840 -0.01600
I 	I 	0.19128 0.62756 0.73955 -0.58300
I 	I 	0.18462 0.38534 0.75483 -0.57800
I 	I 	0.09390 0.50962 0.91802 -0.55300
I 	I 	0.33240 0.52963 0.88944 -0.55900
I 	I 	0.80872 0.87244 0.23955 -0.58400
I 	I 	0.81538 0.11466 0.25483 -0.57600
I 	I 	0.90610 0.99038 0.41802 -0.55400
I 	I 	0.66760 0.97037 0.38944 -0.56000
N 	N 	0.01750 0.49390 0.75410 -0.24200
N 	N 	0.21590 0.68700 0.91090 -0.23100
N 	N 	0.23280 0.35270 0.92510 -0.22400
N 	N 	0.36240 0.49990 0.71550 -0.22900
N 	N 	0.98250 0.00610 0.25410 -0.24000
N 	N 	0.78410 0.81300 0.41090 -0.22900
N 	N 	0.76720 0.14730 0.42510 -0.22400
N 	N 	0.63760 0.00010 0.21550 -0.22600
O 	O 	0.63850 0.39320 0.78520 -0.47200
O 	O 	0.69030 0.24830 0.72950 -0.47600
O 	O 	0.76260 0.40110 0.69230 -0.44800
O 	O 	0.29860 0.11380 0.01500 -0.46500
O 	O 	0.29520 0.88630 0.06750 -0.34800
O 	O 	0.32440 0.19290 0.09400 -0.49300
O 	O 	0.56830 0.49850 0.55760 -0.36500
O 	O 	0.27140 0.94740 0.98170 -0.39500
O 	O 	0.78970 0.48310 0.61620 -0.47000
O 	O 	0.61890 0.45660 0.64280 -0.55600
O 	O 	0.36150 0.10680 0.28520 -0.47200
O 	O 	0.30970 0.25170 0.22950 -0.47600
O 	O 	0.23740 0.09890 0.19230 -0.44800
O 	O 	0.70140 0.38620 0.51500 -0.46500
O 	O 	0.70480 0.61370 0.56750 -0.34900
O 	O 	0.67560 0.30710 0.59400 -0.49300
O 	O 	0.43170 0.00150 0.05760 -0.36400
O 	O 	0.72860 0.55260 0.48170 -0.39900
O 	O 	0.21030 0.01690 0.11620 -0.47100
O 	O 	0.38110 0.04340 0.14280 -0.55700
Mn	Mn	0.69477 0.98574 0.93726 1.30800
Mn	Mn	0.34604 0.64740 0.31497 1.28500
Mn	Mn	0.30523 0.51426 0.43726 1.30800
Mn	Mn	0.65396 0.85260 0.81497 1.28500
Cu	Cu	0.73132 0.48801 0.23000 0.72300
Cu	Cu	0.79499 0.40871 0.13660 0.72400
Cu	Cu	0.79197 0.55948 0.12981 0.72600
Cu	Cu	0.88018 0.49051 0.20922 0.71900
Cu	Cu	0.26868 0.01199 0.73000 0.72200
Cu	Cu	0.20501 0.09129 0.63660 0.72400
Cu	Cu	0.20803 0.94052 0.62981 0.72700
Cu	Cu	0.11982 0.00949 0.70922 0.71900
H 	H 	0.37630 0.56490 0.21570 0.24000
H 	H 	0.29890 0.78070 0.29830 0.24500
H 	H 	0.75710 0.35850 0.00890 0.00200
H 	H 	0.08940 0.44830 0.35360 0.07700
H 	H 	0.57550 0.51510 0.21430 0.00000
H 	H 	0.97340 0.42870 0.30800 0.00100
H 	H 	0.72250 0.25290 0.95480 0.08700
H 	H 	0.77730 0.13700 0.10460 0.08100
H 	H 	0.68130 0.48700 0.36790 0.01100
H 	H 	0.01510 0.58500 0.19180 -0.01000
H 	H 	0.75450 0.59290 0.99800 -0.00100
H 	H 	0.77470 0.72060 0.14240 0.02600
H 	H 	0.73190 0.81790 0.08170 0.06700
H 	H 	0.71920 0.68560 0.93430 0.05800
H 	H 	0.57660 0.49670 0.42680 0.07000
H 	H 	0.13040 0.60950 0.23440 0.08500
H 	H 	0.46750 0.53590 0.26630 0.03500
H 	H 	0.80520 0.24460 0.15730 0.02300
H 	H 	0.62370 0.93510 0.71570 0.24000
H 	H 	0.70110 0.71930 0.79830 0.24400
H 	H 	0.24290 0.14150 0.50890 0.00400
H 	H 	0.91060 0.05170 0.85360 0.07700
H 	H 	0.42450 0.98490 0.71430 0.00100
H 	H 	0.02660 0.07130 0.80800 -0.00200
H 	H 	0.27750 0.24710 0.45480 0.08400
H 	H 	0.22270 0.36300 0.60460 0.07900
H 	H 	0.31870 0.01300 0.86790 0.01300
H 	H 	0.98490 0.91500 0.69180 -0.00900
H 	H 	0.24550 0.90710 0.49800 -0.00000
H 	H 	0.22530 0.77940 0.64240 0.02600
H 	H 	0.26810 0.68210 0.58170 0.06800
H 	H 	0.28080 0.81440 0.43430 0.05800
H 	H 	0.42340 0.00330 0.92680 0.06500
H 	H 	0.86960 0.89050 0.73440 0.08400
H 	H 	0.53250 0.96410 0.76630 0.03300
H 	H 	0.19480 0.25540 0.65730 0.02400
C 	C 	0.76030 0.31340 0.02920 0.05900
C 	C 	0.07490 0.47900 0.32120 -0.08400
C 	C 	0.57580 0.51280 0.25830 0.04900
C 	C 	0.00520 0.46680 0.29270 0.05700
C 	C 	0.74000 0.24960 0.99600 -0.08900
C 	C 	0.77150 0.18160 0.08410 -0.08000
C 	C 	0.43710 0.52350 0.38510 0.32200
C 	C 	0.63690 0.49510 0.34730 0.04100
C 	C 	0.02910 0.55670 0.22610 0.07800
C 	C 	0.69710 0.82450 0.95920 0.40300
C 	C 	0.75120 0.63950 0.01570 0.05500
C 	C 	0.76220 0.71290 0.10010 0.02500
C 	C 	0.73790 0.77220 0.06310 -0.04200
C 	C 	0.72460 0.11020 0.98940 0.29000
C 	C 	0.72950 0.69490 0.97680 -0.05700
C 	C 	0.74550 0.18170 0.02320 -0.00200
C 	C 	0.72350 0.76210 0.00080 -0.05600
C 	C 	0.57470 0.50120 0.38290 -0.05700
C 	C 	0.09880 0.57260 0.25180 -0.09200
C 	C 	0.50970 0.52330 0.28830 -0.07100
C 	C 	0.19760 0.54960 0.33500 0.38400
C 	C 	0.78910 0.24690 0.11560 0.04400
C 	C 	0.50960 0.51400 0.35320 -0.05500
C 	C 	0.12030 0.53480 0.30160 -0.01400
C 	C 	0.23970 0.18660 0.52920 0.05300
C 	C 	0.92510 0.02100 0.82120 -0.08300
C 	C 	0.42420 0.98720 0.75830 0.04600
C 	C 	0.99480 0.03320 0.79270 0.06000
C 	C 	0.26000 0.25040 0.49600 -0.07900
C 	C 	0.22850 0.31840 0.58410 -0.07500
C 	C 	0.56290 0.97650 0.88510 0.32500
C 	C 	0.36310 0.00490 0.84730 0.03200
C 	C 	0.97090 0.94330 0.72610 0.07400
C 	C 	0.30290 0.67550 0.45920 0.40200
C 	C 	0.24880 0.86050 0.51570 0.05600
C 	C 	0.23780 0.78710 0.60010 0.02600
C 	C 	0.26210 0.72780 0.56310 -0.04300
C 	C 	0.27540 0.38980 0.48940 0.29700
C 	C 	0.27050 0.80510 0.47680 -0.05800
C 	C 	0.25450 0.31830 0.52320 -0.01100
C 	C 	0.27650 0.73790 0.50080 -0.05400
C 	C 	0.42530 0.99880 0.88290 -0.04500
C 	C 	0.90120 0.92740 0.75180 -0.09000
C 	C 	0.49030 0.97670 0.78830 -0.06700
C 	C 	0.80240 0.95040 0.83500 0.38500
C 	C 	0.21090 0.25310 0.61560 0.04100
C 	C 	0.49040 0.98600 0.85320 -0.06100
C 	C 	0.87970 0.96520 0.80160 -0.01600
I 	I 	0.80872 0.37244 0.26045 -0.58300
I 	I 	0.81538 0.61466 0.24517 -0.57800
I 	I 	0.90610 0.49038 0.08198 -0.55300
I 	I 	0.66760 0.47037 0.11056 -0.55900
I 	I 	0.19128 0.12756 0.76045 -0.58400
I 	I 	0.18462 0.88534 0.74517 -0.57600
I 	I 	0.09390 0.00962 0.58198 -0.55400
I 	I 	0.33240 0.02963 0.61056 -0.56000
N 	N 	0.98250 0.50610 0.24590 -0.24200
N 	N 	0.78410 0.31300 0.08910 -0.23100
N 	N 	0.76720 0.64730 0.07490 -0.22400
N 	N 	0.63760 0.50010 0.28450 -0.22900
N 	N 	0.01750 0.99390 0.74590 -0.24000
N 	N 	0.21590 0.18700 0.58910 -0.22900
N 	N 	0.23280 0.85270 0.57490 -0.22400
N 	N 	0.36240 0.99990 0.78450 -0.22600
O 	O 	0.36150 0.60680 0.21480 -0.47200
O 	O 	0.30970 0.75170 0.27050 -0.47600
O 	O 	0.23740 0.59890 0.30770 -0.44800
O 	O 	0.70140 0.88620 0.98500 -0.46500
O 	O 	0.70480 0.11370 0.93250 -0.34800
O 	O 	0.67560 0.80710 0.90600 -0.49300
O 	O 	0.43170 0.50150 0.44240 -0.36500
O 	O 	0.72860 0.05260 0.01830 -0.39500
O 	O 	0.21030 0.51690 0.38380 -0.47000
O 	O 	0.38110 0.54340 0.35720 -0.55600
O 	O 	0.63850 0.89320 0.71480 -0.47200
O 	O 	0.69030 0.74830 0.77050 -0.47600
O 	O 	0.76260 0.90110 0.80770 -0.44800
O 	O 	0.29860 0.61380 0.48500 -0.46500
O 	O 	0.29520 0.38630 0.43250 -0.34900
O 	O 	0.32440 0.69290 0.40600 -0.49300
O 	O 	0.56830 0.99850 0.94240 -0.36400
O 	O 	0.27140 0.44740 0.51830 -0.39900
O 	O 	0.78970 0.98310 0.88380 -0.47100
O 	O 	0.61890 0.95660 0.85720 -0.55700
