data_crystal

_cell_length_a 17.25470
_cell_length_b 10.50450
_cell_length_c 26.60900
_cell_angle_alpha 90.00000
_cell_angle_beta  90.00000
_cell_angle_gamma 90.00000

_symmetry_space_group_name_	'P 1'
_symmetry_space_group_name_H-M	'P 1'

loop_
_symmetry_equiv_pos_as_xyz
  x,y,z

loop_
_atom_site_label
_atom_site_type_symbol
_atom_site_fract_x
_atom_site_fract_y
_atom_site_fract_z
_atom_site_charge
Sr	Sr	0.01588 0.49998 0.90407 1.51400
Sr	Sr	0.91261 0.20812 0.00818 1.54900
C 	C 	0.76060 0.49830 0.93430 -0.21900
C 	C 	0.71930 0.38500 0.93390 0.11900
H 	H 	0.74610 0.30820 0.93370 -0.02200
C 	C 	0.63990 0.38390 0.93380 -0.19200
C 	C 	0.60070 0.49590 0.93360 0.11100
H 	H 	0.54680 0.49580 0.93460 -0.01700
C 	C 	0.64040 0.61000 0.93190 -0.19900
C 	C 	0.72050 0.61190 0.93160 0.12300
H 	H 	0.74710 0.68870 0.92960 -0.02500
C 	C 	0.84780 0.49580 0.93910 0.39600
C 	C 	0.59790 0.25620 0.93610 0.35200
C 	C 	0.59590 0.73510 0.93170 0.40400
C 	C 	0.22350 0.65940 0.83010 -0.15100
C 	C 	0.25630 0.57100 0.86080 0.10300
H 	H 	0.22660 0.50210 0.87140 0.01600
C 	C 	0.33220 0.58030 0.87670 -0.18300
C 	C 	0.37600 0.68170 0.86040 0.08600
H 	H 	0.42670 0.68970 0.87180 -0.00300
C 	C 	0.34660 0.77440 0.82680 -0.15600
C 	C 	0.26830 0.76150 0.81300 0.08500
H 	H 	0.24590 0.82200 0.79200 0.02400
C 	C 	0.13960 0.64940 0.81240 0.38600
C 	C 	0.36700 0.48290 0.91070 0.37100
C 	C 	0.39630 0.87750 0.80560 0.36400
O 	O 	0.88150 0.39050 0.94520 -0.49400
O 	O 	0.88400 0.59780 0.93530 -0.51700
O 	O 	0.62560 0.82790 0.90950 -0.43200
O 	O 	0.53180 0.74090 0.95190 -0.52300
O 	O 	0.52530 0.25580 0.92950 -0.50600
O 	O 	0.63650 0.15790 0.94500 -0.43100
O 	O 	0.11410 0.72260 0.78020 -0.44400
O 	O 	0.10050 0.55960 0.83150 -0.52700
O 	O 	0.35180 0.37040 0.90350 -0.39000
O 	O 	0.41020 0.52080 0.94630 -0.54700
O 	O 	0.37560 0.93110 0.76570 -0.40700
O 	O 	0.46100 0.90310 0.82580 -0.53600
H 	H 	0.07000 0.55000 0.99100 0.93400
Sr	Sr	0.51588 0.99998 0.90407 1.51400
Sr	Sr	0.41261 0.70812 0.00818 1.53800
C 	C 	0.26060 0.99830 0.93430 -0.27700
C 	C 	0.21930 0.88500 0.93390 0.13000
H 	H 	0.24610 0.80820 0.93370 -0.02900
C 	C 	0.13990 0.88390 0.93380 -0.19600
C 	C 	0.10070 0.99590 0.93360 0.04500
H 	H 	0.04680 0.99580 0.93460 -0.03700
C 	C 	0.14040 0.11000 0.93190 -0.16000
C 	C 	0.22050 0.11190 0.93160 0.18300
H 	H 	0.24710 0.18870 0.92960 -0.03600
C 	C 	0.34780 0.99580 0.93910 0.34700
C 	C 	0.09790 0.75620 0.93610 0.35900
C 	C 	0.09590 0.23510 0.93170 0.39200
C 	C 	0.72350 0.15940 0.83010 -0.07900
C 	C 	0.75630 0.07100 0.86080 0.01000
H 	H 	0.72660 0.00210 0.87140 0.07000
C 	C 	0.83220 0.08030 0.87670 -0.03500
C 	C 	0.87600 0.18170 0.86040 -0.00300
H 	H 	0.92670 0.18970 0.87180 0.05700
C 	C 	0.84660 0.27440 0.82680 -0.08400
C 	C 	0.76830 0.26150 0.81300 0.02900
H 	H 	0.74590 0.32200 0.79200 0.05500
C 	C 	0.63960 0.14940 0.81240 0.35800
C 	C 	0.86700 0.98290 0.91070 0.21400
C 	C 	0.89630 0.37750 0.80560 0.33600
O 	O 	0.38150 0.89050 0.94520 -0.52100
O 	O 	0.38400 0.09780 0.93530 -0.49400
O 	O 	0.12560 0.32790 0.90950 -0.42000
O 	O 	0.03180 0.24090 0.95190 -0.54300
O 	O 	0.02530 0.75580 0.92950 -0.55300
O 	O 	0.13650 0.65790 0.94500 -0.46100
O 	O 	0.61410 0.22260 0.78020 -0.40000
O 	O 	0.60050 0.05960 0.83150 -0.47300
O 	O 	0.85180 0.87040 0.90350 -0.35200
O 	O 	0.91020 0.02080 0.94630 -0.42700
O 	O 	0.87560 0.43110 0.76570 -0.35600
O 	O 	0.96100 0.40310 0.82580 -0.46400
H 	H 	0.57000 0.05000 0.99100 0.77700
Sr	Sr	0.98412 0.50002 0.40407 1.54400
Sr	Sr	0.08739 0.79188 0.50818 1.51400
C 	C 	0.23940 0.50170 0.43430 -0.20900
C 	C 	0.28070 0.61500 0.43390 0.12600
H 	H 	0.25390 0.69180 0.43370 -0.02000
C 	C 	0.36010 0.61610 0.43380 -0.18200
C 	C 	0.39930 0.50410 0.43360 0.11100
H 	H 	0.45320 0.50420 0.43460 -0.00800
C 	C 	0.35960 0.39000 0.43190 -0.17700
C 	C 	0.27950 0.38810 0.43160 0.12100
H 	H 	0.25290 0.31130 0.42960 -0.00800
C 	C 	0.15220 0.50420 0.43910 0.41400
C 	C 	0.40210 0.74380 0.43610 0.36300
C 	C 	0.40410 0.26490 0.43170 0.39100
C 	C 	0.77650 0.34060 0.33010 -0.12500
C 	C 	0.74370 0.42900 0.36080 0.08400
H 	H 	0.77340 0.49790 0.37140 0.02500
C 	C 	0.66780 0.41970 0.37670 -0.16600
C 	C 	0.62400 0.31830 0.36040 0.06900
H 	H 	0.57330 0.31030 0.37180 0.00500
C 	C 	0.65340 0.22560 0.32680 -0.13100
C 	C 	0.73170 0.23850 0.31300 0.06400
H 	H 	0.75410 0.17800 0.29200 0.05100
C 	C 	0.86040 0.35060 0.31240 0.36700
C 	C 	0.63300 0.51710 0.41070 0.36400
C 	C 	0.60370 0.12250 0.30560 0.35000
O 	O 	0.11850 0.60950 0.44520 -0.51500
O 	O 	0.11600 0.40220 0.43530 -0.54700
O 	O 	0.37440 0.17210 0.40950 -0.38400
O 	O 	0.46820 0.25910 0.45190 -0.48100
O 	O 	0.47470 0.74420 0.42950 -0.50800
O 	O 	0.36350 0.84210 0.44500 -0.45400
O 	O 	0.88590 0.27740 0.28020 -0.38200
O 	O 	0.89950 0.44040 0.33150 -0.47900
O 	O 	0.64820 0.62960 0.40350 -0.38800
O 	O 	0.58980 0.47920 0.44630 -0.52100
O 	O 	0.62440 0.06890 0.26570 -0.35500
O 	O 	0.53900 0.09690 0.32580 -0.49600
H 	H 	0.93000 0.45000 0.49100 1.16200
Sr	Sr	0.48412 0.00002 0.40407 1.54100
Sr	Sr	0.58739 0.29188 0.50818 1.52500
C 	C 	0.73940 0.00170 0.43430 -0.15200
C 	C 	0.78070 0.11500 0.43390 0.11700
H 	H 	0.75390 0.19180 0.43370 -0.01400
C 	C 	0.86010 0.11610 0.43380 -0.17900
C 	C 	0.89930 0.00410 0.43360 0.17700
H 	H 	0.95320 0.00420 0.43460 0.01200
C 	C 	0.85960 0.89000 0.43190 -0.21500
C 	C 	0.77950 0.88810 0.43160 0.06200
H 	H 	0.75290 0.81130 0.42960 0.00200
C 	C 	0.65220 0.00420 0.43910 0.46300
C 	C 	0.90210 0.24380 0.43610 0.35900
C 	C 	0.90410 0.76490 0.43170 0.39800
C 	C 	0.27650 0.84060 0.33010 -0.19500
C 	C 	0.24370 0.92900 0.36080 0.17400
H 	H 	0.27340 0.99790 0.37140 -0.02600
C 	C 	0.16780 0.91970 0.37670 -0.30800
C 	C 	0.12400 0.81830 0.36040 0.15500
H 	H 	0.07330 0.81030 0.37180 -0.05200
C 	C 	0.15340 0.72560 0.32680 -0.20000
C 	C 	0.23170 0.73850 0.31300 0.11700
H 	H 	0.25410 0.67800 0.29200 0.02000
C 	C 	0.36040 0.85060 0.31240 0.39500
C 	C 	0.13300 0.01710 0.41070 0.51700
C 	C 	0.10370 0.62250 0.30560 0.37700
O 	O 	0.61850 0.10950 0.44520 -0.50100
O 	O 	0.61600 0.90220 0.43530 -0.57900
O 	O 	0.87440 0.67210 0.40950 -0.39600
O 	O 	0.96820 0.75910 0.45190 -0.45500
O 	O 	0.97470 0.24420 0.42950 -0.46000
O 	O 	0.86350 0.34210 0.44500 -0.44700
O 	O 	0.38590 0.77740 0.28020 -0.43000
O 	O 	0.39950 0.94040 0.33150 -0.53500
O 	O 	0.14820 0.12960 0.40350 -0.42400
O 	O 	0.08980 0.97920 0.44630 -0.63600
O 	O 	0.12440 0.56890 0.26570 -0.40000
O 	O 	0.03900 0.59690 0.32580 -0.56000
H 	H 	0.43000 0.95000 0.49100 0.99300
Sr	Sr	0.98412 0.49998 0.59593 1.54400
Sr	Sr	0.08739 0.20812 0.49182 1.51800
C 	C 	0.23940 0.49830 0.56570 -0.21500
C 	C 	0.28070 0.38500 0.56610 0.12700
H 	H 	0.25390 0.30820 0.56630 -0.01700
C 	C 	0.36010 0.38390 0.56620 -0.18200
C 	C 	0.39930 0.49590 0.56640 0.11500
H 	H 	0.45320 0.49580 0.56540 -0.01000
C 	C 	0.35960 0.61000 0.56810 -0.18700
C 	C 	0.27950 0.61190 0.56840 0.12900
H 	H 	0.25290 0.68870 0.57040 -0.02100
C 	C 	0.15220 0.49580 0.56090 0.41600
C 	C 	0.40210 0.25620 0.56390 0.35800
C 	C 	0.40410 0.73510 0.56830 0.40200
C 	C 	0.77650 0.65940 0.66990 -0.13600
C 	C 	0.74370 0.57100 0.63920 0.09200
H 	H 	0.77340 0.50210 0.62860 0.02400
C 	C 	0.66780 0.58030 0.62330 -0.17100
C 	C 	0.62400 0.68170 0.63960 0.07900
H 	H 	0.57330 0.68970 0.62820 0.00000
C 	C 	0.65340 0.77440 0.67320 -0.14900
C 	C 	0.73170 0.76150 0.68700 0.07500
H 	H 	0.75410 0.82200 0.70800 0.03200
C 	C 	0.86040 0.64940 0.68760 0.37100
C 	C 	0.63300 0.48290 0.58930 0.36500
C 	C 	0.60370 0.87750 0.69440 0.36100
O 	O 	0.11850 0.39050 0.55480 -0.51500
O 	O 	0.11600 0.59780 0.56470 -0.55400
O 	O 	0.37440 0.82790 0.59050 -0.42500
O 	O 	0.46820 0.74090 0.54810 -0.49300
O 	O 	0.47470 0.25580 0.57050 -0.49700
O 	O 	0.36350 0.15790 0.55500 -0.43100
O 	O 	0.88590 0.72260 0.71980 -0.39900
O 	O 	0.89950 0.55960 0.66850 -0.48000
O 	O 	0.64820 0.37040 0.59650 -0.38100
O 	O 	0.58980 0.52080 0.55370 -0.52100
O 	O 	0.62440 0.93110 0.73430 -0.40500
O 	O 	0.53900 0.90310 0.67420 -0.53500
H 	H 	0.93000 0.55000 0.50900 1.16100
Sr	Sr	0.48412 0.99998 0.59593 1.51800
Sr	Sr	0.58739 0.70812 0.49182 1.52400
C 	C 	0.73940 0.99830 0.56570 -0.24200
C 	C 	0.78070 0.88500 0.56610 0.10500
H 	H 	0.75390 0.80820 0.56630 -0.01100
C 	C 	0.86010 0.88390 0.56620 -0.14200
C 	C 	0.89930 0.99590 0.56640 0.00600
H 	H 	0.95320 0.99580 0.56540 0.02600
C 	C 	0.85960 0.11000 0.56810 -0.10100
C 	C 	0.77950 0.11190 0.56840 0.15700
H 	H 	0.75290 0.18870 0.57040 -0.01800
C 	C 	0.65220 0.99580 0.56090 0.34200
C 	C 	0.90210 0.75620 0.56390 0.34100
C 	C 	0.90410 0.23510 0.56830 0.37300
C 	C 	0.27650 0.15940 0.66990 -0.09600
C 	C 	0.24370 0.07100 0.63920 0.02800
H 	H 	0.27340 0.00210 0.62860 0.06500
C 	C 	0.16780 0.08030 0.62330 -0.06400
C 	C 	0.12400 0.18170 0.63960 0.02100
H 	H 	0.07330 0.18970 0.62820 0.00900
C 	C 	0.15340 0.27440 0.67320 -0.11900
C 	C 	0.23170 0.26150 0.68700 0.04600
H 	H 	0.25410 0.32200 0.70800 0.04700
C 	C 	0.36040 0.14940 0.68760 0.36200
C 	C 	0.13300 0.98290 0.58930 0.22100
C 	C 	0.10370 0.37750 0.69440 0.35100
O 	O 	0.61850 0.89050 0.55480 -0.49000
O 	O 	0.61600 0.09780 0.56470 -0.47200
O 	O 	0.87440 0.32790 0.59050 -0.38600
O 	O 	0.96820 0.24090 0.54810 -0.43600
O 	O 	0.97470 0.75580 0.57050 -0.46600
O 	O 	0.86350 0.65790 0.55500 -0.44400
O 	O 	0.38590 0.22260 0.71980 -0.40200
O 	O 	0.39950 0.05960 0.66850 -0.47400
O 	O 	0.14820 0.87040 0.59650 -0.37600
O 	O 	0.08980 0.02080 0.55370 -0.46600
O 	O 	0.12440 0.43110 0.73430 -0.39000
O 	O 	0.03900 0.40310 0.67420 -0.55000
H 	H 	0.43000 0.05000 0.50900 1.05300
Sr	Sr	0.01588 0.50002 0.09593 1.51900
Sr	Sr	0.91261 0.79188 0.99182 1.51900
C 	C 	0.76060 0.50170 0.06570 -0.18100
C 	C 	0.71930 0.61500 0.06610 0.11700
H 	H 	0.74610 0.69180 0.06630 -0.00700
C 	C 	0.63990 0.61610 0.06620 -0.16000
C 	C 	0.60070 0.50410 0.06640 0.10500
H 	H 	0.54680 0.50420 0.06540 0.00100
C 	C 	0.64040 0.39000 0.06810 -0.15600
C 	C 	0.72050 0.38810 0.06840 0.11500
H 	H 	0.74710 0.31130 0.07040 0.00500
C 	C 	0.84780 0.50420 0.06090 0.40100
C 	C 	0.59790 0.74380 0.06390 0.36200
C 	C 	0.59590 0.26490 0.06830 0.39300
C 	C 	0.22350 0.34060 0.16990 -0.13700
C 	C 	0.25630 0.42900 0.13920 0.09000
H 	H 	0.22660 0.49790 0.12860 0.02400
C 	C 	0.33220 0.41970 0.12330 -0.16400
C 	C 	0.37600 0.31830 0.13960 0.07200
H 	H 	0.42670 0.31030 0.12820 0.00500
C 	C 	0.34660 0.22560 0.17320 -0.13600
C 	C 	0.26830 0.23850 0.18700 0.07000
H 	H 	0.24590 0.17800 0.20800 0.04300
C 	C 	0.13960 0.35060 0.18760 0.38000
C 	C 	0.36700 0.51710 0.08930 0.36300
C 	C 	0.39630 0.12250 0.19440 0.35100
O 	O 	0.88150 0.60950 0.05480 -0.45400
O 	O 	0.88400 0.40220 0.06470 -0.48400
O 	O 	0.62560 0.17210 0.09050 -0.37400
O 	O 	0.53180 0.25910 0.04810 -0.45700
O 	O 	0.52530 0.74420 0.07050 -0.49700
O 	O 	0.63650 0.84210 0.05500 -0.42200
O 	O 	0.11410 0.27740 0.21980 -0.42700
O 	O 	0.10050 0.44040 0.16850 -0.52400
O 	O 	0.35180 0.62960 0.09650 -0.38100
O 	O 	0.41020 0.47920 0.05370 -0.49600
O 	O 	0.37560 0.06890 0.23430 -0.35700
O 	O 	0.46100 0.09690 0.17420 -0.49700
H 	H 	0.07000 0.45000 0.00900 1.03000
Sr	Sr	0.51588 0.00002 0.09593 1.53900
Sr	Sr	0.41261 0.29188 0.99182 1.51100
C 	C 	0.26060 0.00170 0.06570 -0.15700
C 	C 	0.21930 0.11500 0.06610 0.14000
H 	H 	0.24610 0.19180 0.06630 -0.01300
C 	C 	0.13990 0.11610 0.06620 -0.20100
C 	C 	0.10070 0.00410 0.06640 0.21000
H 	H 	0.04680 0.00420 0.06540 -0.03400
C 	C 	0.14040 0.89000 0.06810 -0.23900
C 	C 	0.22050 0.88810 0.06840 0.08800
H 	H 	0.24710 0.81130 0.07040 0.00200
C 	C 	0.34780 0.00420 0.06090 0.47200
C 	C 	0.09790 0.24380 0.06390 0.38100
C 	C 	0.09590 0.76490 0.06830 0.41800
C 	C 	0.72350 0.84060 0.16990 -0.17600
C 	C 	0.75630 0.92900 0.13920 0.15000
H 	H 	0.72660 0.99790 0.12860 -0.01400
C 	C 	0.83220 0.91970 0.12330 -0.26400
C 	C 	0.87600 0.81830 0.13960 0.12600
H 	H 	0.92670 0.81030 0.12820 -0.00200
C 	C 	0.84660 0.72560 0.17320 -0.16300
C 	C 	0.76830 0.73850 0.18700 0.09700
H 	H 	0.74590 0.67800 0.20800 0.02900
C 	C 	0.63960 0.85060 0.18760 0.38800
C 	C 	0.86700 0.01710 0.08930 0.50000
C 	C 	0.89630 0.62250 0.19440 0.36000
O 	O 	0.38150 0.10950 0.05480 -0.48900
O 	O 	0.38400 0.90220 0.06470 -0.57300
O 	O 	0.12560 0.67210 0.09050 -0.41300
O 	O 	0.03180 0.75910 0.04810 -0.50600
O 	O 	0.02530 0.24420 0.07050 -0.52600
O 	O 	0.13650 0.34210 0.05500 -0.43200
O 	O 	0.61410 0.77740 0.21980 -0.42700
O 	O 	0.60050 0.94040 0.16850 -0.53300
O 	O 	0.85180 0.12960 0.09650 -0.38400
O 	O 	0.91020 0.97920 0.05370 -0.54700
O 	O 	0.87560 0.56890 0.23430 -0.36600
O 	O 	0.96100 0.59690 0.17420 -0.47600
H 	H 	0.57000 0.95000 0.00900 0.81200
Sr	Sr	0.00000 0.57253 0.75000 1.49600
Sr	Sr	0.50000 0.07253 0.75000 1.52200
Sr	Sr	0.00000 0.42747 0.25000 1.49700
Sr	Sr	0.50000 0.92747 0.25000 1.50300
O 	O 	0.04570 0.50000 -0.00000 -2.18100
O 	O 	0.54570 0.00000 -0.00000 -1.78400
O 	O 	0.95430 0.50000 0.50000 -2.50500
O 	O 	0.45430 0.00000 0.50000 -2.24400
