data_crystal

_cell_length_a 17.05900
_cell_length_b 11.24700
_cell_length_c 24.52000
_cell_angle_alpha 90.00000
_cell_angle_beta  90.00000
_cell_angle_gamma 90.00000

_symmetry_space_group_name_	'P 1'
_symmetry_space_group_name_H-M	'P 1'

loop_
_symmetry_equiv_pos_as_xyz
  x,y,z

loop_
_atom_site_label
_atom_site_type_symbol
_atom_site_fract_x
_atom_site_fract_y
_atom_site_fract_z
_atom_site_charge
Ag	Ag	0.16478 0.15356 0.42122 0.50000
C 	C 	0.98410 0.20340 0.45320 0.00400
H 	H 	0.00610 0.20520 0.48930 0.01400
H 	H 	0.97320 0.12210 0.44420 0.01100
C 	C 	0.00760 0.24870 0.35890 0.00800
H 	H 	0.99680 0.16780 0.34880 -0.01000
H 	H 	0.04460 0.28040 0.33320 -0.01300
C 	C 	0.05700 0.37810 0.42880 0.00200
H 	H 	0.09390 0.41150 0.40360 0.01200
H 	H 	0.07980 0.38130 0.46460 0.01100
C 	C 	0.92990 0.39570 0.46680 -0.00600
H 	H 	0.88230 0.44140 0.46680 0.02300
H 	H 	0.95160 0.39870 0.50280 0.04000
C 	C 	0.95130 0.44390 0.37360 0.01200
H 	H 	0.98720 0.47870 0.34810 0.00100
H 	H 	0.90400 0.49000 0.37310 0.00200
C 	C 	0.87800 0.26890 0.39790 0.00800
H 	H 	0.86610 0.18820 0.38810 -0.00000
H 	H 	0.83000 0.31340 0.39760 0.00000
C 	C 	0.22830 0.89020 0.40460 0.00600
H 	H 	0.23980 0.89700 0.44280 -0.00500
H 	H 	0.27080 0.92540 0.38470 0.00300
C 	C 	0.20910 0.75810 0.33000 0.01100
H 	H 	0.20680 0.67680 0.31810 -0.01100
H 	H 	0.25210 0.79590 0.31160 -0.00900
C 	C 	0.15500 0.71180 0.41790 0.00400
H 	H 	0.16390 0.71550 0.45650 0.01600
H 	H 	0.15000 0.62960 0.40800 0.01400
C 	C 	0.06890 0.76480 0.34630 0.00700
H 	H 	0.02070 0.80400 0.33710 -0.00100
H 	H 	0.06430 0.68280 0.33600 0.00400
C 	C 	0.14250 0.94540 0.33170 0.01300
H 	H 	0.18570 0.98090 0.31260 -0.01200
H 	H 	0.09580 0.98790 0.32190 -0.01300
C 	C 	0.08910 0.89710 0.42060 -0.00100
H 	H 	0.04130 0.93810 0.41200 0.01200
H 	H 	0.09710 0.90240 0.45920 0.01500
N 	N 	0.04260 0.25160 0.41380 -0.15900
N 	N 	0.98550 0.44980 0.42810 -0.10900
N 	N 	0.93330 0.31990 0.35630 -0.17600
N 	N 	0.91130 0.27060 0.45300 -0.11200
N 	N 	0.15590 0.95630 0.39170 -0.15900
N 	N 	0.22280 0.76300 0.38933 -0.15700
N 	N 	0.08200 0.77240 0.40520 -0.10800
N 	N 	0.13480 0.82020 0.31494 -0.17400
Ag	Ag	0.39132 0.30784 0.22743 0.48300
Ag	Ag	0.83522 0.65356 0.07878 0.50100
C 	C 	0.01590 0.70340 0.04680 0.00600
H 	H 	0.99390 0.70520 0.01070 0.01300
H 	H 	0.02680 0.62210 0.05580 0.01000
C 	C 	0.99240 0.74870 0.14110 0.00700
H 	H 	0.00320 0.66780 0.15120 -0.00900
H 	H 	0.95540 0.78040 0.16680 -0.01300
C 	C 	0.94300 0.87810 0.07120 0.00100
H 	H 	0.90610 0.91150 0.09640 0.01200
H 	H 	0.92020 0.88130 0.03540 0.01100
C 	C 	0.07010 0.89570 0.03320 -0.00400
H 	H 	0.11770 0.94140 0.03320 0.02200
H 	H 	0.04840 0.89870 0.99720 0.03800
C 	C 	0.04870 0.94390 0.12640 0.01100
H 	H 	0.01280 0.97870 0.15190 0.00200
H 	H 	0.09600 0.99000 0.12690 0.00200
C 	C 	0.12200 0.76890 0.10210 0.00800
H 	H 	0.13390 0.68820 0.11190 -0.00000
H 	H 	0.17000 0.81340 0.10240 0.00000
C 	C 	0.77170 0.39020 0.09540 0.00600
H 	H 	0.76020 0.39700 0.05720 -0.00600
H 	H 	0.72920 0.42540 0.11530 0.00300
C 	C 	0.79090 0.25810 0.17000 0.01200
H 	H 	0.79320 0.17680 0.18190 -0.01100
H 	H 	0.74790 0.29590 0.18840 -0.00900
C 	C 	0.84500 0.21180 0.08210 0.00400
H 	H 	0.83610 0.21550 0.04350 0.01500
H 	H 	0.85000 0.12960 0.09200 0.01400
C 	C 	0.93110 0.26480 0.15370 0.00700
H 	H 	0.97930 0.30400 0.16290 -0.00100
H 	H 	0.93570 0.18280 0.16400 0.00300
C 	C 	0.85750 0.44540 0.16830 0.01300
H 	H 	0.81430 0.48090 0.18740 -0.01200
H 	H 	0.90420 0.48790 0.17810 -0.01300
C 	C 	0.91090 0.39710 0.07940 -0.00000
H 	H 	0.95870 0.43810 0.08800 0.01100
H 	H 	0.90290 0.40240 0.04080 0.01500
N 	N 	0.95740 0.75160 0.08620 -0.15900
N 	N 	0.01450 0.94980 0.07190 -0.10900
N 	N 	0.06670 0.81990 0.14370 -0.17600
N 	N 	0.08870 0.77060 0.04700 -0.11200
N 	N 	0.84410 0.45630 0.10830 -0.16000
N 	N 	0.77720 0.26300 0.11067 -0.15700
N 	N 	0.91800 0.27240 0.09480 -0.10800
N 	N 	0.86520 0.32020 0.18506 -0.17500
Ag	Ag	0.60868 0.80784 0.27257 0.48300
Ag	Ag	0.89132 0.30784 0.27257 0.48300
Ag	Ag	0.66478 0.15356 0.07878 0.50100
C 	C 	0.48410 0.20340 0.04680 0.00400
H 	H 	0.50610 0.20520 0.01070 0.01400
H 	H 	0.47320 0.12210 0.05580 0.01100
C 	C 	0.50760 0.24870 0.14110 0.00900
H 	H 	0.49680 0.16780 0.15120 -0.01000
H 	H 	0.54460 0.28040 0.16680 -0.01300
C 	C 	0.55700 0.37810 0.07120 0.00200
H 	H 	0.59390 0.41150 0.09640 0.01200
H 	H 	0.57980 0.38130 0.03540 0.01100
C 	C 	0.42990 0.39570 0.03320 -0.00600
H 	H 	0.38230 0.44140 0.03320 0.02300
H 	H 	0.45160 0.39870 0.99720 0.04000
C 	C 	0.45130 0.44390 0.12640 0.01100
H 	H 	0.48720 0.47870 0.15190 0.00100
H 	H 	0.40400 0.49000 0.12690 0.00200
C 	C 	0.37800 0.26890 0.10210 0.00800
H 	H 	0.36610 0.18820 0.11190 -0.00100
H 	H 	0.33000 0.31340 0.10240 0.00000
C 	C 	0.72830 0.89020 0.09540 0.00600
H 	H 	0.73980 0.89700 0.05720 -0.00500
H 	H 	0.77080 0.92540 0.11530 0.00300
C 	C 	0.70910 0.75810 0.17000 0.01200
H 	H 	0.70680 0.67680 0.18190 -0.01100
H 	H 	0.75210 0.79590 0.18840 -0.00900
C 	C 	0.65500 0.71180 0.08210 0.00400
H 	H 	0.66390 0.71550 0.04350 0.01600
H 	H 	0.65000 0.62960 0.09200 0.01400
C 	C 	0.56890 0.76480 0.15370 0.00700
H 	H 	0.52070 0.80400 0.16290 -0.00100
H 	H 	0.56430 0.68280 0.16400 0.00400
C 	C 	0.64250 0.94540 0.16830 0.01300
H 	H 	0.68570 0.98090 0.18740 -0.01200
H 	H 	0.59580 0.98790 0.17810 -0.01300
C 	C 	0.58910 0.89710 0.07940 -0.00100
H 	H 	0.54130 0.93810 0.08800 0.01200
H 	H 	0.59710 0.90240 0.04080 0.01500
N 	N 	0.54260 0.25160 0.08620 -0.15900
N 	N 	0.48550 0.44980 0.07190 -0.10900
N 	N 	0.43330 0.31990 0.14370 -0.17600
N 	N 	0.41130 0.27060 0.04700 -0.11200
N 	N 	0.65590 0.95630 0.10830 -0.15900
N 	N 	0.72280 0.76300 0.11067 -0.15700
N 	N 	0.58200 0.77240 0.09480 -0.10800
N 	N 	0.63480 0.82020 0.18506 -0.17500
Ag	Ag	0.10868 0.80784 0.22743 0.48300
Ag	Ag	0.33522 0.65356 0.42122 0.50100
C 	C 	0.51590 0.70340 0.45320 0.00400
H 	H 	0.49390 0.70520 0.48930 0.01400
H 	H 	0.52680 0.62210 0.44420 0.01100
C 	C 	0.49240 0.74870 0.35890 0.00900
H 	H 	0.50320 0.66780 0.34880 -0.01000
H 	H 	0.45540 0.78040 0.33320 -0.01300
C 	C 	0.44300 0.87810 0.42880 0.00200
H 	H 	0.40610 0.91150 0.40360 0.01200
H 	H 	0.42020 0.88130 0.46460 0.01100
C 	C 	0.57010 0.89570 0.46680 -0.00600
H 	H 	0.61770 0.94140 0.46680 0.02300
H 	H 	0.54840 0.89870 0.50280 0.04000
C 	C 	0.54870 0.94390 0.37360 0.01100
H 	H 	0.51280 0.97870 0.34810 0.00100
H 	H 	0.59600 0.99000 0.37310 0.00200
C 	C 	0.62200 0.76890 0.39790 0.00800
H 	H 	0.63390 0.68820 0.38810 -0.00000
H 	H 	0.67000 0.81340 0.39760 0.00000
C 	C 	0.27170 0.39020 0.40460 0.00600
H 	H 	0.26020 0.39700 0.44280 -0.00500
H 	H 	0.22920 0.42540 0.38470 0.00300
C 	C 	0.29090 0.25810 0.33000 0.01200
H 	H 	0.29320 0.17680 0.31810 -0.01100
H 	H 	0.24790 0.29590 0.31160 -0.00900
C 	C 	0.34500 0.21180 0.41790 0.00400
H 	H 	0.33610 0.21550 0.45650 0.01600
H 	H 	0.35000 0.12960 0.40800 0.01400
C 	C 	0.43110 0.26480 0.34630 0.00700
H 	H 	0.47930 0.30400 0.33710 -0.00100
H 	H 	0.43570 0.18280 0.33600 0.00300
C 	C 	0.35750 0.44540 0.33170 0.01300
H 	H 	0.31430 0.48090 0.31260 -0.01200
H 	H 	0.40420 0.48790 0.32190 -0.01300
C 	C 	0.41090 0.39710 0.42060 -0.00000
H 	H 	0.45870 0.43810 0.41200 0.01200
H 	H 	0.40290 0.40240 0.45920 0.01500
N 	N 	0.45740 0.75160 0.41380 -0.15900
N 	N 	0.51450 0.94980 0.42810 -0.10900
N 	N 	0.56670 0.81990 0.35630 -0.17600
N 	N 	0.58870 0.77060 0.45300 -0.11200
N 	N 	0.34410 0.45630 0.39170 -0.16000
N 	N 	0.27720 0.26300 0.38933 -0.15700
N 	N 	0.41800 0.27240 0.40520 -0.10800
N 	N 	0.36520 0.32020 0.31494 -0.17500
Ag	Ag	0.10868 0.69216 0.72743 0.48300
Ag	Ag	0.33522 0.84644 0.92122 0.50100
C 	C 	0.51590 0.79660 0.95320 0.00400
H 	H 	0.49390 0.79480 0.98930 0.01400
H 	H 	0.52680 0.87790 0.94420 0.01100
C 	C 	0.49240 0.75130 0.85890 0.00900
H 	H 	0.50320 0.83220 0.84880 -0.01000
H 	H 	0.45540 0.71960 0.83320 -0.01300
C 	C 	0.44300 0.62190 0.92880 0.00200
H 	H 	0.40610 0.58850 0.90360 0.01200
H 	H 	0.42020 0.61870 0.96460 0.01100
C 	C 	0.57010 0.60430 0.96680 -0.00600
H 	H 	0.61770 0.55860 0.96680 0.02300
H 	H 	0.54840 0.60130 0.00280 0.04000
C 	C 	0.54870 0.55610 0.87360 0.01100
H 	H 	0.51280 0.52130 0.84810 0.00100
H 	H 	0.59600 0.51000 0.87310 0.00200
C 	C 	0.62200 0.73110 0.89790 0.00800
H 	H 	0.63390 0.81180 0.88810 -0.00100
H 	H 	0.67000 0.68660 0.89760 0.00000
C 	C 	0.27170 0.10980 0.90460 0.00600
H 	H 	0.26020 0.10300 0.94280 -0.00500
H 	H 	0.22920 0.07460 0.88470 0.00300
C 	C 	0.29090 0.24190 0.83000 0.01200
H 	H 	0.29320 0.32320 0.81810 -0.01100
H 	H 	0.24790 0.20410 0.81160 -0.00900
C 	C 	0.34500 0.28820 0.91790 0.00400
H 	H 	0.33610 0.28450 0.95650 0.01600
H 	H 	0.35000 0.37040 0.90800 0.01400
C 	C 	0.43110 0.23520 0.84630 0.00700
H 	H 	0.47930 0.19600 0.83710 -0.00100
H 	H 	0.43570 0.31720 0.83600 0.00400
C 	C 	0.35750 0.05460 0.83170 0.01300
H 	H 	0.31430 0.01910 0.81260 -0.01200
H 	H 	0.40420 0.01210 0.82190 -0.01300
C 	C 	0.41090 0.10290 0.92060 -0.00100
H 	H 	0.45870 0.06190 0.91200 0.01200
H 	H 	0.40290 0.09760 0.95920 0.01500
N 	N 	0.45740 0.74840 0.91380 -0.15900
N 	N 	0.51450 0.55020 0.92810 -0.10900
N 	N 	0.56670 0.68010 0.85630 -0.17600
N 	N 	0.58870 0.72940 0.95300 -0.11200
N 	N 	0.34410 0.04370 0.89170 -0.15900
N 	N 	0.27720 0.23700 0.88933 -0.15700
N 	N 	0.41800 0.22760 0.90520 -0.10800
N 	N 	0.36520 0.17980 0.81494 -0.17500
Ag	Ag	0.89132 0.19216 0.77257 0.48300
Ag	Ag	0.66478 0.34644 0.57878 0.50100
C 	C 	0.48410 0.29660 0.54680 0.00400
H 	H 	0.50610 0.29480 0.51070 0.01400
H 	H 	0.47320 0.37790 0.55580 0.01100
C 	C 	0.50760 0.25130 0.64110 0.00900
H 	H 	0.49680 0.33220 0.65120 -0.01000
H 	H 	0.54460 0.21960 0.66680 -0.01300
C 	C 	0.55700 0.12190 0.57120 0.00200
H 	H 	0.59390 0.08850 0.59640 0.01200
H 	H 	0.57980 0.11870 0.53540 0.01100
C 	C 	0.42990 0.10430 0.53320 -0.00600
H 	H 	0.38230 0.05860 0.53320 0.02300
H 	H 	0.45160 0.10130 0.49720 0.04000
C 	C 	0.45130 0.05610 0.62640 0.01100
H 	H 	0.48720 0.02130 0.65190 0.00100
H 	H 	0.40400 0.01000 0.62690 0.00200
C 	C 	0.37800 0.23110 0.60210 0.00800
H 	H 	0.36610 0.31180 0.61190 -0.00000
H 	H 	0.33000 0.18660 0.60240 0.00000
C 	C 	0.72830 0.60980 0.59540 0.00600
H 	H 	0.73980 0.60300 0.55720 -0.00500
H 	H 	0.77080 0.57460 0.61530 0.00300
C 	C 	0.70910 0.74190 0.67000 0.01200
H 	H 	0.70680 0.82320 0.68190 -0.01100
H 	H 	0.75210 0.70410 0.68840 -0.00900
C 	C 	0.65500 0.78820 0.58210 0.00400
H 	H 	0.66390 0.78450 0.54350 0.01600
H 	H 	0.65000 0.87040 0.59200 0.01400
C 	C 	0.56890 0.73520 0.65370 0.00700
H 	H 	0.52070 0.69600 0.66290 -0.00100
H 	H 	0.56430 0.81720 0.66400 0.00300
C 	C 	0.64250 0.55460 0.66830 0.01300
H 	H 	0.68570 0.51910 0.68740 -0.01200
H 	H 	0.59580 0.51210 0.67810 -0.01300
C 	C 	0.58910 0.60290 0.57940 -0.00000
H 	H 	0.54130 0.56190 0.58800 0.01200
H 	H 	0.59710 0.59760 0.54080 0.01500
N 	N 	0.54260 0.24840 0.58620 -0.15900
N 	N 	0.48550 0.05020 0.57190 -0.10900
N 	N 	0.43330 0.18010 0.64370 -0.17600
N 	N 	0.41130 0.22940 0.54700 -0.11200
N 	N 	0.65590 0.54370 0.60830 -0.16000
N 	N 	0.72280 0.73700 0.61067 -0.15700
N 	N 	0.58200 0.72760 0.59480 -0.10800
N 	N 	0.63480 0.67980 0.68506 -0.17500
Ag	Ag	0.83522 0.84644 0.57878 0.50100
C 	C 	0.01590 0.79660 0.54680 0.00500
H 	H 	0.99390 0.79480 0.51070 0.01400
H 	H 	0.02680 0.87790 0.55580 0.01100
C 	C 	0.99240 0.75130 0.64110 0.00800
H 	H 	0.00320 0.83220 0.65120 -0.01000
H 	H 	0.95540 0.71960 0.66680 -0.01300
C 	C 	0.94300 0.62190 0.57120 0.00200
H 	H 	0.90610 0.58850 0.59640 0.01200
H 	H 	0.92020 0.61870 0.53540 0.01100
C 	C 	0.07010 0.60430 0.53320 -0.00600
H 	H 	0.11770 0.55860 0.53320 0.02300
H 	H 	0.04840 0.60130 0.49720 0.04000
C 	C 	0.04870 0.55610 0.62640 0.01200
H 	H 	0.01280 0.52130 0.65190 0.00100
H 	H 	0.09600 0.51000 0.62690 0.00200
C 	C 	0.12200 0.73110 0.60210 0.00800
H 	H 	0.13390 0.81180 0.61190 -0.00000
H 	H 	0.17000 0.68660 0.60240 0.00000
C 	C 	0.77170 0.10980 0.59540 0.00600
H 	H 	0.76020 0.10300 0.55720 -0.00500
H 	H 	0.72920 0.07460 0.61530 0.00300
C 	C 	0.79090 0.24190 0.67000 0.01100
H 	H 	0.79320 0.32320 0.68190 -0.01100
H 	H 	0.74790 0.20410 0.68840 -0.00900
C 	C 	0.84500 0.28820 0.58210 0.00400
H 	H 	0.83610 0.28450 0.54350 0.01600
H 	H 	0.85000 0.37040 0.59200 0.01400
C 	C 	0.93110 0.23520 0.65370 0.00700
H 	H 	0.97930 0.19600 0.66290 -0.00100
H 	H 	0.93570 0.31720 0.66400 0.00400
C 	C 	0.85750 0.05460 0.66830 0.01300
H 	H 	0.81430 0.01910 0.68740 -0.01200
H 	H 	0.90420 0.01210 0.67810 -0.01300
C 	C 	0.91090 0.10290 0.57940 -0.00100
H 	H 	0.95870 0.06190 0.58800 0.01200
H 	H 	0.90290 0.09760 0.54080 0.01500
N 	N 	0.95740 0.74840 0.58620 -0.15900
N 	N 	0.01450 0.55020 0.57190 -0.10900
N 	N 	0.06670 0.68010 0.64370 -0.17600
N 	N 	0.08870 0.72940 0.54700 -0.11200
N 	N 	0.84410 0.04370 0.60830 -0.15900
N 	N 	0.77720 0.23700 0.61067 -0.15700
N 	N 	0.91800 0.22760 0.59480 -0.10800
N 	N 	0.86520 0.17980 0.68506 -0.17400
Ag	Ag	0.60868 0.69216 0.77257 0.48300
Ag	Ag	0.16478 0.34644 0.92122 0.50100
C 	C 	0.98410 0.29660 0.95320 0.00600
H 	H 	0.00610 0.29480 0.98930 0.01300
H 	H 	0.97320 0.37790 0.94420 0.01000
C 	C 	0.00760 0.25130 0.85890 0.00700
H 	H 	0.99680 0.33220 0.84880 -0.00900
H 	H 	0.04460 0.21960 0.83320 -0.01300
C 	C 	0.05700 0.12190 0.92880 0.00100
H 	H 	0.09390 0.08850 0.90360 0.01200
H 	H 	0.07980 0.11870 0.96460 0.01100
C 	C 	0.92990 0.10430 0.96680 -0.00400
H 	H 	0.88230 0.05860 0.96680 0.02200
H 	H 	0.95160 0.10130 0.00280 0.03800
C 	C 	0.95130 0.05610 0.87360 0.01100
H 	H 	0.98720 0.02130 0.84810 0.00200
H 	H 	0.90400 0.01000 0.87310 0.00200
C 	C 	0.87800 0.23110 0.89790 0.00800
H 	H 	0.86610 0.31180 0.88810 -0.00000
H 	H 	0.83000 0.18660 0.89760 0.00000
C 	C 	0.22830 0.60980 0.90460 0.00600
H 	H 	0.23980 0.60300 0.94280 -0.00600
H 	H 	0.27080 0.57460 0.88470 0.00300
C 	C 	0.20910 0.74190 0.83000 0.01200
H 	H 	0.20680 0.82320 0.81810 -0.01100
H 	H 	0.25210 0.70410 0.81160 -0.00900
C 	C 	0.15500 0.78820 0.91790 0.00400
H 	H 	0.16390 0.78450 0.95650 0.01500
H 	H 	0.15000 0.87040 0.90800 0.01400
C 	C 	0.06890 0.73520 0.84630 0.00700
H 	H 	0.02070 0.69600 0.83710 -0.00100
H 	H 	0.06430 0.81720 0.83600 0.00300
C 	C 	0.14250 0.55460 0.83170 0.01300
H 	H 	0.18570 0.51910 0.81260 -0.01200
H 	H 	0.09580 0.51210 0.82190 -0.01300
C 	C 	0.08910 0.60290 0.92060 -0.00000
H 	H 	0.04130 0.56190 0.91200 0.01100
H 	H 	0.09710 0.59760 0.95920 0.01500
N 	N 	0.04260 0.24840 0.91380 -0.15900
N 	N 	0.98550 0.05020 0.92810 -0.10900
N 	N 	0.93330 0.18010 0.85630 -0.17600
N 	N 	0.91130 0.22940 0.95300 -0.11200
N 	N 	0.15590 0.54370 0.89170 -0.16000
N 	N 	0.22280 0.73700 0.88933 -0.15700
N 	N 	0.08200 0.72760 0.90520 -0.10800
N 	N 	0.13480 0.67980 0.81494 -0.17500
Ag	Ag	0.39132 0.19216 0.72743 0.48300
