data_crystal

_cell_length_a 27.59840
_cell_length_b 27.59840
_cell_length_c 27.59840
_cell_angle_alpha 60.00000
_cell_angle_beta  60.00000
_cell_angle_gamma 60.00000

_symmetry_space_group_name_	'P 1'
_symmetry_space_group_name_H-M	'P 1'

loop_
_symmetry_equiv_pos_as_xyz
  x,y,z

loop_
_atom_site_label
_atom_site_type_symbol
_atom_site_fract_x
_atom_site_fract_y
_atom_site_fract_z
_atom_site_charge
Zr	Zr	0.45466 0.45466 0.98127 3.19800
Zr	Zr	0.45466 0.45466 0.10941 3.17500
Zr	Zr	0.98127 0.10941 0.45466 3.19800
Zr	Zr	0.10941 0.98127 0.45466 3.19300
Zr	Zr	0.45466 0.98127 0.10941 3.19300
Zr	Zr	0.45466 0.10941 0.98127 3.19800
Zr	Zr	0.98127 0.45466 0.45466 3.19900
Zr	Zr	0.10941 0.45466 0.45466 3.17600
Zr	Zr	0.45466 0.10941 0.45466 3.17600
Zr	Zr	0.45466 0.98127 0.45466 3.19300
Zr	Zr	0.98127 0.45466 0.10941 3.19800
Zr	Zr	0.10941 0.45466 0.98127 3.19800
Zr	Zr	0.54534 0.54534 0.01873 3.15600
Zr	Zr	0.54534 0.54534 0.89059 3.17900
Zr	Zr	0.89059 0.01873 0.54534 3.16200
Zr	Zr	0.01873 0.89059 0.54534 3.15600
Zr	Zr	0.01873 0.54534 0.89059 3.15600
Zr	Zr	0.89059 0.54534 0.01873 3.15600
Zr	Zr	0.54534 0.01873 0.54534 3.16200
Zr	Zr	0.54534 0.89059 0.54534 3.17900
Zr	Zr	0.89059 0.54534 0.54534 3.17900
Zr	Zr	0.01873 0.54534 0.54534 3.15600
Zr	Zr	0.54534 0.01873 0.89059 3.16200
Zr	Zr	0.54534 0.89059 0.01873 3.15600
Zr	Zr	0.58893 0.41107 -0.00000 3.18300
Zr	Zr	0.41107 0.58893 -0.00000 3.18300
Zr	Zr	-0.00000 0.00000 0.58893 3.15700
Zr	Zr	-0.00000 0.00000 0.41107 3.15700
Zr	Zr	0.58893 0.00000 -0.00000 3.15700
Zr	Zr	0.41107 0.00000 -0.00000 3.15700
Zr	Zr	-0.00000 0.58893 0.41107 3.18300
Zr	Zr	-0.00000 0.41107 0.58893 3.18300
Zr	Zr	0.58893 0.00000 0.41107 3.19100
Zr	Zr	0.41107 1.00000 0.58893 3.24400
Zr	Zr	-0.00000 0.41107 -0.00000 3.14800
Zr	Zr	-0.00000 0.58893 -0.00000 3.14800
H 	H 	0.65410 0.21850 0.13070 -0.01300
H 	H 	0.21850 0.65410 0.99670 0.08400
H 	H 	0.13070 0.99670 0.65410 0.03700
H 	H 	0.99670 0.13070 0.21850 0.04200
H 	H 	0.65410 0.13070 0.99670 0.06200
H 	H 	0.21850 0.99670 0.13070 0.01800
H 	H 	0.13070 0.65410 0.21850 -0.01700
H 	H 	0.99670 0.21850 0.65410 0.08900
H 	H 	0.65410 0.99670 0.21850 0.07300
H 	H 	0.21850 0.13070 0.65410 -0.00400
H 	H 	0.13070 0.21850 0.99670 0.03400
H 	H 	0.99670 0.65410 0.13070 0.04900
H 	H 	0.78150 0.34590 0.86930 0.09100
H 	H 	0.34590 0.78150 0.00330 -0.01500
H 	H 	0.00330 0.86930 0.34590 0.01200
H 	H 	0.86930 0.00330 0.78150 0.05700
H 	H 	0.86930 0.34590 0.00330 0.02600
H 	H 	0.00330 0.78150 0.86930 0.04100
H 	H 	0.34590 0.86930 0.78150 0.07600
H 	H 	0.78150 0.00330 0.34590 0.00100
H 	H 	0.00330 0.34590 0.78150 -0.01100
H 	H 	0.86930 0.78150 0.34590 0.08600
H 	H 	0.78150 0.86930 0.00330 0.03200
H 	H 	0.34590 0.00330 0.86930 0.03700
H 	H 	0.34590 0.78150 0.86930 0.08600
H 	H 	0.78150 0.34590 0.00330 -0.01100
H 	H 	0.86930 0.00330 0.34590 0.03700
H 	H 	0.00330 0.86930 0.78150 0.03200
H 	H 	0.34590 0.86930 0.00330 0.01200
H 	H 	0.78150 0.00330 0.86930 0.05700
H 	H 	0.86930 0.34590 0.78150 0.09100
H 	H 	0.00330 0.78150 0.34590 -0.01500
H 	H 	0.34590 0.00330 0.78150 0.00100
H 	H 	0.78150 0.86930 0.34590 0.07700
H 	H 	0.86930 0.78150 0.00330 0.04100
H 	H 	0.00330 0.34590 0.86930 0.02600
H 	H 	0.21850 0.65410 0.13070 -0.01700
H 	H 	0.65410 0.21850 0.99670 0.08900
H 	H 	0.99670 0.13070 0.65410 0.06200
H 	H 	0.13070 0.99670 0.21850 0.01800
H 	H 	0.13070 0.65410 0.99670 0.04800
H 	H 	0.99670 0.21850 0.13070 0.03400
H 	H 	0.65410 0.13070 0.21850 -0.00400
H 	H 	0.21850 0.99670 0.65410 0.07300
H 	H 	0.99670 0.65410 0.21850 0.08400
H 	H 	0.13070 0.21850 0.65410 -0.01200
H 	H 	0.21850 0.13070 0.99670 0.04300
H 	H 	0.65410 0.99670 0.13070 0.03700
C 	C 	0.55945 0.32579 0.13433 0.53600
C 	C 	0.57504 0.26512 0.17694 -0.18300
C 	C 	0.62390 0.21750 0.16710 -0.00600
C 	C 	0.32579 0.55945 0.98043 0.52800
C 	C 	0.26512 0.57504 0.98290 -0.12200
C 	C 	0.21750 0.62390 0.99150 0.00300
C 	C 	0.13433 0.98043 0.55945 0.54000
C 	C 	0.17694 0.98290 0.57504 -0.15800
C 	C 	0.16710 0.99150 0.62390 0.02500
C 	C 	0.98043 0.13433 0.32579 0.53400
C 	C 	0.98290 0.17694 0.26512 -0.14500
C 	C 	0.99150 0.16710 0.21750 0.00600
C 	C 	0.55945 0.13433 0.98043 0.53800
C 	C 	0.57504 0.17694 0.98290 -0.14300
C 	C 	0.62390 0.16710 0.99150 0.02900
C 	C 	0.32579 0.98043 0.13433 0.53600
C 	C 	0.26512 0.98290 0.17694 -0.16000
C 	C 	0.21750 0.99150 0.16710 0.00200
C 	C 	0.13433 0.55945 0.32579 0.53500
C 	C 	0.17694 0.57504 0.26512 -0.18300
C 	C 	0.16710 0.62390 0.21750 -0.01100
C 	C 	0.98043 0.32579 0.55945 0.52900
C 	C 	0.98290 0.26512 0.57504 -0.12100
C 	C 	0.99150 0.21750 0.62390 0.00800
C 	C 	0.55945 0.98043 0.32579 0.52800
C 	C 	0.57504 0.98290 0.26512 -0.12900
C 	C 	0.62390 0.99150 0.21750 -0.00200
C 	C 	0.32579 0.13433 0.55945 0.53500
C 	C 	0.26512 0.17694 0.57504 -0.17600
C 	C 	0.21750 0.16710 0.62390 -0.01200
C 	C 	0.13433 0.32579 0.98043 0.53700
C 	C 	0.17694 0.26512 0.98290 -0.15200
C 	C 	0.16710 0.21750 0.99150 0.01200
C 	C 	0.98043 0.55945 0.13433 0.54000
C 	C 	0.98290 0.57504 0.17694 -0.15100
C 	C 	0.99150 0.62390 0.16710 0.03000
C 	C 	0.67421 0.44055 0.86567 0.52700
C 	C 	0.73488 0.42496 0.82306 -0.12500
C 	C 	0.78250 0.37610 0.83290 0.02200
C 	C 	0.44055 0.67421 0.01957 0.53300
C 	C 	0.42496 0.73488 0.01710 -0.18700
C 	C 	0.37610 0.78250 0.00850 0.00300
C 	C 	0.01957 0.86567 0.44055 0.52200
C 	C 	0.01710 0.82306 0.42496 -0.16400
C 	C 	0.00850 0.83290 0.37610 -0.01900
C 	C 	0.86567 0.01957 0.67421 0.52400
C 	C 	0.82306 0.01710 0.73488 -0.14700
C 	C 	0.83290 0.00850 0.78250 0.00800
C 	C 	0.86567 0.44055 0.01957 0.52000
C 	C 	0.82306 0.42496 0.01710 -0.15600
C 	C 	0.83290 0.37610 0.00850 -0.02000
C 	C 	0.01957 0.67421 0.86567 0.52200
C 	C 	0.01710 0.73488 0.82306 -0.15400
C 	C 	0.00850 0.78250 0.83290 -0.00200
C 	C 	0.44055 0.86567 0.67421 0.53200
C 	C 	0.42496 0.82306 0.73488 -0.13400
C 	C 	0.37610 0.83290 0.78250 0.02300
C 	C 	0.67421 0.01957 0.44055 0.53500
C 	C 	0.73488 0.01710 0.42496 -0.17900
C 	C 	0.78250 0.00850 0.37610 0.01300
C 	C 	0.01957 0.44055 0.67421 0.53400
C 	C 	0.01710 0.42496 0.73488 -0.18700
C 	C 	0.00850 0.37610 0.78250 0.00900
C 	C 	0.86567 0.67421 0.44055 0.52600
C 	C 	0.82306 0.73488 0.42496 -0.12500
C 	C 	0.83290 0.78250 0.37610 0.01600
C 	C 	0.67421 0.86567 0.01957 0.52600
C 	C 	0.73488 0.82306 0.01710 -0.16200
C 	C 	0.78250 0.83290 0.00850 0.00500
C 	C 	0.44055 0.01957 0.86567 0.52000
C 	C 	0.42496 0.01710 0.82306 -0.14800
C 	C 	0.37610 0.00850 0.83290 -0.01600
C 	C 	0.44055 0.67421 0.86567 0.52600
C 	C 	0.42496 0.73488 0.82306 -0.12500
C 	C 	0.37610 0.78250 0.83290 0.01500
C 	C 	0.67421 0.44055 0.01957 0.53400
C 	C 	0.73488 0.42496 0.01710 -0.18700
C 	C 	0.78250 0.37610 0.00850 0.00900
C 	C 	0.86567 0.01957 0.44055 0.52100
C 	C 	0.82306 0.01710 0.42496 -0.14900
C 	C 	0.83290 0.00850 0.37610 -0.01600
C 	C 	0.01957 0.86567 0.67421 0.52600
C 	C 	0.01710 0.82306 0.73488 -0.16200
C 	C 	0.00850 0.83290 0.78250 0.00500
C 	C 	0.44055 0.86567 0.01957 0.52200
C 	C 	0.42496 0.82306 0.01710 -0.16400
C 	C 	0.37610 0.83290 0.00850 -0.01900
C 	C 	0.67421 0.01957 0.86567 0.52400
C 	C 	0.73488 0.01710 0.82306 -0.14700
C 	C 	0.78250 0.00850 0.83290 0.00800
C 	C 	0.86567 0.44055 0.67421 0.52700
C 	C 	0.82306 0.42496 0.73488 -0.12500
C 	C 	0.83290 0.37610 0.78250 0.02200
C 	C 	0.01957 0.67421 0.44055 0.53300
C 	C 	0.01710 0.73488 0.42496 -0.18700
C 	C 	0.00850 0.78250 0.37610 0.00300
C 	C 	0.44055 0.01957 0.67421 0.53700
C 	C 	0.42496 0.01710 0.73488 -0.18000
C 	C 	0.37610 0.00850 0.78250 0.01400
C 	C 	0.67421 0.86567 0.44055 0.53000
C 	C 	0.73488 0.82306 0.42496 -0.13300
C 	C 	0.78250 0.83290 0.37610 0.02300
C 	C 	0.86567 0.67421 0.01957 0.52200
C 	C 	0.82306 0.73488 0.01710 -0.15400
C 	C 	0.83290 0.78250 0.00850 -0.00200
C 	C 	0.01957 0.44055 0.86567 0.51900
C 	C 	0.01710 0.42496 0.82306 -0.15600
C 	C 	0.00850 0.37610 0.83290 -0.02000
C 	C 	0.32579 0.55945 0.13433 0.53500
C 	C 	0.26512 0.57504 0.17694 -0.18300
C 	C 	0.21750 0.62390 0.16710 -0.01100
C 	C 	0.55945 0.32579 0.98043 0.52900
C 	C 	0.57504 0.26512 0.98290 -0.12100
C 	C 	0.62390 0.21750 0.99150 0.00800
C 	C 	0.98043 0.13433 0.55945 0.53800
C 	C 	0.98290 0.17694 0.57504 -0.14300
C 	C 	0.99150 0.16710 0.62390 0.02900
C 	C 	0.13433 0.98043 0.32579 0.53600
C 	C 	0.17694 0.98290 0.26512 -0.16000
C 	C 	0.16710 0.99150 0.21750 0.00200
C 	C 	0.13433 0.55945 0.98043 0.54000
C 	C 	0.17694 0.57504 0.98290 -0.15100
C 	C 	0.16710 0.62390 0.99150 0.03000
C 	C 	0.98043 0.32579 0.13433 0.53700
C 	C 	0.98290 0.26512 0.17694 -0.15300
C 	C 	0.99150 0.21750 0.16710 0.01200
C 	C 	0.55945 0.13433 0.32579 0.53300
C 	C 	0.57504 0.17694 0.26512 -0.17600
C 	C 	0.62390 0.16710 0.21750 -0.01200
C 	C 	0.32579 0.98043 0.55945 0.53000
C 	C 	0.26512 0.98290 0.57504 -0.13000
C 	C 	0.21750 0.99150 0.62390 -0.00100
C 	C 	0.98043 0.55945 0.32579 0.52800
C 	C 	0.98290 0.57504 0.26512 -0.12200
C 	C 	0.99150 0.62390 0.21750 0.00300
C 	C 	0.13433 0.32579 0.55945 0.53600
C 	C 	0.17694 0.26512 0.57504 -0.18300
C 	C 	0.16710 0.21750 0.62390 -0.00600
C 	C 	0.32579 0.13433 0.98043 0.53400
C 	C 	0.26512 0.17694 0.98290 -0.14500
C 	C 	0.21750 0.16710 0.99150 0.00600
C 	C 	0.55945 0.98043 0.13433 0.54000
C 	C 	0.57504 0.98290 0.17694 -0.15800
C 	C 	0.62390 0.99150 0.16710 0.02600
S 	S 	0.52925 0.24891 0.24891 -0.07100
S 	S 	0.24891 0.52925 0.97293 0.00100
S 	S 	0.24891 0.97293 0.52925 -0.01500
S 	S 	0.97293 0.24891 0.24891 -0.00800
S 	S 	0.52925 0.24891 0.97293 0.00300
S 	S 	0.24891 0.97293 0.24891 -0.02600
S 	S 	0.24891 0.52925 0.24891 -0.07400
S 	S 	0.97293 0.24891 0.52925 0.00300
S 	S 	0.52925 0.97293 0.24891 -0.01500
S 	S 	0.24891 0.24891 0.52925 -0.07100
S 	S 	0.24891 0.24891 0.97293 -0.00800
S 	S 	0.97293 0.52925 0.24891 0.00100
S 	S 	0.75109 0.47075 0.75109 0.00200
S 	S 	0.47075 0.75109 0.02707 -0.07400
S 	S 	0.02707 0.75109 0.47075 -0.07400
S 	S 	0.75109 0.02707 0.75109 -0.04500
S 	S 	0.75109 0.47075 0.02707 -0.07100
S 	S 	0.02707 0.75109 0.75109 -0.06300
S 	S 	0.47075 0.75109 0.75109 -0.00100
S 	S 	0.75109 0.02707 0.47075 -0.05600
S 	S 	0.02707 0.47075 0.75109 -0.07100
S 	S 	0.75109 0.75109 0.47075 -0.00100
S 	S 	0.75109 0.75109 0.02707 -0.06300
S 	S 	0.47075 0.02707 0.75109 -0.05600
O 	O 	0.59625 0.33541 0.08233 -0.73800
O 	O 	0.50996 0.36238 0.15278 -0.81300
O 	O 	0.33541 0.59625 0.98601 -0.55800
O 	O 	0.36238 0.50996 0.97488 -0.72900
O 	O 	0.08233 0.98601 0.59625 -0.65300
O 	O 	0.15278 0.97488 0.50996 -0.75900
O 	O 	0.98601 0.08233 0.33541 -0.61600
O 	O 	0.97488 0.15278 0.36238 -0.74100
O 	O 	0.59625 0.08233 0.98601 -0.60900
O 	O 	0.50996 0.15278 0.97488 -0.73900
O 	O 	0.33541 0.98601 0.08233 -0.66000
O 	O 	0.36238 0.97488 0.15278 -0.76100
O 	O 	0.08233 0.59625 0.33541 -0.73900
O 	O 	0.15278 0.50996 0.36238 -0.81400
O 	O 	0.98601 0.33541 0.59625 -0.55700
O 	O 	0.97488 0.36238 0.50996 -0.72800
O 	O 	0.59625 0.98601 0.33541 -0.58400
O 	O 	0.50996 0.97488 0.36238 -0.74600
O 	O 	0.33541 0.08233 0.59625 -0.72700
O 	O 	0.36238 0.15278 0.50996 -0.81100
O 	O 	0.08233 0.33541 0.98601 -0.63200
O 	O 	0.15278 0.36238 0.97488 -0.74400
O 	O 	0.98601 0.59625 0.08233 -0.62700
O 	O 	0.97488 0.50996 0.15278 -0.74200
O 	O 	0.66459 0.40375 0.91767 -0.57800
O 	O 	0.63762 0.49004 0.84722 -0.76500
O 	O 	0.40375 0.66459 0.01399 -0.76000
O 	O 	0.49004 0.63762 0.02512 -0.84900
O 	O 	0.01399 0.91767 0.40375 -0.70000
O 	O 	0.02512 0.84722 0.49004 -0.83700
O 	O 	0.91767 0.01399 0.66459 -0.64900
O 	O 	0.84722 0.02512 0.63762 -0.81500
O 	O 	0.91767 0.40375 0.01399 -0.67900
O 	O 	0.84722 0.49004 0.02512 -0.83300
O 	O 	0.01399 0.66459 0.91767 -0.67400
O 	O 	0.02512 0.63762 0.84722 -0.83200
O 	O 	0.40375 0.91767 0.66459 -0.60700
O 	O 	0.49004 0.84722 0.63762 -0.77000
O 	O 	0.66459 0.01399 0.40375 -0.73500
O 	O 	0.63762 0.02512 0.49004 -0.83100
O 	O 	0.01399 0.40375 0.66459 -0.75800
O 	O 	0.02512 0.49004 0.63762 -0.84800
O 	O 	0.91767 0.66459 0.40375 -0.57900
O 	O 	0.84722 0.63762 0.49004 -0.76500
O 	O 	0.66459 0.91767 0.01399 -0.69300
O 	O 	0.63762 0.84722 0.02512 -0.83500
O 	O 	0.40375 0.01399 0.91767 -0.65600
O 	O 	0.49004 0.02512 0.84722 -0.81700
O 	O 	0.40375 0.66459 0.91767 -0.58000
O 	O 	0.49004 0.63762 0.84722 -0.76500
O 	O 	0.66459 0.40375 0.01399 -0.75800
O 	O 	0.63762 0.49004 0.02512 -0.84800
O 	O 	0.91767 0.01399 0.40375 -0.65600
O 	O 	0.84722 0.02512 0.49004 -0.81700
O 	O 	0.01399 0.91767 0.66459 -0.69300
O 	O 	0.02512 0.84722 0.63762 -0.83600
O 	O 	0.40375 0.91767 0.01399 -0.70000
O 	O 	0.49004 0.84722 0.02512 -0.83700
O 	O 	0.66459 0.01399 0.91767 -0.64900
O 	O 	0.63762 0.02512 0.84722 -0.81500
O 	O 	0.91767 0.40375 0.66459 -0.57800
O 	O 	0.84722 0.49004 0.63762 -0.76500
O 	O 	0.01399 0.66459 0.40375 -0.76000
O 	O 	0.02512 0.63762 0.49004 -0.84900
O 	O 	0.40375 0.01399 0.66459 -0.74200
O 	O 	0.49004 0.02512 0.63762 -0.83300
O 	O 	0.66459 0.91767 0.40375 -0.59900
O 	O 	0.63762 0.84722 0.49004 -0.76900
O 	O 	0.91767 0.66459 0.01399 -0.67400
O 	O 	0.84722 0.63762 0.02512 -0.83200
O 	O 	0.01399 0.40375 0.91767 -0.67900
O 	O 	0.02512 0.49004 0.84722 -0.83300
O 	O 	0.33541 0.59625 0.08233 -0.73900
O 	O 	0.36238 0.50996 0.15278 -0.81400
O 	O 	0.59625 0.33541 0.98601 -0.55600
O 	O 	0.50996 0.36238 0.97488 -0.72800
O 	O 	0.98601 0.08233 0.59625 -0.60900
O 	O 	0.97488 0.15278 0.50996 -0.73900
O 	O 	0.08233 0.98601 0.33541 -0.66000
O 	O 	0.15278 0.97488 0.36238 -0.76100
O 	O 	0.08233 0.59625 0.98601 -0.62700
O 	O 	0.15278 0.50996 0.97488 -0.74200
O 	O 	0.98601 0.33541 0.08233 -0.63300
O 	O 	0.97488 0.36238 0.15278 -0.74400
O 	O 	0.59625 0.08233 0.33541 -0.72000
O 	O 	0.50996 0.15278 0.36238 -0.81000
O 	O 	0.33541 0.98601 0.59625 -0.59200
O 	O 	0.36238 0.97488 0.50996 -0.74700
O 	O 	0.98601 0.59625 0.33541 -0.55800
O 	O 	0.97488 0.50996 0.36238 -0.72900
O 	O 	0.08233 0.33541 0.59625 -0.73700
O 	O 	0.15278 0.36238 0.50996 -0.81300
O 	O 	0.33541 0.08233 0.98601 -0.61600
O 	O 	0.36238 0.15278 0.97488 -0.74000
O 	O 	0.59625 0.98601 0.08233 -0.65300
O 	O 	0.50996 0.97488 0.15278 -0.75900
O 	O 	0.49828 0.41292 0.04440 -1.49400
O 	O 	0.41292 0.49828 0.04440 -1.49400
O 	O 	0.04440 0.04440 0.49828 -1.59400
O 	O 	0.04440 0.04440 0.41292 -1.59500
O 	O 	0.49828 0.04440 0.04440 -1.59500
O 	O 	0.41292 0.04440 0.04440 -1.59600
O 	O 	0.04440 0.49828 0.41292 -1.49400
O 	O 	0.04440 0.41292 0.49828 -1.49400
O 	O 	0.49828 0.04440 0.41292 -1.46000
O 	O 	0.41292 0.04440 0.49828 -1.46700
O 	O 	0.04440 0.41292 0.04440 -1.62900
O 	O 	0.04440 0.49828 0.04440 -1.62900
O 	O 	0.58708 0.50172 0.95560 -1.19300
O 	O 	0.50172 0.58708 0.95560 -1.19400
O 	O 	0.95560 0.95560 0.50172 -1.08600
O 	O 	0.95560 0.95560 0.58708 -1.08500
O 	O 	0.95560 0.50172 0.95560 -1.05000
O 	O 	0.95560 0.58708 0.95560 -1.05000
O 	O 	0.50172 0.95560 0.58708 -1.23600
O 	O 	0.58708 0.95560 0.50172 -1.23000
O 	O 	0.95560 0.50172 0.58708 -1.19300
O 	O 	0.95560 0.58708 0.50172 -1.19300
O 	O 	0.58708 0.95560 0.95560 -1.08600
O 	O 	0.50172 0.95560 0.95560 -1.08700
O 	O 	0.45672 0.54328 0.93688 -1.27500
O 	O 	0.54328 0.45672 0.06312 -1.39400
O 	O 	0.93688 0.06312 0.45672 -1.31700
O 	O 	0.06312 0.93688 0.54328 -1.34600
O 	O 	0.45672 0.93688 0.06312 -1.34600
O 	O 	0.54328 0.06312 0.93688 -1.31600
O 	O 	0.93688 0.45672 0.54328 -1.27500
O 	O 	0.06312 0.54328 0.45672 -1.39400
O 	O 	0.45672 0.06312 0.54328 -1.38700
O 	O 	0.54328 0.93688 0.45672 -1.29100
O 	O 	0.93688 0.54328 0.06312 -1.33000
O 	O 	0.06312 0.45672 0.93688 -1.33000
O 	O 	0.45672 0.54328 0.06312 -1.39400
O 	O 	0.54328 0.45672 0.93688 -1.27500
O 	O 	0.93688 0.06312 0.54328 -1.31700
O 	O 	0.06312 0.93688 0.45672 -1.34600
O 	O 	0.06312 0.54328 0.93688 -1.33000
O 	O 	0.93688 0.45672 0.06312 -1.33000
O 	O 	0.54328 0.06312 0.45672 -1.38000
O 	O 	0.45672 0.93688 0.54328 -1.29800
O 	O 	0.93688 0.54328 0.45672 -1.27500
O 	O 	0.06312 0.45672 0.54328 -1.39400
O 	O 	0.45672 0.06312 0.93688 -1.31700
O 	O 	0.54328 0.93688 0.06312 -1.34500
