data_crystal

_cell_length_a 11.65310
_cell_length_b 21.98750
_cell_length_c 15.31040
_cell_angle_alpha 90.00000
_cell_angle_beta  110.02900
_cell_angle_gamma 90.00000

_symmetry_space_group_name_	'P 1'
_symmetry_space_group_name_H-M	'P 1'

loop_
_symmetry_equiv_pos_as_xyz
  x,y,z

loop_
_atom_site_label
_atom_site_type_symbol
_atom_site_fract_x
_atom_site_fract_y
_atom_site_fract_z
_atom_site_charge
Cu	Cu	0.69515 0.16599 0.70722 0.85100
Cu	Cu	0.15121 0.19202 0.10725 0.85400
C 	C 	0.38420 0.15010 0.21860 0.02200
C 	C 	0.94170 0.18460 0.82640 0.02300
C 	C 	0.46670 0.11060 0.26750 -0.02900
H 	H 	0.54790 0.12160 0.28030 0.02800
C 	C 	0.04430 0.18800 0.90470 -0.03400
H 	H 	0.11330 0.20860 0.90310 0.00600
C 	C 	0.24140 0.07910 0.22160 0.27700
C 	C 	0.84870 0.12680 0.90680 0.27600
C 	C 	0.11360 0.05740 0.19530 -0.76700
H 	H 	0.05910 0.08870 0.16130 0.21800
H 	H 	0.10320 0.02180 0.15710 0.24200
H 	H 	0.09560 0.04770 0.25040 0.24000
C 	C 	0.74010 0.09290 0.90980 -0.75600
H 	H 	0.67640 0.09520 0.85030 0.21200
H 	H 	0.71200 0.11030 0.95630 0.23100
H 	H 	0.76170 0.05100 0.92490 0.23600
C 	C 	0.41100 0.21060 0.18900 0.01700
C 	C 	0.93600 0.21190 0.73520 0.02400
C 	C 	0.55940 0.01530 0.52460 0.06100
C 	C 	0.52560 0.23560 0.21420 -0.02500
H 	H 	0.59380 0.21330 0.24910 -0.00000
C 	C 	0.03320 0.23860 0.72070 -0.02900
H 	H 	0.10740 0.24090 0.76950 0.00700
C 	C 	0.56650 0.06290 0.58410 -0.01900
H 	H 	0.49600 0.07570 0.59410 0.03100
C 	C 	0.33090 0.29770 0.11310 0.27700
C 	C 	0.82380 0.22910 0.58320 0.29900
C 	C 	0.76110 0.02500 0.55650 0.29200
C 	C 	0.22470 0.33580 0.06070 -0.76300
H 	H 	0.15120 0.31220 0.04600 0.21600
H 	H 	0.21970 0.37020 0.09790 0.23700
H 	H 	0.23450 0.34970 0.00420 0.24000
C 	C 	0.71110 0.22170 0.50350 -0.80600
H 	H 	0.64940 0.20370 0.52370 0.23600
H 	H 	0.72630 0.19580 0.45820 0.25700
H 	H 	0.68360 0.26070 0.47630 0.24800
C 	C 	0.87550 0.00390 0.54350 -0.73500
H 	H 	0.85770 0.97000 0.50140 0.22400
H 	H 	0.93320 0.99160 0.60240 0.22000
H 	H 	0.90960 0.03640 0.51840 0.22700
N 	N 	0.26580 0.13360 0.19340 -0.27400
N 	N 	0.84020 0.15650 0.82760 -0.26500
N 	N 	0.44700 0.05680 0.30070 -0.08100
N 	N 	0.04390 0.16110 0.98410 -0.18400
N 	N 	0.32430 0.03810 0.27070 -0.13900
N 	N 	0.94690 0.12910 0.98230 -0.16300
N 	N 	0.31080 0.24030 0.13550 -0.26400
N 	N 	0.82900 0.20850 0.66800 -0.26100
N 	N 	0.65710 0.99610 0.50960 -0.17600
N 	N 	0.53730 0.20840 0.68810 -0.19700
N 	N 	0.02420 0.26140 0.63840 -0.19200
N 	N 	0.66950 0.09080 0.62710 -0.18000
N 	N 	0.44070 0.32500 0.13890 -0.16300
N 	N 	0.91770 0.25440 0.56680 -0.16300
N 	N 	0.77030 0.07110 0.61160 -0.16100
Cu	Cu	0.30485 0.66599 0.79278 0.85000
Cu	Cu	0.84879 0.69202 0.39275 0.85300
C 	C 	0.61580 0.65010 0.28140 0.02100
C 	C 	0.05830 0.68460 0.67360 0.02500
C 	C 	0.53330 0.61060 0.23250 -0.02900
H 	H 	0.45210 0.62160 0.21970 0.02700
C 	C 	0.95570 0.68800 0.59530 -0.03800
H 	H 	0.88670 0.70860 0.59690 0.00600
C 	C 	0.75860 0.57910 0.27840 0.27800
C 	C 	0.15130 0.62680 0.59320 0.27600
C 	C 	0.88640 0.55740 0.30470 -0.77000
H 	H 	0.94090 0.58870 0.33870 0.21900
H 	H 	0.89680 0.52180 0.34290 0.24400
H 	H 	0.90440 0.54770 0.24960 0.24100
C 	C 	0.25990 0.59290 0.59020 -0.75600
H 	H 	0.32360 0.59520 0.64970 0.21100
H 	H 	0.28800 0.61030 0.54370 0.23100
H 	H 	0.23830 0.55100 0.57510 0.23600
C 	C 	0.58900 0.71060 0.31100 0.01700
C 	C 	0.06400 0.71190 0.76480 0.02700
C 	C 	0.44060 0.51530 0.97540 0.06100
C 	C 	0.47440 0.73560 0.28580 -0.02600
H 	H 	0.40620 0.71330 0.25090 -0.00000
C 	C 	0.96680 0.73860 0.77930 -0.03300
H 	H 	0.89260 0.74090 0.73050 0.00800
C 	C 	0.43350 0.56290 0.91590 -0.01900
H 	H 	0.50400 0.57570 0.90590 0.03100
C 	C 	0.66910 0.79770 0.38690 0.27800
C 	C 	0.17620 0.72910 0.91680 0.29500
C 	C 	0.23890 0.52500 0.94350 0.29600
C 	C 	0.77530 0.83580 0.43930 -0.76700
H 	H 	0.84880 0.81220 0.45400 0.21800
H 	H 	0.78030 0.87020 0.40210 0.23800
H 	H 	0.76550 0.84970 0.49580 0.24100
C 	C 	0.28890 0.72170 0.99650 -0.78800
H 	H 	0.35060 0.70370 0.97630 0.23100
H 	H 	0.27370 0.69580 0.04180 0.25000
H 	H 	0.31640 0.76070 0.02370 0.24200
C 	C 	0.12450 0.50390 0.95650 -0.75200
H 	H 	0.14230 0.47000 0.99860 0.23100
H 	H 	0.06680 0.49160 0.89760 0.22700
H 	H 	0.09040 0.53640 0.98160 0.23200
N 	N 	0.73420 0.63360 0.30660 -0.27500
N 	N 	0.15980 0.65650 0.67240 -0.26500
N 	N 	0.55300 0.55680 0.19930 -0.08100
N 	N 	0.95610 0.66110 0.51590 -0.18400
N 	N 	0.67570 0.53810 0.22930 -0.13900
N 	N 	0.05310 0.62910 0.51770 -0.16200
N 	N 	0.68920 0.74030 0.36450 -0.26500
N 	N 	0.17100 0.70850 0.83200 -0.26100
N 	N 	0.34290 0.49610 0.99040 -0.17700
N 	N 	0.46270 0.70840 0.81190 -0.19700
N 	N 	0.97580 0.76140 0.86160 -0.19300
N 	N 	0.33050 0.59080 0.87290 -0.18000
N 	N 	0.55930 0.82500 0.36110 -0.16300
N 	N 	0.08230 0.75440 0.93320 -0.16000
N 	N 	0.22970 0.57110 0.88840 -0.16200
Cu	Cu	0.30485 0.83401 0.29278 0.85000
Cu	Cu	0.84879 0.80798 0.89275 0.85300
C 	C 	0.61580 0.84990 0.78140 0.02100
C 	C 	0.05830 0.81540 0.17360 0.02200
C 	C 	0.53330 0.88940 0.73250 -0.02900
H 	H 	0.45210 0.87840 0.71970 0.02800
C 	C 	0.95570 0.81200 0.09530 -0.03400
H 	H 	0.88670 0.79140 0.09690 0.00600
C 	C 	0.75860 0.92090 0.77840 0.27700
C 	C 	0.15130 0.87320 0.09320 0.27600
C 	C 	0.88640 0.94260 0.80470 -0.76700
H 	H 	0.94090 0.91130 0.83870 0.21800
H 	H 	0.89680 0.97820 0.84290 0.24200
H 	H 	0.90440 0.95230 0.74960 0.24000
C 	C 	0.25990 0.90710 0.09020 -0.75600
H 	H 	0.32360 0.90480 0.14970 0.21200
H 	H 	0.28800 0.88970 0.04370 0.23100
H 	H 	0.23830 0.94900 0.07510 0.23600
C 	C 	0.58900 0.78940 0.81100 0.01700
C 	C 	0.06400 0.78810 0.26480 0.02400
C 	C 	0.44060 0.98470 0.47540 0.06100
C 	C 	0.47440 0.76440 0.78580 -0.02500
H 	H 	0.40620 0.78670 0.75090 -0.00000
C 	C 	0.96680 0.76140 0.27930 -0.02900
H 	H 	0.89260 0.75910 0.23050 0.00700
C 	C 	0.43350 0.93710 0.41590 -0.01900
H 	H 	0.50400 0.92430 0.40590 0.03100
C 	C 	0.66910 0.70230 0.88690 0.27700
C 	C 	0.17620 0.77090 0.41680 0.29900
C 	C 	0.23890 0.97500 0.44350 0.29200
C 	C 	0.77530 0.66420 0.93930 -0.76300
H 	H 	0.84880 0.68780 0.95400 0.21600
H 	H 	0.78030 0.62980 0.90210 0.23700
H 	H 	0.76550 0.65030 0.99580 0.24000
C 	C 	0.28890 0.77830 0.49650 -0.80600
H 	H 	0.35060 0.79630 0.47630 0.23600
H 	H 	0.27370 0.80420 0.54180 0.25700
H 	H 	0.31640 0.73930 0.52370 0.24800
C 	C 	0.12450 0.99610 0.45650 -0.73500
H 	H 	0.14230 0.03000 0.49860 0.22400
H 	H 	0.06680 0.00840 0.39760 0.22000
H 	H 	0.09040 0.96360 0.48160 0.22700
N 	N 	0.73420 0.86640 0.80660 -0.27400
N 	N 	0.15980 0.84350 0.17240 -0.26500
N 	N 	0.55300 0.94320 0.69930 -0.08100
N 	N 	0.95610 0.83890 0.01590 -0.18400
N 	N 	0.67570 0.96190 0.72930 -0.13900
N 	N 	0.05310 0.87090 0.01770 -0.16300
N 	N 	0.68920 0.75970 0.86450 -0.26400
N 	N 	0.17100 0.79150 0.33200 -0.26100
N 	N 	0.34290 0.00390 0.49040 -0.17600
N 	N 	0.46270 0.79160 0.31190 -0.19700
N 	N 	0.97580 0.73860 0.36160 -0.19200
N 	N 	0.33050 0.90920 0.37290 -0.18000
N 	N 	0.55930 0.67500 0.86110 -0.16300
N 	N 	0.08230 0.74560 0.43320 -0.16300
N 	N 	0.22970 0.92890 0.38840 -0.16100
Cu	Cu	0.69515 0.33401 0.20722 0.85000
Cu	Cu	0.15121 0.30798 0.60725 0.85300
C 	C 	0.38420 0.34990 0.71860 0.02100
C 	C 	0.94170 0.31540 0.32640 0.02500
C 	C 	0.46670 0.38940 0.76750 -0.02900
H 	H 	0.54790 0.37840 0.78030 0.02700
C 	C 	0.04430 0.31200 0.40470 -0.03800
H 	H 	0.11330 0.29140 0.40310 0.00600
C 	C 	0.24140 0.42090 0.72160 0.27800
C 	C 	0.84870 0.37320 0.40680 0.27600
C 	C 	0.11360 0.44260 0.69530 -0.77000
H 	H 	0.05910 0.41130 0.66130 0.21900
H 	H 	0.10320 0.47820 0.65710 0.24400
H 	H 	0.09560 0.45230 0.75040 0.24100
C 	C 	0.74010 0.40710 0.40980 -0.75600
H 	H 	0.67640 0.40480 0.35030 0.21100
H 	H 	0.71200 0.38970 0.45630 0.23100
H 	H 	0.76170 0.44900 0.42490 0.23600
C 	C 	0.41100 0.28940 0.68900 0.01700
C 	C 	0.93600 0.28810 0.23520 0.02700
C 	C 	0.55940 0.48470 0.02460 0.06100
C 	C 	0.52560 0.26440 0.71420 -0.02600
H 	H 	0.59380 0.28670 0.74910 -0.00000
C 	C 	0.03320 0.26140 0.22070 -0.03300
H 	H 	0.10740 0.25910 0.26950 0.00800
C 	C 	0.56650 0.43710 0.08410 -0.01900
H 	H 	0.49600 0.42430 0.09410 0.03100
C 	C 	0.33090 0.20230 0.61310 0.27800
C 	C 	0.82380 0.27090 0.08320 0.29500
C 	C 	0.76110 0.47500 0.05650 0.29600
C 	C 	0.22470 0.16420 0.56070 -0.76700
H 	H 	0.15120 0.18780 0.54600 0.21800
H 	H 	0.21970 0.12980 0.59790 0.23800
H 	H 	0.23450 0.15030 0.50420 0.24100
C 	C 	0.71110 0.27830 0.00350 -0.78800
H 	H 	0.64940 0.29630 0.02370 0.23100
H 	H 	0.72630 0.30420 0.95820 0.25000
H 	H 	0.68360 0.23930 0.97630 0.24200
C 	C 	0.87550 0.49610 0.04350 -0.75200
H 	H 	0.85770 0.53000 0.00140 0.23100
H 	H 	0.93320 0.50840 0.10240 0.22700
H 	H 	0.90960 0.46360 0.01840 0.23200
N 	N 	0.26580 0.36640 0.69340 -0.27500
N 	N 	0.84020 0.34350 0.32760 -0.26500
N 	N 	0.44700 0.44320 0.80070 -0.08100
N 	N 	0.04390 0.33890 0.48410 -0.18400
N 	N 	0.32430 0.46190 0.77070 -0.13900
N 	N 	0.94690 0.37090 0.48230 -0.16200
N 	N 	0.31080 0.25970 0.63550 -0.26500
N 	N 	0.82900 0.29150 0.16800 -0.26100
N 	N 	0.65710 0.50390 0.00960 -0.17700
N 	N 	0.53730 0.29160 0.18810 -0.19700
N 	N 	0.02420 0.23860 0.13840 -0.19300
N 	N 	0.66950 0.40920 0.12710 -0.18000
N 	N 	0.44070 0.17500 0.63890 -0.16300
N 	N 	0.91770 0.24560 0.06680 -0.16000
N 	N 	0.77030 0.42890 0.11160 -0.16200
