data_crystal

_cell_length_a 13.57000
_cell_length_b 19.80000
_cell_length_c 28.39000
_cell_angle_alpha 90.00000
_cell_angle_beta  90.00000
_cell_angle_gamma 90.00000

_symmetry_space_group_name_	'P 1'
_symmetry_space_group_name_H-M	'P 1'

loop_
_symmetry_equiv_pos_as_xyz
  x,y,z

loop_
_atom_site_label
_atom_site_type_symbol
_atom_site_fract_x
_atom_site_fract_y
_atom_site_fract_z
_atom_site_charge
Zr	Zr	0.19373 0.12193 0.62660 3.21200
Zr	Zr	0.30390 0.88310 0.62360 3.21100
Zr	Zr	0.14250 0.97739 0.69615 3.19500
Zr	Zr	0.38750 0.03000 0.67869 3.19000
Zr	Zr	0.35370 0.02780 0.55588 3.19600
Zr	Zr	0.10930 0.97530 0.57093 3.19100
H 	H 	0.29510 0.32370 0.68980 0.03500
H 	H 	0.37770 0.41350 0.73540 0.01800
H 	H 	0.27760 0.32690 0.55530 0.02400
H 	H 	0.37700 0.41400 0.51560 0.02600
H 	H 	0.20780 0.67520 0.56170 0.03200
H 	H 	0.09600 0.58680 0.53250 0.02300
H 	H 	0.17910 0.67940 0.67190 0.03800
H 	H 	0.07890 0.59160 0.71540 0.01400
H 	H 	0.45820 0.01500 0.83340 0.03100
H 	H 	0.45990 0.03460 0.91810 0.03700
C 	C 	0.33840 0.19180 0.69830 0.50800
C 	C 	0.36740 0.25490 0.72500 -0.13800
C 	C 	0.34100 0.31490 0.71350 0.00600
C 	C 	0.38700 0.36760 0.74060 0.00700
C 	C 	0.44810 0.34200 0.77520 -0.16200
C 	C 	0.51270 0.38200 0.80480 0.52000
C 	C 	0.31660 0.18580 0.54210 0.59800
C 	C 	0.35200 0.25360 0.52260 -0.16600
C 	C 	0.32700 0.31690 0.53380 0.02500
C 	C 	0.38300 0.36790 0.50990 -0.01200
C 	C 	0.44500 0.33940 0.47760 -0.13800
C 	C 	0.51210 0.37620 0.44610 0.48200
C 	C 	0.14670 0.81490 0.55500 0.57300
C 	C 	0.11000 0.74520 0.53450 -0.14100
C 	C 	0.15000 0.68260 0.54470 0.00300
C 	C 	0.09100 0.63250 0.52530 -0.00700
C 	C 	0.02150 0.65920 0.49370 -0.13400
C 	C 	0.95290 0.61880 0.46150 0.52800
C 	C 	0.16750 0.81550 0.70060 0.49400
C 	C 	0.11800 0.75230 0.71400 -0.14200
C 	C 	0.13500 0.68890 0.69620 -0.00600
C 	C 	0.07500 0.63780 0.72090 0.01800
C 	C 	0.01600 0.66570 0.75130 -0.15600
C 	C 	0.95180 0.62460 0.78360 0.52200
C 	C 	0.28500 0.00550 0.77980 0.53200
C 	C 	0.30950 0.00830 0.82960 -0.14400
C 	C 	0.40100 0.01500 0.85130 0.02100
C 	C 	0.40600 0.02100 0.90040 -0.00200
C 	C 	0.31200 0.00250 0.91800 -0.14200
C 	C 	0.29200 0.99940 0.96830 0.51500
S 	S 	0.45600 0.25610 0.76900 0.08500
S 	S 	0.43700 0.25210 0.47690 0.06800
S 	S 	0.02160 0.74460 0.49340 0.07500
S 	S 	0.02860 0.74910 0.75860 0.06900
S 	S 	0.22710 0.99140 0.87540 0.09400
O 	O 	0.36330 0.09790 0.61890 -1.12500
O 	O 	0.21700 0.05340 0.57360 -1.55000
O 	O 	0.07830 0.03450 0.63380 -1.13200
O 	O 	0.23560 0.05580 0.67800 -1.72100
O 	O 	0.29630 0.93620 0.69360 -1.04800
O 	O 	0.37990 0.97360 0.62030 -1.60300
O 	O 	0.26640 0.93450 0.55570 -1.04800
O 	O 	0.16520 0.92650 0.63000 -1.53200
O 	O 	0.25190 0.19240 0.57470 -0.70400
O 	O 	0.34690 0.13570 0.52630 -0.74700
O 	O 	0.56470 0.34390 0.41700 -0.64800
O 	O 	0.51670 0.44020 0.45530 -0.71600
O 	O 	0.91120 0.65710 0.81830 -0.65200
O 	O 	0.93400 0.56630 0.77190 -0.72500
O 	O 	0.27360 0.19870 0.67130 -0.68300
O 	O 	0.38850 0.13750 0.71140 -0.68000
O 	O 	0.19830 0.98750 0.76730 -0.70500
O 	O 	0.35910 0.02240 0.75700 -0.69100
O 	O 	0.36430 0.01650 0.99310 -0.67500
O 	O 	0.20540 0.98130 0.98200 -0.65300
O 	O 	0.51040 0.44500 0.80070 -0.72600
O 	O 	0.56740 0.34930 0.83470 -0.66000
O 	O 	0.95070 0.55520 0.47150 -0.71900
O 	O 	0.91520 0.64990 0.42950 -0.68200
O 	O 	0.10230 0.86500 0.54490 -0.73000
O 	O 	0.22090 0.80910 0.58080 -0.68700
O 	O 	0.13070 0.86910 0.71950 -0.70700
O 	O 	0.23430 0.80730 0.67190 -0.66200
H 	H 	0.69266 0.41537 0.45319 0.15900
H 	H 	0.75674 0.42122 0.29980 0.38200
H 	H 	0.64466 0.61967 0.36411 0.15500
H 	H 	0.93031 0.55828 0.37827 0.18200
Zr	Zr	0.30627 0.87807 0.12660 3.21300
Zr	Zr	0.19610 0.11690 0.12360 3.21200
Zr	Zr	0.35750 0.02261 0.19615 3.19600
Zr	Zr	0.11250 0.97000 0.17869 3.19100
Zr	Zr	0.14630 0.97220 0.05588 3.19700
Zr	Zr	0.39070 0.02470 0.07093 3.19200
H 	H 	0.20490 0.67630 0.18980 0.03600
H 	H 	0.12230 0.58650 0.23540 0.01900
H 	H 	0.22240 0.67310 0.05530 0.02400
H 	H 	0.12300 0.58600 0.01560 0.02700
H 	H 	0.29220 0.32480 0.06170 0.03300
H 	H 	0.40400 0.41320 0.03250 0.02500
H 	H 	0.32090 0.32060 0.17190 0.03900
H 	H 	0.42110 0.40840 0.21540 0.01500
H 	H 	0.04180 0.98500 0.33340 0.03100
H 	H 	0.04010 0.96540 0.41810 0.03700
C 	C 	0.16160 0.80820 0.19830 0.50700
C 	C 	0.13260 0.74510 0.22500 -0.13800
C 	C 	0.15900 0.68510 0.21350 0.00500
C 	C 	0.11300 0.63240 0.24060 0.00800
C 	C 	0.05190 0.65800 0.27520 -0.16500
C 	C 	0.98730 0.61800 0.30480 0.52200
C 	C 	0.18340 0.81420 0.04210 0.59800
C 	C 	0.14800 0.74640 0.02260 -0.16600
C 	C 	0.17300 0.68310 0.03380 0.02500
C 	C 	0.11700 0.63210 0.00990 -0.01300
C 	C 	0.05500 0.66060 0.97760 -0.13800
C 	C 	0.98790 0.62380 0.94610 0.48300
C 	C 	0.35330 0.18510 0.05500 0.57300
C 	C 	0.39000 0.25480 0.03450 -0.14100
C 	C 	0.35000 0.31740 0.04470 0.00300
C 	C 	0.40900 0.36750 0.02530 -0.00700
C 	C 	0.47850 0.34080 0.99370 -0.13300
C 	C 	0.54710 0.38120 0.96150 0.52600
C 	C 	0.33250 0.18450 0.20060 0.49400
C 	C 	0.38200 0.24770 0.21400 -0.14200
C 	C 	0.36500 0.31110 0.19620 -0.00600
C 	C 	0.42500 0.36220 0.22090 0.01700
C 	C 	0.48400 0.33430 0.25130 -0.15400
C 	C 	0.54820 0.37540 0.28360 0.52000
C 	C 	0.21500 0.99450 0.27980 0.53200
C 	C 	0.19050 0.99170 0.32960 -0.14400
C 	C 	0.09900 0.98500 0.35130 0.02100
C 	C 	0.09400 0.97900 0.40040 -0.00200
C 	C 	0.18800 0.99750 0.41800 -0.14200
C 	C 	0.20800 0.00060 0.46830 0.51600
S 	S 	0.04400 0.74390 0.26900 0.08300
S 	S 	0.06300 0.74790 0.97690 0.06700
S 	S 	0.47840 0.25540 0.99340 0.07600
S 	S 	0.47140 0.25090 0.25860 0.07000
S 	S 	0.27290 0.00860 0.37540 0.09500
O 	O 	0.13670 0.90210 0.11890 -1.12500
O 	O 	0.28300 0.94660 0.07360 -1.55000
O 	O 	0.42170 0.96550 0.13380 -1.13200
O 	O 	0.26440 0.94420 0.17800 -1.72100
O 	O 	0.20370 0.06380 0.19360 -1.04800
O 	O 	0.12010 0.02640 0.12030 -1.60300
O 	O 	0.23360 0.06550 0.05570 -1.04800
O 	O 	0.33480 0.07350 0.13000 -1.53200
O 	O 	0.24810 0.80760 0.07470 -0.70400
O 	O 	0.15310 0.86430 0.02630 -0.74700
O 	O 	0.93530 0.65610 0.91700 -0.64800
O 	O 	0.98330 0.55980 0.95530 -0.71600
O 	O 	0.58880 0.34290 0.31830 -0.65200
O 	O 	0.56600 0.43370 0.27190 -0.72500
O 	O 	0.22640 0.80130 0.17130 -0.68300
O 	O 	0.11150 0.86250 0.21140 -0.68100
O 	O 	0.30170 0.01250 0.26730 -0.70500
O 	O 	0.14090 0.97760 0.25700 -0.69100
O 	O 	0.13570 0.98350 0.49310 -0.67500
O 	O 	0.29460 0.01870 0.48200 -0.65300
O 	O 	0.98960 0.55500 0.30070 -0.72700
O 	O 	0.93260 0.65070 0.33470 -0.66000
O 	O 	0.54930 0.44480 0.97150 -0.71900
O 	O 	0.58480 0.35010 0.92950 -0.68300
O 	O 	0.39770 0.13500 0.04490 -0.73000
O 	O 	0.27910 0.19090 0.08080 -0.68600
O 	O 	0.36930 0.13090 0.21950 -0.70700
O 	O 	0.26570 0.19270 0.17190 -0.66200
H 	H 	0.80734 0.58463 0.95319 0.15900
H 	H 	0.74326 0.57878 0.79980 0.38200
H 	H 	0.85534 0.38033 0.86411 0.15500
H 	H 	0.56969 0.44172 0.87827 0.18200
Zr	Zr	0.80627 0.62193 0.87340 3.21300
Zr	Zr	0.69610 0.38310 0.87640 3.21200
Zr	Zr	0.85750 0.47739 0.80385 3.19600
Zr	Zr	0.61250 0.53000 0.82131 3.19100
Zr	Zr	0.64630 0.52780 0.94412 3.19700
Zr	Zr	0.89070 0.47530 0.92907 3.19200
H 	H 	0.70490 0.82370 0.81020 0.03600
H 	H 	0.62230 0.91350 0.76460 0.02100
H 	H 	0.72240 0.82690 0.94470 0.02500
H 	H 	0.62300 0.91400 0.98440 0.02900
H 	H 	0.79220 0.17520 0.93830 0.03200
H 	H 	0.90400 0.08680 0.96750 0.02300
H 	H 	0.82090 0.17940 0.82810 0.03900
H 	H 	0.92110 0.09160 0.78460 0.01200
H 	H 	0.54180 0.51500 0.66660 0.03100
H 	H 	0.54010 0.53460 0.58190 0.03700
C 	C 	0.66160 0.69180 0.80170 0.50800
C 	C 	0.63260 0.75490 0.77500 -0.13800
C 	C 	0.65900 0.81490 0.78650 0.00700
C 	C 	0.61300 0.86760 0.75940 0.00700
C 	C 	0.55190 0.84200 0.72480 -0.16200
C 	C 	0.48730 0.88200 0.69520 0.51900
C 	C 	0.68340 0.68580 0.95790 0.59900
C 	C 	0.64800 0.75360 0.97740 -0.16700
C 	C 	0.67300 0.81690 0.96620 0.02600
C 	C 	0.61700 0.86790 0.99010 -0.01400
C 	C 	0.55500 0.83940 0.02240 -0.13600
C 	C 	0.48790 0.87620 0.05390 0.48100
C 	C 	0.85330 0.31490 0.94500 0.57400
C 	C 	0.89000 0.24520 0.96550 -0.14300
C 	C 	0.85000 0.18260 0.95530 0.00300
C 	C 	0.90900 0.13250 0.97470 -0.00900
C 	C 	0.97850 0.15920 0.00630 -0.13500
C 	C 	0.04710 0.11880 0.03850 0.52900
C 	C 	0.83250 0.31550 0.79940 0.49300
C 	C 	0.88200 0.25230 0.78600 -0.14200
C 	C 	0.86500 0.18890 0.80380 -0.00800
C 	C 	0.92500 0.13780 0.77910 0.02000
C 	C 	0.98400 0.16570 0.74870 -0.16100
C 	C 	0.04820 0.12460 0.71640 0.52500
C 	C 	0.71500 0.50550 0.72020 0.53000
C 	C 	0.69050 0.50830 0.67040 -0.14400
C 	C 	0.59900 0.51500 0.64870 0.02100
C 	C 	0.59400 0.52100 0.59960 -0.00200
C 	C 	0.68800 0.50250 0.58200 -0.14100
C 	C 	0.70800 0.49940 0.53170 0.51200
S 	S 	0.54400 0.75610 0.73100 0.08500
S 	S 	0.56300 0.75210 0.02310 0.06900
S 	S 	0.97840 0.24460 0.00660 0.07600
S 	S 	0.97140 0.24910 0.74140 0.06900
S 	S 	0.77290 0.49140 0.62460 0.09300
O 	O 	0.63670 0.59790 0.88110 -1.12500
O 	O 	0.78300 0.55340 0.92640 -1.55100
O 	O 	0.92170 0.53450 0.86620 -1.13400
O 	O 	0.76440 0.55580 0.82200 -1.72100
O 	O 	0.70370 0.43620 0.80640 -1.04900
O 	O 	0.62010 0.47360 0.87970 -1.60400
O 	O 	0.73360 0.43450 0.94430 -1.04900
O 	O 	0.83480 0.42650 0.87000 -1.53200
O 	O 	0.74810 0.69240 0.92530 -0.70400
O 	O 	0.65310 0.63570 0.97370 -0.74700
O 	O 	0.43530 0.84390 0.08300 -0.64800
O 	O 	0.48330 0.94020 0.04470 -0.71400
O 	O 	0.08880 0.15710 0.68170 -0.65200
O 	O 	0.06600 0.06630 0.72810 -0.72400
O 	O 	0.72640 0.69870 0.82870 -0.68300
O 	O 	0.61150 0.63750 0.78860 -0.68000
O 	O 	0.80170 0.48750 0.73270 -0.70500
O 	O 	0.64090 0.52240 0.74300 -0.69100
O 	O 	0.63570 0.51650 0.50690 -0.67400
O 	O 	0.79460 0.48130 0.51800 -0.65300
O 	O 	0.48960 0.94500 0.69930 -0.72400
O 	O 	0.43260 0.84930 0.66530 -0.66000
O 	O 	0.04930 0.05520 0.02850 -0.71800
O 	O 	0.08480 0.14990 0.07050 -0.68300
O 	O 	0.89770 0.36500 0.95510 -0.73100
O 	O 	0.77910 0.30910 0.91920 -0.68700
O 	O 	0.86930 0.36910 0.78050 -0.70700
O 	O 	0.76570 0.30730 0.82810 -0.66200
H 	H 	0.30734 0.91537 0.04681 0.15900
H 	H 	0.24326 0.92122 0.20020 0.38100
H 	H 	0.35534 0.11967 0.13589 0.15500
H 	H 	0.06969 0.05828 0.12173 0.18300
Zr	Zr	0.69373 0.37807 0.37340 3.21300
Zr	Zr	0.80390 0.61690 0.37640 3.21200
Zr	Zr	0.64250 0.52261 0.30385 3.19600
Zr	Zr	0.88750 0.47000 0.32131 3.19100
Zr	Zr	0.85370 0.47220 0.44412 3.19700
Zr	Zr	0.60930 0.52470 0.42907 3.19200
H 	H 	0.79510 0.17630 0.31020 0.03600
H 	H 	0.87770 0.08650 0.26460 0.01700
H 	H 	0.77760 0.17310 0.44470 0.02500
H 	H 	0.87700 0.08600 0.48440 0.02500
H 	H 	0.70780 0.82480 0.43830 0.03400
H 	H 	0.59600 0.91320 0.46750 0.02600
H 	H 	0.67910 0.82060 0.32810 0.04000
H 	H 	0.57890 0.90840 0.28460 0.01700
H 	H 	0.95820 0.48500 0.16660 0.03100
H 	H 	0.95990 0.46540 0.08190 0.03700
C 	C 	0.83840 0.30820 0.30170 0.50700
C 	C 	0.86740 0.24510 0.27500 -0.13800
C 	C 	0.84100 0.18510 0.28650 0.00400
C 	C 	0.88700 0.13240 0.25940 0.00900
C 	C 	0.94810 0.15800 0.22480 -0.16800
C 	C 	0.01270 0.11800 0.19520 0.52400
C 	C 	0.81660 0.31420 0.45790 0.59800
C 	C 	0.85200 0.24640 0.47740 -0.16500
C 	C 	0.82700 0.18310 0.46620 0.02300
C 	C 	0.88300 0.13210 0.49010 -0.00900
C 	C 	0.94500 0.16060 0.52240 -0.14400
C 	C 	0.01210 0.12380 0.55390 0.48600
C 	C 	0.64670 0.68510 0.44500 0.57400
C 	C 	0.61000 0.75480 0.46550 -0.14100
C 	C 	0.65000 0.81740 0.45530 0.00400
C 	C 	0.59100 0.86750 0.47470 -0.00800
C 	C 	0.52150 0.84080 0.50630 -0.13200
C 	C 	0.45290 0.88120 0.53850 0.52600
C 	C 	0.66750 0.68450 0.29940 0.49400
C 	C 	0.61800 0.74770 0.28600 -0.14200
C 	C 	0.63500 0.81110 0.30380 -0.00500
C 	C 	0.57500 0.86220 0.27910 0.01700
C 	C 	0.51600 0.83430 0.24870 -0.15400
C 	C 	0.45180 0.87540 0.21640 0.52000
C 	C 	0.78500 0.49450 0.22020 0.53000
C 	C 	0.80950 0.49170 0.17040 -0.14400
C 	C 	0.90100 0.48500 0.14870 0.02100
C 	C 	0.90600 0.47900 0.09960 -0.00200
C 	C 	0.81200 0.49750 0.08200 -0.14100
C 	C 	0.79200 0.50060 0.03170 0.51200
S 	S 	0.95600 0.24390 0.23100 0.08400
S 	S 	0.93700 0.24790 0.52310 0.06700
S 	S 	0.52160 0.75540 0.50660 0.07700
S 	S 	0.52860 0.75090 0.24140 0.07000
S 	S 	0.72710 0.50860 0.12460 0.09300
O 	O 	0.86330 0.40210 0.38110 -1.12500
O 	O 	0.71700 0.44660 0.42640 -1.55000
O 	O 	0.57830 0.46550 0.36620 -1.13400
O 	O 	0.73560 0.44420 0.32200 -1.72100
O 	O 	0.79630 0.56380 0.30640 -1.04900
O 	O 	0.87990 0.52640 0.37970 -1.60400
O 	O 	0.76640 0.56550 0.44430 -1.04800
O 	O 	0.66520 0.57350 0.37000 -1.53100
O 	O 	0.75190 0.30760 0.42530 -0.70400
O 	O 	0.84690 0.36430 0.47370 -0.74700
O 	O 	0.06470 0.15610 0.58300 -0.64900
O 	O 	0.01670 0.05980 0.54470 -0.71400
O 	O 	0.41120 0.84290 0.18170 -0.65200
O 	O 	0.43400 0.93370 0.22810 -0.72400
O 	O 	0.77360 0.30130 0.32870 -0.68300
O 	O 	0.88850 0.36250 0.28860 -0.68000
O 	O 	0.69830 0.51250 0.23270 -0.70500
O 	O 	0.85910 0.47760 0.24300 -0.69100
O 	O 	0.86430 0.48350 0.00690 -0.67300
O 	O 	0.70540 0.51870 0.01800 -0.65200
O 	O 	0.01040 0.05500 0.19930 -0.72500
O 	O 	0.06740 0.15070 0.16530 -0.66100
O 	O 	0.45070 0.94480 0.52850 -0.71700
O 	O 	0.41520 0.85010 0.57050 -0.68200
O 	O 	0.60230 0.63500 0.45510 -0.73000
O 	O 	0.72090 0.69090 0.41920 -0.68600
O 	O 	0.63070 0.63090 0.28050 -0.70700
O 	O 	0.73430 0.69270 0.32810 -0.66200
H 	H 	0.19266 0.08463 0.54681 0.15900
H 	H 	0.25674 0.07878 0.70020 0.38200
H 	H 	0.14466 0.88033 0.63589 0.15500
H 	H 	0.43031 0.94172 0.62173 0.18300
