data_crystal

_cell_length_a 27.58420
_cell_length_b 27.58420
_cell_length_c 27.58420
_cell_angle_alpha 60.00000
_cell_angle_beta  60.00000
_cell_angle_gamma 60.00000

_symmetry_space_group_name_	'P 1'
_symmetry_space_group_name_H-M	'P 1'

loop_
_symmetry_equiv_pos_as_xyz
  x,y,z

loop_
_atom_site_label
_atom_site_type_symbol
_atom_site_fract_x
_atom_site_fract_y
_atom_site_fract_z
_atom_site_charge
Hf	Hf	0.51836 0.04512 0.04512 1.35800
Hf	Hf	0.04513 0.51835 0.39140 1.36100
Hf	Hf	0.04513 0.39140 0.51835 1.36100
Hf	Hf	0.39141 0.04512 0.04512 1.35600
Hf	Hf	0.51836 0.04512 0.39140 1.36100
Hf	Hf	0.04513 0.39140 0.04512 1.35600
Hf	Hf	0.04513 0.51835 0.04512 1.35900
Hf	Hf	0.39141 0.04512 0.51835 1.36300
Hf	Hf	0.51836 0.39140 0.04512 1.36200
Hf	Hf	0.04513 0.04512 0.51835 1.35900
Hf	Hf	0.04513 0.04512 0.39140 1.35700
Hf	Hf	0.39141 0.51835 0.04512 1.36300
Hf	Hf	0.95487 0.48165 0.95488 1.35900
Hf	Hf	0.48164 0.95488 0.60860 1.36200
Hf	Hf	0.60859 0.95488 0.48165 1.36300
Hf	Hf	0.95487 0.60860 0.95488 1.35700
Hf	Hf	0.95487 0.48165 0.60860 1.36200
Hf	Hf	0.60859 0.95488 0.95488 1.35700
Hf	Hf	0.48164 0.95488 0.95488 1.35900
Hf	Hf	0.95487 0.60860 0.48165 1.36200
Hf	Hf	0.60859 0.48165 0.95488 1.36300
Hf	Hf	0.95487 0.95488 0.48165 1.35900
Hf	Hf	0.95487 0.95488 0.60860 1.35700
Hf	Hf	0.48164 0.60860 0.95488 1.36200
Hf	Hf	0.50000 0.91091 0.08909 1.49200
Hf	Hf	0.91091 0.50000 0.50000 1.49000
Hf	Hf	0.08909 0.50000 0.50000 1.49000
Hf	Hf	0.50000 0.08909 0.91091 1.49200
Hf	Hf	0.50000 0.08909 0.50000 1.49000
Hf	Hf	0.91091 0.50000 0.08909 1.49200
Hf	Hf	0.08909 0.50000 0.91091 1.49200
Hf	Hf	0.50000 0.91091 0.50000 1.49000
Hf	Hf	0.50000 0.50000 0.91091 1.49000
Hf	Hf	0.91091 0.08909 0.50000 1.49200
Hf	Hf	0.08909 0.91091 0.50000 1.49200
Hf	Hf	0.50000 0.50000 0.08909 1.49000
H 	H 	0.63220 0.72060 0.15720 0.04800
H 	H 	0.72060 0.63220 0.49000 0.04800
H 	H 	0.15720 0.49000 0.63220 0.04800
H 	H 	0.49000 0.15720 0.72060 0.04800
H 	H 	0.63220 0.15720 0.49000 0.04800
H 	H 	0.72060 0.49000 0.15720 0.04800
H 	H 	0.15720 0.63220 0.72060 0.04800
H 	H 	0.49000 0.72060 0.63220 0.04800
H 	H 	0.63220 0.49000 0.72060 0.04800
H 	H 	0.72060 0.15720 0.63220 0.04800
H 	H 	0.15720 0.72060 0.49000 0.04800
H 	H 	0.49000 0.63220 0.15720 0.04800
H 	H 	0.27940 0.36780 0.84280 0.04800
H 	H 	0.36780 0.27940 0.51000 0.04800
H 	H 	0.51000 0.84280 0.36780 0.04800
H 	H 	0.84280 0.51000 0.27940 0.04800
H 	H 	0.84280 0.36780 0.51000 0.04800
H 	H 	0.51000 0.27940 0.84280 0.04800
H 	H 	0.36780 0.84280 0.27940 0.04800
H 	H 	0.27940 0.51000 0.36780 0.04800
H 	H 	0.51000 0.36780 0.27940 0.04800
H 	H 	0.84280 0.27940 0.36780 0.04800
H 	H 	0.27940 0.84280 0.51000 0.04800
H 	H 	0.36780 0.51000 0.84280 0.04800
H 	H 	0.36780 0.27940 0.84280 0.04800
H 	H 	0.27940 0.36780 0.51000 0.04800
H 	H 	0.84280 0.51000 0.36780 0.04800
H 	H 	0.51000 0.84280 0.27940 0.04800
H 	H 	0.36780 0.84280 0.51000 0.04800
H 	H 	0.27940 0.51000 0.84280 0.04800
H 	H 	0.84280 0.36780 0.27940 0.04800
H 	H 	0.51000 0.27940 0.36780 0.04800
H 	H 	0.36780 0.51000 0.27940 0.04800
H 	H 	0.27940 0.84280 0.36780 0.04800
H 	H 	0.84280 0.27940 0.51000 0.04800
H 	H 	0.51000 0.36780 0.84280 0.04800
H 	H 	0.72060 0.63220 0.15720 0.04800
H 	H 	0.63220 0.72060 0.49000 0.04800
H 	H 	0.49000 0.15720 0.63220 0.04800
H 	H 	0.15720 0.49000 0.72060 0.04800
H 	H 	0.15720 0.63220 0.49000 0.04800
H 	H 	0.49000 0.72060 0.15720 0.04800
H 	H 	0.63220 0.15720 0.72060 0.04800
H 	H 	0.72060 0.49000 0.63220 0.04800
H 	H 	0.49000 0.63220 0.72060 0.04800
H 	H 	0.15720 0.72060 0.63220 0.04800
H 	H 	0.72060 0.15720 0.49000 0.04800
H 	H 	0.63220 0.49000 0.15720 0.04800
C 	C 	0.63419 0.82653 0.05893 0.38000
C 	C 	0.67760 0.76600 0.07620 -0.09900
C 	C 	0.66840 0.71920 0.12620 -0.00700
C 	C 	0.82653 0.63419 0.48035 0.38000
C 	C 	0.76600 0.67760 0.48020 -0.10000
C 	C 	0.71920 0.66840 0.48620 -0.00700
C 	C 	0.05893 0.48035 0.63419 0.38000
C 	C 	0.07620 0.48020 0.67760 -0.10000
C 	C 	0.12620 0.48620 0.66840 -0.00700
C 	C 	0.48035 0.05893 0.82653 0.38000
C 	C 	0.48020 0.07620 0.76600 -0.09900
C 	C 	0.48620 0.12620 0.71920 -0.00700
C 	C 	0.63419 0.05893 0.48035 0.38000
C 	C 	0.67760 0.07620 0.48020 -0.10000
C 	C 	0.66840 0.12620 0.48620 -0.00700
C 	C 	0.82653 0.48035 0.05893 0.38000
C 	C 	0.76600 0.48020 0.07620 -0.09900
C 	C 	0.71920 0.48620 0.12620 -0.00700
C 	C 	0.05893 0.63419 0.82653 0.38000
C 	C 	0.07620 0.67760 0.76600 -0.09900
C 	C 	0.12620 0.66840 0.71920 -0.00700
C 	C 	0.48035 0.82653 0.63419 0.38000
C 	C 	0.48020 0.76600 0.67760 -0.10000
C 	C 	0.48620 0.71920 0.66840 -0.00700
C 	C 	0.63419 0.48035 0.82653 0.38000
C 	C 	0.67760 0.48020 0.76600 -0.10000
C 	C 	0.66840 0.48620 0.71920 -0.00700
C 	C 	0.82653 0.05893 0.63419 0.38000
C 	C 	0.76600 0.07620 0.67760 -0.09900
C 	C 	0.71920 0.12620 0.66840 -0.00700
C 	C 	0.05893 0.82653 0.48035 0.38000
C 	C 	0.07620 0.76600 0.48020 -0.09900
C 	C 	0.12620 0.71920 0.48620 -0.00700
C 	C 	0.48035 0.63419 0.05893 0.38000
C 	C 	0.48020 0.67760 0.07620 -0.10000
C 	C 	0.48620 0.66840 0.12620 -0.00700
C 	C 	0.17347 0.36581 0.94107 0.38000
C 	C 	0.23400 0.32240 0.92380 -0.09900
C 	C 	0.28080 0.33160 0.87380 -0.00700
C 	C 	0.36581 0.17347 0.51965 0.38000
C 	C 	0.32240 0.23400 0.51980 -0.10000
C 	C 	0.33160 0.28080 0.51380 -0.00700
C 	C 	0.51965 0.94107 0.36581 0.38000
C 	C 	0.51980 0.92380 0.32240 -0.10000
C 	C 	0.51380 0.87380 0.33160 -0.00700
C 	C 	0.94107 0.51965 0.17347 0.38000
C 	C 	0.92380 0.51980 0.23400 -0.09900
C 	C 	0.87380 0.51380 0.28080 -0.00700
C 	C 	0.94107 0.36581 0.51965 0.38000
C 	C 	0.92380 0.32240 0.51980 -0.10000
C 	C 	0.87380 0.33160 0.51380 -0.00700
C 	C 	0.51965 0.17347 0.94107 0.38000
C 	C 	0.51980 0.23400 0.92380 -0.09900
C 	C 	0.51380 0.28080 0.87380 -0.00700
C 	C 	0.36581 0.94107 0.17347 0.38000
C 	C 	0.32240 0.92380 0.23400 -0.09900
C 	C 	0.33160 0.87380 0.28080 -0.00700
C 	C 	0.17347 0.51965 0.36581 0.38000
C 	C 	0.23400 0.51980 0.32240 -0.10000
C 	C 	0.28080 0.51380 0.33160 -0.00700
C 	C 	0.51965 0.36581 0.17347 0.38000
C 	C 	0.51980 0.32240 0.23400 -0.10000
C 	C 	0.51380 0.33160 0.28080 -0.00700
C 	C 	0.94107 0.17347 0.36581 0.38000
C 	C 	0.92380 0.23400 0.32240 -0.09900
C 	C 	0.87380 0.28080 0.33160 -0.00700
C 	C 	0.17347 0.94107 0.51965 0.38000
C 	C 	0.23400 0.92380 0.51980 -0.09900
C 	C 	0.28080 0.87380 0.51380 -0.00700
C 	C 	0.36581 0.51965 0.94107 0.38000
C 	C 	0.32240 0.51980 0.92380 -0.10000
C 	C 	0.33160 0.51380 0.87380 -0.00700
C 	C 	0.36581 0.17347 0.94107 0.38000
C 	C 	0.32240 0.23400 0.92380 -0.09900
C 	C 	0.33160 0.28080 0.87380 -0.00700
C 	C 	0.17347 0.36581 0.51965 0.38000
C 	C 	0.23400 0.32240 0.51980 -0.10000
C 	C 	0.28080 0.33160 0.51380 -0.00700
C 	C 	0.94107 0.51965 0.36581 0.38000
C 	C 	0.92380 0.51980 0.32240 -0.10000
C 	C 	0.87380 0.51380 0.33160 -0.00700
C 	C 	0.51965 0.94107 0.17347 0.38000
C 	C 	0.51980 0.92380 0.23400 -0.09900
C 	C 	0.51380 0.87380 0.28080 -0.00700
C 	C 	0.36581 0.94107 0.51965 0.38000
C 	C 	0.32240 0.92380 0.51980 -0.10000
C 	C 	0.33160 0.87380 0.51380 -0.00700
C 	C 	0.17347 0.51965 0.94107 0.38000
C 	C 	0.23400 0.51980 0.92380 -0.09900
C 	C 	0.28080 0.51380 0.87380 -0.00700
C 	C 	0.94107 0.36581 0.17347 0.38000
C 	C 	0.92380 0.32240 0.23400 -0.09900
C 	C 	0.87380 0.33160 0.28080 -0.00700
C 	C 	0.51965 0.17347 0.36581 0.38000
C 	C 	0.51980 0.23400 0.32240 -0.10000
C 	C 	0.51380 0.28080 0.33160 -0.00700
C 	C 	0.36581 0.51965 0.17347 0.38000
C 	C 	0.32240 0.51980 0.23400 -0.10000
C 	C 	0.33160 0.51380 0.28080 -0.00700
C 	C 	0.17347 0.94107 0.36581 0.38000
C 	C 	0.23400 0.92380 0.32240 -0.09900
C 	C 	0.28080 0.87380 0.33160 -0.00700
C 	C 	0.94107 0.17347 0.51965 0.38000
C 	C 	0.92380 0.23400 0.51980 -0.09900
C 	C 	0.87380 0.28080 0.51380 -0.00700
C 	C 	0.51965 0.36581 0.94107 0.38000
C 	C 	0.51980 0.32240 0.92380 -0.10000
C 	C 	0.51380 0.33160 0.87380 -0.00700
C 	C 	0.82653 0.63419 0.05893 0.38000
C 	C 	0.76600 0.67760 0.07620 -0.09900
C 	C 	0.71920 0.66840 0.12620 -0.00700
C 	C 	0.63419 0.82653 0.48035 0.38000
C 	C 	0.67760 0.76600 0.48020 -0.10000
C 	C 	0.66840 0.71920 0.48620 -0.00700
C 	C 	0.48035 0.05893 0.63419 0.38000
C 	C 	0.48020 0.07620 0.67760 -0.10000
C 	C 	0.48620 0.12620 0.66840 -0.00700
C 	C 	0.05893 0.48035 0.82653 0.38000
C 	C 	0.07620 0.48020 0.76600 -0.09900
C 	C 	0.12620 0.48620 0.71920 -0.00700
C 	C 	0.05893 0.63419 0.48035 0.38000
C 	C 	0.07620 0.67760 0.48020 -0.10000
C 	C 	0.12620 0.66840 0.48620 -0.00700
C 	C 	0.48035 0.82653 0.05893 0.38000
C 	C 	0.48020 0.76600 0.07620 -0.09900
C 	C 	0.48620 0.71920 0.12620 -0.00700
C 	C 	0.63419 0.05893 0.82653 0.38000
C 	C 	0.67760 0.07620 0.76600 -0.09900
C 	C 	0.66840 0.12620 0.71920 -0.00700
C 	C 	0.82653 0.48035 0.63419 0.38000
C 	C 	0.76600 0.48020 0.67760 -0.10000
C 	C 	0.71920 0.48620 0.66840 -0.00700
C 	C 	0.48035 0.63419 0.82653 0.38000
C 	C 	0.48020 0.67760 0.76600 -0.10000
C 	C 	0.48620 0.66840 0.71920 -0.00700
C 	C 	0.05893 0.82653 0.63419 0.38000
C 	C 	0.07620 0.76600 0.67760 -0.09900
C 	C 	0.12620 0.71920 0.66840 -0.00700
C 	C 	0.82653 0.05893 0.48035 0.38000
C 	C 	0.76600 0.07620 0.48020 -0.09900
C 	C 	0.71920 0.12620 0.48620 -0.00700
C 	C 	0.63419 0.48035 0.05893 0.38000
C 	C 	0.67760 0.48020 0.07620 -0.10000
C 	C 	0.66840 0.48620 0.12620 -0.00700
S 	S 	0.74888 0.74888 0.02838 0.04100
S 	S 	0.74888 0.74888 0.47386 0.03900
S 	S 	0.02838 0.47386 0.74888 0.04100
S 	S 	0.47386 0.02838 0.74888 0.04100
S 	S 	0.74888 0.02838 0.47386 0.04100
S 	S 	0.74888 0.47386 0.02838 0.04100
S 	S 	0.02838 0.74888 0.74888 0.04100
S 	S 	0.47386 0.74888 0.74888 0.03900
S 	S 	0.74888 0.47386 0.74888 0.03900
S 	S 	0.74888 0.02838 0.74888 0.04100
S 	S 	0.02838 0.74888 0.47386 0.04100
S 	S 	0.47386 0.74888 0.02838 0.04100
S 	S 	0.25112 0.25112 0.97162 0.04100
S 	S 	0.25112 0.25112 0.52614 0.03900
S 	S 	0.52614 0.97162 0.25112 0.04100
S 	S 	0.97162 0.52614 0.25112 0.04100
S 	S 	0.97162 0.25112 0.52614 0.04100
S 	S 	0.52614 0.25112 0.97162 0.04100
S 	S 	0.25112 0.97162 0.25112 0.04100
S 	S 	0.25112 0.52614 0.25112 0.03900
S 	S 	0.52614 0.25112 0.25112 0.03900
S 	S 	0.97162 0.25112 0.25112 0.04100
S 	S 	0.25112 0.97162 0.52614 0.04100
S 	S 	0.25112 0.52614 0.97162 0.04100
O 	O 	0.65261 0.86267 0.00891 -0.43000
O 	O 	0.58225 0.83541 0.09649 -0.38300
O 	O 	0.86267 0.65261 0.47581 -0.43200
O 	O 	0.83541 0.58225 0.48585 -0.38300
O 	O 	0.00891 0.47581 0.65261 -0.43100
O 	O 	0.09649 0.48585 0.58225 -0.38300
O 	O 	0.47581 0.00891 0.86267 -0.43000
O 	O 	0.48585 0.09649 0.83541 -0.38300
O 	O 	0.65261 0.00891 0.47581 -0.43100
O 	O 	0.58225 0.09649 0.48585 -0.38300
O 	O 	0.86267 0.47581 0.00891 -0.43000
O 	O 	0.83541 0.48585 0.09649 -0.38300
O 	O 	0.00891 0.65261 0.86267 -0.43000
O 	O 	0.09649 0.58225 0.83541 -0.38300
O 	O 	0.47581 0.86267 0.65261 -0.43200
O 	O 	0.48585 0.83541 0.58225 -0.38300
O 	O 	0.65261 0.47581 0.86267 -0.43200
O 	O 	0.58225 0.48585 0.83541 -0.38300
O 	O 	0.86267 0.00891 0.65261 -0.43000
O 	O 	0.83541 0.09649 0.58225 -0.38300
O 	O 	0.00891 0.86267 0.47581 -0.43000
O 	O 	0.09649 0.83541 0.48585 -0.38300
O 	O 	0.47581 0.65261 0.00891 -0.43100
O 	O 	0.48585 0.58225 0.09649 -0.38300
O 	O 	0.13733 0.34739 0.99109 -0.43000
O 	O 	0.16459 0.41775 0.90351 -0.38300
O 	O 	0.34739 0.13733 0.52419 -0.43200
O 	O 	0.41775 0.16459 0.51415 -0.38300
O 	O 	0.52419 0.99109 0.34739 -0.43100
O 	O 	0.51415 0.90351 0.41775 -0.38300
O 	O 	0.99109 0.52419 0.13733 -0.43000
O 	O 	0.90351 0.51415 0.16459 -0.38300
O 	O 	0.99109 0.34739 0.52419 -0.43100
O 	O 	0.90351 0.41775 0.51415 -0.38300
O 	O 	0.52419 0.13733 0.99109 -0.43000
O 	O 	0.51415 0.16459 0.90351 -0.38300
O 	O 	0.34739 0.99109 0.13733 -0.43000
O 	O 	0.41775 0.90351 0.16459 -0.38300
O 	O 	0.13733 0.52419 0.34739 -0.43200
O 	O 	0.16459 0.51415 0.41775 -0.38300
O 	O 	0.52419 0.34739 0.13733 -0.43200
O 	O 	0.51415 0.41775 0.16459 -0.38300
O 	O 	0.99109 0.13733 0.34739 -0.43000
O 	O 	0.90351 0.16459 0.41775 -0.38300
O 	O 	0.13733 0.99109 0.52419 -0.43000
O 	O 	0.16459 0.90351 0.51415 -0.38300
O 	O 	0.34739 0.52419 0.99109 -0.43100
O 	O 	0.41775 0.51415 0.90351 -0.38300
O 	O 	0.34739 0.13733 0.99109 -0.43000
O 	O 	0.41775 0.16459 0.90351 -0.38300
O 	O 	0.13733 0.34739 0.52419 -0.43200
O 	O 	0.16459 0.41775 0.51415 -0.38300
O 	O 	0.99109 0.52419 0.34739 -0.43100
O 	O 	0.90351 0.51415 0.41775 -0.38300
O 	O 	0.52419 0.99109 0.13733 -0.43000
O 	O 	0.51415 0.90351 0.16459 -0.38300
O 	O 	0.34739 0.99109 0.52419 -0.43100
O 	O 	0.41775 0.90351 0.51415 -0.38300
O 	O 	0.13733 0.52419 0.99109 -0.43000
O 	O 	0.16459 0.51415 0.90351 -0.38300
O 	O 	0.99109 0.34739 0.13733 -0.43000
O 	O 	0.90351 0.41775 0.16459 -0.38300
O 	O 	0.52419 0.13733 0.34739 -0.43200
O 	O 	0.51415 0.16459 0.41775 -0.38300
O 	O 	0.34739 0.52419 0.13733 -0.43200
O 	O 	0.41775 0.51415 0.16459 -0.38300
O 	O 	0.13733 0.99109 0.34739 -0.43000
O 	O 	0.16459 0.90351 0.41775 -0.38300
O 	O 	0.99109 0.13733 0.52419 -0.43000
O 	O 	0.90351 0.16459 0.51415 -0.38300
O 	O 	0.52419 0.34739 0.99109 -0.43100
O 	O 	0.51415 0.41775 0.90351 -0.38300
O 	O 	0.86267 0.65261 0.00891 -0.43000
O 	O 	0.83541 0.58225 0.09649 -0.38300
O 	O 	0.65261 0.86267 0.47581 -0.43200
O 	O 	0.58225 0.83541 0.48585 -0.38300
O 	O 	0.47581 0.00891 0.65261 -0.43100
O 	O 	0.48585 0.09649 0.58225 -0.38300
O 	O 	0.00891 0.47581 0.86267 -0.43000
O 	O 	0.09649 0.48585 0.83541 -0.38300
O 	O 	0.00891 0.65261 0.47581 -0.43100
O 	O 	0.09649 0.58225 0.48585 -0.38300
O 	O 	0.47581 0.86267 0.00891 -0.43000
O 	O 	0.48585 0.83541 0.09649 -0.38300
O 	O 	0.65261 0.00891 0.86267 -0.43000
O 	O 	0.58225 0.09649 0.83541 -0.38300
O 	O 	0.86267 0.47581 0.65261 -0.43200
O 	O 	0.83541 0.48585 0.58225 -0.38300
O 	O 	0.47581 0.65261 0.86267 -0.43200
O 	O 	0.48585 0.58225 0.83541 -0.38300
O 	O 	0.00891 0.86267 0.65261 -0.43000
O 	O 	0.09649 0.83541 0.58225 -0.38300
O 	O 	0.86267 0.00891 0.47581 -0.43000
O 	O 	0.83541 0.09649 0.48585 -0.38300
O 	O 	0.65261 0.47581 0.00891 -0.43100
O 	O 	0.58225 0.48585 0.09649 -0.38300
O 	O 	0.56407 0.95687 0.04313 -0.57200
O 	O 	0.95687 0.56407 0.43593 -0.57400
O 	O 	0.04313 0.43593 0.56407 -0.57400
O 	O 	0.43593 0.04313 0.95687 -0.57200
O 	O 	0.56407 0.04313 0.43593 -0.57400
O 	O 	0.95687 0.43593 0.04313 -0.57100
O 	O 	0.04313 0.56407 0.95687 -0.57100
O 	O 	0.43593 0.95687 0.56407 -0.57400
O 	O 	0.56407 0.43593 0.95687 -0.57400
O 	O 	0.95687 0.04313 0.56407 -0.57100
O 	O 	0.04313 0.95687 0.43593 -0.57100
O 	O 	0.43593 0.56407 0.04313 -0.57400
O 	O 	0.04313 0.43593 0.95687 -0.57100
O 	O 	0.43593 0.04313 0.56407 -0.57400
O 	O 	0.56407 0.95687 0.43593 -0.57400
O 	O 	0.95687 0.56407 0.04313 -0.57100
O 	O 	0.95687 0.43593 0.56407 -0.57400
O 	O 	0.56407 0.04313 0.95687 -0.57200
O 	O 	0.43593 0.95687 0.04313 -0.57200
O 	O 	0.04313 0.56407 0.43593 -0.57400
O 	O 	0.56407 0.43593 0.04313 -0.57400
O 	O 	0.95687 0.04313 0.43593 -0.57100
O 	O 	0.04313 0.95687 0.56407 -0.57100
O 	O 	0.43593 0.56407 0.95687 -0.57400
O 	O 	0.45580 0.00064 0.08776 -0.59000
O 	O 	0.00064 0.45580 0.45580 -0.58800
O 	O 	0.08776 0.45580 0.45580 -0.58700
O 	O 	0.45580 0.08776 0.00064 -0.59000
O 	O 	0.45580 0.08776 0.45580 -0.58700
O 	O 	0.00064 0.45580 0.08776 -0.59000
O 	O 	0.08776 0.45580 0.00064 -0.59000
O 	O 	0.45580 0.00064 0.45580 -0.58800
O 	O 	0.45580 0.45580 0.00064 -0.58800
O 	O 	0.00064 0.08776 0.45580 -0.59000
O 	O 	0.08776 0.00064 0.45580 -0.59000
O 	O 	0.45580 0.45580 0.08776 -0.58700
O 	O 	0.99936 0.54420 0.91224 -0.59000
O 	O 	0.54420 0.99936 0.54420 -0.58800
O 	O 	0.54420 0.91224 0.54420 -0.58700
O 	O 	0.91224 0.54420 0.99936 -0.59000
O 	O 	0.91224 0.54420 0.54420 -0.58700
O 	O 	0.54420 0.99936 0.91224 -0.59000
O 	O 	0.54420 0.91224 0.99936 -0.59000
O 	O 	0.99936 0.54420 0.54420 -0.58800
O 	O 	0.54420 0.54420 0.99936 -0.58800
O 	O 	0.91224 0.99936 0.54420 -0.59000
O 	O 	0.99936 0.91224 0.54420 -0.59000
O 	O 	0.54420 0.54420 0.91224 -0.58700
