data_crystal

_cell_length_a 15.79000
_cell_length_b 15.79000
_cell_length_c 16.05000
_cell_angle_alpha 90.00000
_cell_angle_beta  90.00000
_cell_angle_gamma 120.00000

_symmetry_space_group_name_	'P 1'
_symmetry_space_group_name_H-M	'P 1'

loop_
_symmetry_equiv_pos_as_xyz
  x,y,z

loop_
_atom_site_label
_atom_site_type_symbol
_atom_site_fract_x
_atom_site_fract_y
_atom_site_fract_z
_atom_site_charge
F 	F 	0.53480 0.18270 0.97390 -0.22000
F 	F 	0.58140 0.04960 0.84940 -0.24900
O 	O 	0.51450 0.16850 0.15990 -0.38600
C 	C 	0.51850 0.08780 0.98810 0.17900
C 	C 	0.54410 0.01880 0.92630 0.24600
F 	F 	0.81730 0.35210 0.97390 -0.21900
F 	F 	0.95040 0.53180 0.84940 -0.24800
O 	O 	0.83150 0.34600 0.15990 -0.38600
C 	C 	0.91220 0.43070 0.98810 0.18100
C 	C 	0.98120 0.52530 0.92630 0.24600
F 	F 	0.64790 0.46520 0.97390 -0.21900
F 	F 	0.46820 0.41860 0.84940 -0.24800
O 	O 	0.65400 0.48550 0.15990 -0.38500
C 	C 	0.56930 0.48150 0.98810 0.18000
C 	C 	0.47470 0.45590 0.92630 0.24500
F 	F 	0.46520 0.81730 0.47390 -0.21900
F 	F 	0.41860 0.95040 0.34940 -0.24800
O 	O 	0.48550 0.83150 0.65990 -0.38500
C 	C 	0.48150 0.91220 0.48810 0.18000
C 	C 	0.45590 0.98120 0.42630 0.24500
F 	F 	0.18270 0.64790 0.47390 -0.21900
F 	F 	0.04960 0.46820 0.34940 -0.24800
O 	O 	0.16850 0.65400 0.65990 -0.38500
C 	C 	0.08780 0.56930 0.48810 0.18000
C 	C 	0.01880 0.47470 0.42630 0.24500
F 	F 	0.35210 0.53480 0.47390 -0.21900
F 	F 	0.53180 0.58140 0.34940 -0.24800
O 	O 	0.34600 0.51450 0.65990 -0.38500
C 	C 	0.43070 0.51850 0.48810 0.18000
C 	C 	0.52530 0.54410 0.42630 0.24500
F 	F 	0.18270 0.53480 0.02610 -0.21900
F 	F 	0.04960 0.58140 0.15060 -0.24800
O 	O 	0.16850 0.51450 0.84010 -0.38500
C 	C 	0.08780 0.51850 0.01190 0.18000
C 	C 	0.01880 0.54410 0.07370 0.24600
F 	F 	0.35210 0.81730 0.02610 -0.21900
F 	F 	0.53180 0.95040 0.15060 -0.24800
O 	O 	0.34600 0.83150 0.84010 -0.38600
C 	C 	0.43070 0.91220 0.01190 0.18100
C 	C 	0.52530 0.98120 0.07370 0.24600
F 	F 	0.46520 0.64790 0.02610 -0.21900
F 	F 	0.41860 0.46820 0.15060 -0.24800
O 	O 	0.48550 0.65400 0.84010 -0.38500
C 	C 	0.48150 0.56930 0.01190 0.18000
C 	C 	0.45590 0.47470 0.07370 0.24500
F 	F 	0.81730 0.46520 0.52610 -0.21900
F 	F 	0.95040 0.41860 0.65060 -0.24800
O 	O 	0.83150 0.48550 0.34010 -0.38500
C 	C 	0.91220 0.48150 0.51190 0.18000
C 	C 	0.98120 0.45590 0.57370 0.24500
F 	F 	0.64790 0.18270 0.52610 -0.21900
F 	F 	0.46820 0.04960 0.65060 -0.24800
O 	O 	0.65400 0.16850 0.34010 -0.38500
C 	C 	0.56930 0.08780 0.51190 0.18000
C 	C 	0.47470 0.01880 0.57370 0.24500
F 	F 	0.53480 0.35210 0.52610 -0.21900
F 	F 	0.58140 0.53180 0.65060 -0.24800
O 	O 	0.51450 0.34600 0.34010 -0.38500
C 	C 	0.51850 0.43070 0.51190 0.18000
C 	C 	0.54410 0.52530 0.57370 0.24500
F 	F 	0.46520 0.81730 0.02610 -0.21900
F 	F 	0.41860 0.95040 0.15060 -0.24800
O 	O 	0.48550 0.83150 0.84010 -0.38500
C 	C 	0.48150 0.91220 0.01190 0.18000
C 	C 	0.45590 0.98120 0.07370 0.24600
F 	F 	0.18270 0.64790 0.02610 -0.21900
F 	F 	0.04960 0.46820 0.15060 -0.24800
O 	O 	0.16850 0.65400 0.84010 -0.38600
C 	C 	0.08780 0.56930 0.01190 0.18100
C 	C 	0.01880 0.47470 0.07370 0.24600
F 	F 	0.35210 0.53480 0.02610 -0.21900
F 	F 	0.53180 0.58140 0.15060 -0.24800
O 	O 	0.34600 0.51450 0.84010 -0.38500
C 	C 	0.43070 0.51850 0.01190 0.18000
C 	C 	0.52530 0.54410 0.07370 0.24500
F 	F 	0.53480 0.18270 0.52610 -0.21900
F 	F 	0.58140 0.04960 0.65060 -0.24800
O 	O 	0.51450 0.16850 0.34010 -0.38500
C 	C 	0.51850 0.08780 0.51190 0.18000
C 	C 	0.54410 0.01880 0.57370 0.24500
F 	F 	0.81730 0.35210 0.52610 -0.21900
F 	F 	0.95040 0.53180 0.65060 -0.24800
O 	O 	0.83150 0.34600 0.34010 -0.38500
C 	C 	0.91220 0.43070 0.51190 0.18000
C 	C 	0.98120 0.52530 0.57370 0.24500
F 	F 	0.64790 0.46520 0.52610 -0.21900
F 	F 	0.46820 0.41860 0.65060 -0.24800
O 	O 	0.65400 0.48550 0.34010 -0.38500
C 	C 	0.56930 0.48150 0.51190 0.18000
C 	C 	0.47470 0.45590 0.57370 0.24500
F 	F 	0.81730 0.46520 0.97390 -0.21900
F 	F 	0.95040 0.41860 0.84940 -0.24800
O 	O 	0.83150 0.48550 0.15990 -0.38500
C 	C 	0.91220 0.48150 0.98810 0.18000
C 	C 	0.98120 0.45590 0.92630 0.24600
F 	F 	0.64790 0.18270 0.97390 -0.21900
F 	F 	0.46820 0.04960 0.84940 -0.24800
O 	O 	0.65400 0.16850 0.15990 -0.38600
C 	C 	0.56930 0.08780 0.98810 0.18100
C 	C 	0.47470 0.01880 0.92630 0.24600
F 	F 	0.53480 0.35210 0.97390 -0.21900
F 	F 	0.58140 0.53180 0.84940 -0.24800
O 	O 	0.51450 0.34600 0.15990 -0.38500
C 	C 	0.51850 0.43070 0.98810 0.18000
C 	C 	0.54410 0.52530 0.92630 0.24500
F 	F 	0.18270 0.53480 0.47390 -0.21900
F 	F 	0.04960 0.58140 0.34940 -0.24800
O 	O 	0.16850 0.51450 0.65990 -0.38500
C 	C 	0.08780 0.51850 0.48810 0.18000
C 	C 	0.01880 0.54410 0.42630 0.24500
F 	F 	0.35210 0.81730 0.47390 -0.21900
F 	F 	0.53180 0.95040 0.34940 -0.24800
O 	O 	0.34600 0.83150 0.65990 -0.38500
C 	C 	0.43070 0.91220 0.48810 0.18000
C 	C 	0.52530 0.98120 0.42630 0.24500
F 	F 	0.46520 0.64790 0.47390 -0.21900
F 	F 	0.41860 0.46820 0.34940 -0.24800
O 	O 	0.48550 0.65400 0.65990 -0.38500
C 	C 	0.48150 0.56930 0.48810 0.18000
C 	C 	0.45590 0.47470 0.42630 0.24500
Fe	Fe	0.52879 0.26439 0.25000 1.26700
Fe	Fe	0.73560 0.26439 0.25000 1.26700
Fe	Fe	0.73560 0.47121 0.25000 1.26700
Fe	Fe	0.47121 0.73560 0.75000 1.26700
Fe	Fe	0.26440 0.73560 0.75000 1.26700
Fe	Fe	0.26440 0.52879 0.75000 1.26700
O 	O 	0.66667 0.33333 0.25000 -0.65700
O 	O 	0.33333 0.66667 0.75000 -0.65700
C 	C 	0.57045 0.14090 0.13670 0.60700
C 	C 	0.53420 0.06840 0.06580 -0.27800
C 	C 	0.85910 0.42955 0.13670 0.60700
C 	C 	0.93160 0.46580 0.06580 -0.27800
C 	C 	0.57045 0.42955 0.13670 0.60600
C 	C 	0.53420 0.46580 0.06580 -0.27600
C 	C 	0.42955 0.85910 0.63670 0.60600
C 	C 	0.46580 0.93160 0.56580 -0.27600
C 	C 	0.14090 0.57045 0.63670 0.60600
C 	C 	0.06840 0.53420 0.56580 -0.27600
C 	C 	0.42955 0.57045 0.63670 0.60600
C 	C 	0.46580 0.53420 0.56580 -0.27600
C 	C 	0.14090 0.57045 0.86330 0.60700
C 	C 	0.06840 0.53420 0.93420 -0.27800
C 	C 	0.42955 0.85910 0.86330 0.60700
C 	C 	0.46580 0.93160 0.93420 -0.27800
C 	C 	0.42955 0.57045 0.86330 0.60600
C 	C 	0.46580 0.53420 0.93420 -0.27600
C 	C 	0.85910 0.42955 0.36330 0.60600
C 	C 	0.93160 0.46580 0.43420 -0.27600
C 	C 	0.57045 0.14090 0.36330 0.60600
C 	C 	0.53420 0.06840 0.43420 -0.27600
C 	C 	0.57045 0.42955 0.36330 0.60600
C 	C 	0.53420 0.46580 0.43420 -0.27600
