data_crystal

_cell_length_a 16.20100
_cell_length_b 16.20100
_cell_length_c 6.91210
_cell_angle_alpha 90.00000
_cell_angle_beta  90.00000
_cell_angle_gamma 90.00000

_symmetry_space_group_name_	'P 1'
_symmetry_space_group_name_H-M	'P 1'

loop_
_symmetry_equiv_pos_as_xyz
  x,y,z

loop_
_atom_site_label
_atom_site_type_symbol
_atom_site_fract_x
_atom_site_fract_y
_atom_site_fract_z
_atom_site_charge
C 	C 	0.75800 0.45740 0.29830 -0.04600
C 	C 	0.78710 0.39630 0.15390 0.31000
O 	O 	0.76710 0.32230 0.18500 -0.34600
C 	C 	0.25800 0.95740 0.79830 -0.03800
C 	C 	0.28710 0.89630 0.65390 0.30700
O 	O 	0.26710 0.82230 0.68500 -0.34400
C 	C 	0.24200 0.54260 0.29830 -0.04700
C 	C 	0.21290 0.60370 0.15390 0.30800
O 	O 	0.23290 0.67770 0.18500 -0.34600
C 	C 	0.74200 0.04260 0.79830 -0.09500
C 	C 	0.71290 0.10370 0.65390 0.32800
O 	O 	0.73290 0.17770 0.68500 -0.35000
C 	C 	0.54260 0.75800 0.29830 -0.04700
C 	C 	0.60370 0.78710 0.15390 0.30900
O 	O 	0.67770 0.76710 0.18500 -0.34700
C 	C 	0.04260 0.25800 0.79830 -0.06500
C 	C 	0.10370 0.28710 0.65390 0.31500
O 	O 	0.17770 0.26710 0.68500 -0.34700
C 	C 	0.45740 0.24200 0.29830 -0.04700
C 	C 	0.39630 0.21290 0.15390 0.30800
O 	O 	0.32230 0.23290 0.18500 -0.34600
C 	C 	0.95740 0.74200 0.79830 -0.06800
C 	C 	0.89630 0.71290 0.65390 0.32100
O 	O 	0.82230 0.73290 0.68500 -0.34800
C 	C 	0.24200 0.45740 0.70170 -0.04200
C 	C 	0.21290 0.39630 0.84610 0.30600
O 	O 	0.23290 0.32230 0.81500 -0.34500
C 	C 	0.74200 0.95740 0.20170 0.01100
C 	C 	0.71290 0.89630 0.34610 0.28500
O 	O 	0.73290 0.82230 0.31500 -0.33900
C 	C 	0.75800 0.54260 0.70170 -0.04100
C 	C 	0.78710 0.60370 0.84610 0.30700
O 	O 	0.76710 0.67770 0.81500 -0.34400
C 	C 	0.25800 0.04260 0.20170 -0.04300
C 	C 	0.28710 0.10370 0.34610 0.30500
O 	O 	0.26710 0.17770 0.31500 -0.34500
C 	C 	0.45740 0.75800 0.70170 -0.04100
C 	C 	0.39630 0.78710 0.84610 0.30700
O 	O 	0.32230 0.76710 0.81500 -0.34500
C 	C 	0.95740 0.25800 0.20170 -0.01800
C 	C 	0.89630 0.28710 0.34610 0.29800
O 	O 	0.82230 0.26710 0.31500 -0.34300
C 	C 	0.54260 0.24200 0.70170 -0.04200
C 	C 	0.60370 0.21290 0.84610 0.30600
O 	O 	0.67770 0.23290 0.81500 -0.34400
C 	C 	0.04260 0.74200 0.20170 -0.01400
C 	C 	0.10370 0.71290 0.34610 0.29200
O 	O 	0.17770 0.73290 0.31500 -0.34100
C 	C 	0.24200 0.54260 0.70170 -0.04200
C 	C 	0.21290 0.60370 0.84610 0.30600
O 	O 	0.23290 0.67770 0.81500 -0.34400
C 	C 	0.74200 0.04260 0.20170 -0.01400
C 	C 	0.71290 0.10370 0.34610 0.29200
O 	O 	0.73290 0.17770 0.31500 -0.34100
C 	C 	0.75800 0.45740 0.70170 -0.04100
C 	C 	0.78710 0.39630 0.84610 0.30700
O 	O 	0.76710 0.32230 0.81500 -0.34500
C 	C 	0.25800 0.95740 0.20170 -0.01800
C 	C 	0.28710 0.89630 0.34610 0.29800
O 	O 	0.26710 0.82230 0.31500 -0.34300
C 	C 	0.45740 0.24200 0.70170 -0.04200
C 	C 	0.39630 0.21290 0.84610 0.30600
O 	O 	0.32230 0.23290 0.81500 -0.34500
C 	C 	0.95740 0.74200 0.20170 0.01100
C 	C 	0.89630 0.71290 0.34610 0.28500
O 	O 	0.82230 0.73290 0.31500 -0.33900
C 	C 	0.54260 0.75800 0.70170 -0.04100
C 	C 	0.60370 0.78710 0.84610 0.30700
O 	O 	0.67770 0.76710 0.81500 -0.34400
C 	C 	0.04260 0.25800 0.20170 -0.04300
C 	C 	0.10370 0.28710 0.34610 0.30500
O 	O 	0.17770 0.26710 0.31500 -0.34500
C 	C 	0.75800 0.54260 0.29830 -0.04700
C 	C 	0.78710 0.60370 0.15390 0.30900
O 	O 	0.76710 0.67770 0.18500 -0.34700
C 	C 	0.25800 0.04260 0.79830 -0.06500
C 	C 	0.28710 0.10370 0.65390 0.31500
O 	O 	0.26710 0.17770 0.68500 -0.34700
C 	C 	0.24200 0.45740 0.29830 -0.04700
C 	C 	0.21290 0.39630 0.15390 0.30800
O 	O 	0.23290 0.32230 0.18500 -0.34600
C 	C 	0.74200 0.95740 0.79830 -0.06800
C 	C 	0.71290 0.89630 0.65390 0.32100
O 	O 	0.73290 0.82230 0.68500 -0.34800
C 	C 	0.54260 0.24200 0.29830 -0.04700
C 	C 	0.60370 0.21290 0.15390 0.30800
O 	O 	0.67770 0.23290 0.18500 -0.34600
C 	C 	0.04260 0.74200 0.79830 -0.09500
C 	C 	0.10370 0.71290 0.65390 0.32800
O 	O 	0.17770 0.73290 0.68500 -0.35000
C 	C 	0.45740 0.75800 0.29830 -0.04700
C 	C 	0.39630 0.78710 0.15390 0.30900
O 	O 	0.32230 0.76710 0.18500 -0.34600
C 	C 	0.95740 0.25800 0.79830 -0.03800
C 	C 	0.89630 0.28710 0.65390 0.30700
O 	O 	0.82230 0.26710 0.68500 -0.34400
Cd	Cd	0.70763 0.29237 0.50000 1.27200
Cd	Cd	0.20763 0.79237 -0.00000 1.27200
Cd	Cd	0.29237 0.70763 0.50000 1.27200
Cd	Cd	0.79237 0.20763 -0.00000 1.27200
Cd	Cd	0.70763 0.70763 0.50000 1.27200
Cd	Cd	0.20763 0.20763 -0.00000 1.27200
Cd	Cd	0.29237 0.29237 0.50000 1.27200
Cd	Cd	0.79237 0.79237 -0.00000 1.27200
C 	C 	0.70200 0.50000 0.56000 0.10000
C 	C 	0.65980 0.50000 0.75400 -0.05000
C 	C 	0.20200 0.00000 0.06000 0.04500
C 	C 	0.15980 0.00000 0.25400 -0.04700
C 	C 	0.29800 0.50000 0.56000 0.10200
C 	C 	0.34020 0.50000 0.75400 -0.05000
C 	C 	0.79800 0.00000 0.06000 -0.13700
C 	C 	0.84020 0.00000 0.25400 -0.00600
C 	C 	0.50000 0.70200 0.56000 0.10000
C 	C 	0.50000 0.65980 0.75400 -0.05000
C 	C 	0.00000 0.20200 0.06000 0.04500
C 	C 	0.00000 0.15980 0.25400 -0.04700
C 	C 	0.50000 0.29800 0.56000 0.10200
C 	C 	0.50000 0.34020 0.75400 -0.05000
C 	C 	0.00000 0.79800 0.06000 -0.13700
C 	C 	-0.00000 0.84020 0.25400 -0.00600
C 	C 	0.29800 0.50000 0.44000 0.13600
C 	C 	0.34020 0.50000 0.24600 -0.05800
C 	C 	0.79800 0.00000 0.94000 0.36500
C 	C 	0.84020 0.00000 0.74600 -0.10600
C 	C 	0.70200 0.50000 0.44000 0.13800
C 	C 	0.65980 0.50000 0.24600 -0.05800
C 	C 	0.20200 0.00000 0.94000 0.18200
C 	C 	0.15980 0.00000 0.74600 -0.07300
C 	C 	0.50000 0.70200 0.44000 0.13800
C 	C 	0.50000 0.65980 0.24600 -0.05800
C 	C 	0.00000 0.20200 0.94000 0.18200
C 	C 	0.00000 0.15980 0.74600 -0.07300
C 	C 	0.50000 0.29800 0.44000 0.13600
C 	C 	0.50000 0.34020 0.24600 -0.05800
C 	C 	-0.00000 0.79800 0.94000 0.36500
C 	C 	0.00000 0.84020 0.74600 -0.10600
N 	N 	0.72350 0.43140 0.50000 -0.23500
N 	N 	0.22350 0.93140 -0.00000 -0.23200
N 	N 	0.27650 0.56860 0.50000 -0.23500
N 	N 	0.77650 0.06860 -0.00000 -0.23100
N 	N 	0.56860 0.72350 0.50000 -0.23500
N 	N 	0.06860 0.22350 -0.00000 -0.23100
N 	N 	0.43140 0.27650 0.50000 -0.23500
N 	N 	0.93140 0.77650 -0.00000 -0.23200
N 	N 	0.27650 0.43140 0.50000 -0.23500
N 	N 	0.77650 0.93140 -0.00000 -0.23200
N 	N 	0.72350 0.56860 0.50000 -0.23500
N 	N 	0.22350 0.06860 -0.00000 -0.23100
N 	N 	0.43140 0.72350 0.50000 -0.23500
N 	N 	0.93140 0.22350 -0.00000 -0.23200
N 	N 	0.56860 0.27650 0.50000 -0.23500
N 	N 	0.06860 0.77650 -0.00000 -0.23100
O 	O 	0.82630 0.41980 -0.00000 -0.30100
O 	O 	0.32630 0.91980 0.50000 -0.29600
O 	O 	0.17370 0.58020 -0.00000 -0.30300
O 	O 	0.67370 0.08020 0.50000 -0.30600
O 	O 	0.58020 0.82630 -0.00000 -0.30200
O 	O 	0.08020 0.32630 0.50000 -0.30600
O 	O 	0.41980 0.17370 -0.00000 -0.30300
O 	O 	0.91980 0.67370 0.50000 -0.29600
O 	O 	0.17370 0.41980 -0.00000 -0.30300
O 	O 	0.67370 0.91980 0.50000 -0.29600
O 	O 	0.82630 0.58020 -0.00000 -0.30200
O 	O 	0.32630 0.08020 0.50000 -0.30600
O 	O 	0.41980 0.82630 -0.00000 -0.30100
O 	O 	0.91980 0.32630 0.50000 -0.29600
O 	O 	0.58020 0.17370 -0.00000 -0.30300
O 	O 	0.08020 0.67370 0.50000 -0.30600
