data_crystal

_cell_length_a 14.84500
_cell_length_b 19.45180
_cell_length_c 30.80000
_cell_angle_alpha 101.94600
_cell_angle_beta  90.00000
_cell_angle_gamma 112.43200

_symmetry_space_group_name_	'P 1'
_symmetry_space_group_name_H-M	'P 1'

loop_
_symmetry_equiv_pos_as_xyz
  x,y,z

loop_
_atom_site_label
_atom_site_type_symbol
_atom_site_fract_x
_atom_site_fract_y
_atom_site_fract_z
_atom_site_charge
Zn	Zn	0.96093 0.17056 0.59292 1.16400
Zn	Zn	0.81461 0.34630 0.77362 1.16300
Zn	Zn	0.28813 0.76002 0.93428 1.16500
Zn	Zn	0.20963 0.17056 0.09292 1.16500
Zn	Zn	0.53169 0.34630 0.27362 1.16400
Zn	Zn	0.47189 0.76002 0.43428 1.16600
H 	H 	0.43990 0.69640 0.91600 -0.00300
H 	H 	0.46510 0.59480 0.87200 0.08700
H 	H 	0.20000 0.53180 0.80750 0.09500
H 	H 	0.18330 0.63580 0.85350 -0.00500
H 	H 	0.46800 0.30020 0.73480 0.08400
H 	H 	0.61250 0.28020 0.73290 -0.01600
H 	H 	0.74730 0.46960 0.82210 -0.01100
H 	H 	0.60720 0.49500 0.82760 0.08000
H 	H 	0.11620 0.39500 0.72310 0.08200
H 	H 	0.99930 0.31640 0.66460 -0.01500
H 	H 	0.14740 0.18660 0.63300 -0.00800
H 	H 	0.26970 0.26320 0.68760 0.09700
H 	H 	0.03070 0.04160 0.55780 -0.00700
H 	H 	0.15000 0.02100 0.51460 0.06800
H 	H 	0.22080 0.23040 0.48860 0.07800
H 	H 	0.10410 0.24660 0.53440 -0.01100
H 	H 	0.33940 0.95660 0.50120 0.08100
H 	H 	0.37880 0.85160 0.49630 -0.00900
H 	H 	0.48600 0.87280 0.38240 -0.01800
H 	H 	0.44560 0.97680 0.38240 0.08700
H 	H 	0.34360 0.26480 0.40060 0.09300
H 	H 	0.40910 0.34100 0.35260 -0.01700
H 	H 	0.55780 0.22040 0.30640 -0.02500
H 	H 	0.49190 0.13740 0.35170 0.09300
H 	H 	0.25650 0.69640 0.41600 -0.00300
H 	H 	0.12970 0.59480 0.37200 0.08700
H 	H 	0.33180 0.53180 0.30750 0.09500
H 	H 	0.45250 0.63580 0.35350 -0.00500
H 	H 	0.83220 0.30020 0.23480 0.08400
H 	H 	0.66770 0.28020 0.23290 -0.01600
H 	H 	0.72230 0.46960 0.32210 -0.01100
H 	H 	0.88780 0.49500 0.32760 0.08000
H 	H 	0.27880 0.39500 0.22310 0.08100
H 	H 	0.31710 0.31640 0.16460 -0.01400
H 	H 	0.03920 0.18660 0.13300 -0.00700
H 	H 	0.99350 0.26320 0.18760 0.09500
H 	H 	0.01090 0.04160 0.05780 -0.00800
H 	H 	0.87100 0.02100 0.01460 0.06900
H 	H 	0.00960 0.23040 0.98860 0.07800
H 	H 	0.14250 0.24660 0.03440 -0.01100
H 	H 	0.61720 0.95660 0.00120 0.08200
H 	H 	0.47280 0.85160 0.99630 -0.00900
H 	H 	0.38680 0.87280 0.88240 -0.01800
H 	H 	0.53120 0.97680 0.88240 0.08700
H 	H 	0.92120 0.26480 0.90060 0.09200
H 	H 	0.93190 0.34100 0.85260 -0.01800
H 	H 	0.66260 0.22040 0.80640 -0.02500
H 	H 	0.64550 0.13740 0.85170 0.09300
C 	C 	0.38989 0.66178 0.89380 0.07900
C 	C 	0.40602 0.60164 0.86760 -0.12700
C 	C 	0.33471 0.55202 0.83505 0.05200
C 	C 	0.25059 0.56498 0.82990 -0.12800
C 	C 	0.24088 0.62676 0.85760 0.07300
C 	C 	0.34682 0.48744 0.80444 0.08900
C 	C 	0.43168 0.41576 0.78091 0.10700
C 	C 	0.28472 0.38644 0.74715 0.10600
C 	C 	0.52207 0.40054 0.78150 0.05900
C 	C 	0.52459 0.33598 0.75330 -0.12100
C 	C 	0.61111 0.32442 0.75250 0.07100
C 	C 	0.68926 0.43452 0.80440 0.07300
C 	C 	0.60638 0.45036 0.80770 -0.12200
C 	C 	0.20620 0.33760 0.71090 0.06400
C 	C 	0.12469 0.35298 0.70430 -0.13200
C 	C 	0.05524 0.30568 0.66960 0.07600
C 	C 	0.14213 0.23066 0.65110 0.08200
C 	C 	0.21420 0.27500 0.68370 -0.12900
C 	C 	0.07090 0.08060 0.54400 0.06600
C 	C 	0.14099 0.06758 0.51784 -0.10900
C 	C 	0.19778 0.12336 0.49635 0.04900
C 	C 	0.18311 0.19102 0.50280 -0.11200
C 	C 	0.11336 0.20012 0.52990 0.06700
C 	C 	0.27168 0.11116 0.46740 0.09600
C 	C 	0.36201 0.04422 0.44247 0.09600
C 	C 	0.36678 0.14056 0.41210 0.10600
C 	C 	0.38832 0.97824 0.44212 0.05800
C 	C 	0.36899 0.94018 0.47600 -0.13500
C 	C 	0.39314 0.87788 0.47270 0.08600
C 	C 	0.45450 0.88960 0.40680 0.07800
C 	C 	0.43160 0.95220 0.40670 -0.12500
C 	C 	0.40769 0.19098 0.38050 0.08700
C 	C 	0.38650 0.25300 0.38030 -0.14200
C 	C 	0.42560 0.29820 0.35170 0.09300
C 	C 	0.51010 0.22820 0.32510 0.10300
C 	C 	0.47270 0.17900 0.35240 -0.14600
C 	C 	0.27189 0.66178 0.39380 0.07900
C 	C 	0.19562 0.60164 0.36760 -0.12700
C 	C 	0.21731 0.55202 0.33505 0.05200
C 	C 	0.31439 0.56498 0.32990 -0.12800
C 	C 	0.38588 0.62676 0.35760 0.07300
C 	C 	0.14062 0.48744 0.30444 0.08900
C 	C 	0.98408 0.41576 0.28091 0.10700
C 	C 	0.10172 0.38644 0.24715 0.10600
C 	C 	0.87847 0.40054 0.28150 0.05900
C 	C 	0.81139 0.33598 0.25330 -0.12100
C 	C 	0.71331 0.32442 0.25250 0.07100
C 	C 	0.74526 0.43452 0.30440 0.07300
C 	C 	0.84398 0.45036 0.30770 -0.12200
C 	C 	0.13140 0.33760 0.21090 0.06300
C 	C 	0.22829 0.35298 0.20430 -0.13000
C 	C 	0.25044 0.30568 0.16960 0.07400
C 	C 	0.08853 0.23066 0.15110 0.08100
C 	C 	0.06080 0.27500 0.18370 -0.12600
C 	C 	0.00970 0.08060 0.04400 0.06900
C 	C 	0.92659 0.06758 0.01784 -0.11300
C 	C 	0.92558 0.12336 0.99635 0.04900
C 	C 	0.00791 0.19102 0.00280 -0.11100
C 	C 	0.08676 0.20012 0.02990 0.06600
C 	C 	0.83948 0.11116 0.96740 0.09500
C 	C 	0.68221 0.04422 0.94247 0.09500
C 	C 	0.77378 0.14056 0.91210 0.10600
C 	C 	0.58992 0.97824 0.94212 0.06000
C 	C 	0.57119 0.94018 0.97600 -0.13600
C 	C 	0.48474 0.87788 0.97270 0.08600
C 	C 	0.43510 0.88960 0.90680 0.07900
C 	C 	0.52060 0.95220 0.90670 -0.12600
C 	C 	0.78329 0.19098 0.88050 0.08700
C 	C 	0.86650 0.25300 0.88030 -0.14200
C 	C 	0.87260 0.29820 0.85170 0.09300
C 	C 	0.71810 0.22820 0.82510 0.10300
C 	C 	0.70630 0.17900 0.85240 -0.14600
I 	I 	0.15827 0.78848 0.89718 -0.38300
I 	I 	0.96764 0.46664 0.79764 -0.38100
I 	I 	0.79006 0.24951 0.70045 -0.40200
I 	I 	0.27307 0.71938 0.00787 -0.36200
I 	I 	0.88852 0.24154 0.55291 -0.38100
I 	I 	0.86809 0.05520 0.62410 -0.35400
I 	I 	0.63021 0.78848 0.39718 -0.38200
I 	I 	0.49900 0.46664 0.29764 -0.38100
I 	I 	0.45945 0.24951 0.20045 -0.40200
I 	I 	0.44631 0.71938 0.50787 -0.36200
I 	I 	0.35302 0.24154 0.05291 -0.38000
I 	I 	0.18711 0.05520 0.12410 -0.35200
N 	N 	0.30918 0.67416 0.88982 -0.27700
N 	N 	0.27429 0.44598 0.77257 -0.14200
N 	N 	0.36116 0.36852 0.74972 -0.13700
N 	N 	0.42813 0.47506 0.81027 -0.14000
N 	N 	0.06449 0.24578 0.64306 -0.27500
N 	N 	0.69165 0.37190 0.77746 -0.27600
N 	N 	0.48567 0.28534 0.32250 -0.28600
N 	N 	0.30214 0.05648 0.47232 -0.14600
N 	N 	0.39780 0.08520 0.41192 -0.13400
N 	N 	0.30208 0.15516 0.43783 -0.13500
N 	N 	0.05761 0.14602 0.55055 -0.27000
N 	N 	0.43501 0.85222 0.43902 -0.28200
N 	N 	0.36498 0.67416 0.38982 -0.27700
N 	N 	0.17169 0.44598 0.27257 -0.14200
N 	N 	0.00736 0.36852 0.24972 -0.13700
N 	N 	0.04693 0.47506 0.31027 -0.14000
N 	N 	0.18129 0.24578 0.14306 -0.27500
N 	N 	0.68025 0.37190 0.27746 -0.27600
N 	N 	0.79967 0.28534 0.82250 -0.28600
N 	N 	0.75434 0.05648 0.97232 -0.14600
N 	N 	0.68740 0.08520 0.91192 -0.13400
N 	N 	0.85308 0.15516 0.93783 -0.13500
N 	N 	0.08841 0.14602 0.05055 -0.27000
N 	N 	0.41721 0.85222 0.93902 -0.28200
Zn	Zn	0.79037 0.82944 0.90708 1.16600
Zn	Zn	0.46831 0.65370 0.72638 1.16400
Zn	Zn	0.52811 0.23998 0.56572 1.16600
Zn	Zn	0.03907 0.82944 0.40708 1.16500
Zn	Zn	0.18539 0.65370 0.22638 1.16400
Zn	Zn	0.71187 0.23998 0.06572 1.16600
H 	H 	0.74350 0.30360 0.58400 -0.00300
H 	H 	0.87030 0.40520 0.62800 0.08700
H 	H 	0.66820 0.46820 0.69250 0.09500
H 	H 	0.54750 0.36420 0.64650 -0.00500
H 	H 	0.16780 0.69980 0.76520 0.08400
H 	H 	0.33230 0.71980 0.76710 -0.01600
H 	H 	0.27770 0.53040 0.67790 -0.01100
H 	H 	0.11220 0.50500 0.67240 0.08000
H 	H 	0.72120 0.60500 0.77690 0.08100
H 	H 	0.68290 0.68360 0.83540 -0.01400
H 	H 	0.96080 0.81340 0.86700 -0.00700
H 	H 	0.00650 0.73680 0.81240 0.09500
H 	H 	0.98910 0.95840 0.94220 -0.00800
H 	H 	0.12900 0.97900 0.98540 0.06900
H 	H 	0.99040 0.76960 0.01140 0.07800
H 	H 	0.85750 0.75340 0.96560 -0.01100
H 	H 	0.38280 0.04340 0.99880 0.08200
H 	H 	0.52720 0.14840 0.00370 -0.00900
H 	H 	0.61320 0.12720 0.11760 -0.01800
H 	H 	0.46880 0.02320 0.11760 0.08700
H 	H 	0.07880 0.73520 0.09940 0.09200
H 	H 	0.06810 0.65900 0.14740 -0.01800
H 	H 	0.33740 0.77960 0.19360 -0.02500
H 	H 	0.35450 0.86260 0.14830 0.09300
H 	H 	0.56010 0.30360 0.08400 -0.00300
H 	H 	0.53490 0.40520 0.12800 0.08700
H 	H 	0.80000 0.46820 0.19250 0.09500
H 	H 	0.81670 0.36420 0.14650 -0.00500
H 	H 	0.53200 0.69980 0.26520 0.08400
H 	H 	0.38750 0.71980 0.26710 -0.01600
H 	H 	0.25270 0.53040 0.17790 -0.01100
H 	H 	0.39280 0.50500 0.17240 0.08000
H 	H 	0.88380 0.60500 0.27690 0.08200
H 	H 	0.00070 0.68360 0.33540 -0.01500
H 	H 	0.85260 0.81340 0.36700 -0.00800
H 	H 	0.73030 0.73680 0.31240 0.09700
H 	H 	0.96930 0.95840 0.44220 -0.00700
H 	H 	0.85000 0.97900 0.48540 0.06800
H 	H 	0.77920 0.76960 0.51140 0.07800
H 	H 	0.89590 0.75340 0.46560 -0.01100
H 	H 	0.66060 0.04340 0.49880 0.08100
H 	H 	0.62120 0.14840 0.50370 -0.00900
H 	H 	0.51400 0.12720 0.61760 -0.01800
H 	H 	0.55440 0.02320 0.61760 0.08700
H 	H 	0.65640 0.73520 0.59940 0.09300
H 	H 	0.59090 0.65900 0.64740 -0.01700
H 	H 	0.44220 0.77960 0.69360 -0.02500
H 	H 	0.50810 0.86260 0.64830 0.09300
C 	C 	0.72811 0.33822 0.60620 0.07900
C 	C 	0.80438 0.39836 0.63240 -0.12700
C 	C 	0.78269 0.44798 0.66495 0.05200
C 	C 	0.68561 0.43502 0.67010 -0.12800
C 	C 	0.61412 0.37324 0.64240 0.07300
C 	C 	0.85938 0.51256 0.69556 0.08900
C 	C 	0.01592 0.58424 0.71909 0.10700
C 	C 	0.89828 0.61356 0.75285 0.10600
C 	C 	0.12153 0.59946 0.71850 0.05900
C 	C 	0.18861 0.66402 0.74670 -0.12100
C 	C 	0.28669 0.67558 0.74750 0.07100
C 	C 	0.25474 0.56548 0.69560 0.07300
C 	C 	0.15602 0.54964 0.69230 -0.12200
C 	C 	0.86860 0.66240 0.78910 0.06300
C 	C 	0.77171 0.64702 0.79570 -0.13000
C 	C 	0.74956 0.69432 0.83040 0.07400
C 	C 	0.91147 0.76934 0.84890 0.08100
C 	C 	0.93920 0.72500 0.81630 -0.12600
C 	C 	0.99030 0.91940 0.95600 0.06900
C 	C 	0.07341 0.93242 0.98216 -0.11300
C 	C 	0.07442 0.87664 0.00365 0.04900
C 	C 	0.99209 0.80898 0.99720 -0.11100
C 	C 	0.91324 0.79988 0.97010 0.06600
C 	C 	0.16052 0.88884 0.03260 0.09500
C 	C 	0.31779 0.95578 0.05753 0.09500
C 	C 	0.22622 0.85944 0.08790 0.10600
C 	C 	0.41008 0.02176 0.05788 0.06000
C 	C 	0.42881 0.05982 0.02400 -0.13600
C 	C 	0.51526 0.12212 0.02730 0.08600
C 	C 	0.56490 0.11040 0.09320 0.07900
C 	C 	0.47940 0.04780 0.09330 -0.12600
C 	C 	0.21671 0.80902 0.11950 0.08700
C 	C 	0.13350 0.74700 0.11970 -0.14200
C 	C 	0.12740 0.70180 0.14830 0.09300
C 	C 	0.28190 0.77180 0.17490 0.10300
C 	C 	0.29370 0.82100 0.14760 -0.14600
C 	C 	0.61011 0.33822 0.10620 0.07900
C 	C 	0.59398 0.39836 0.13240 -0.12700
C 	C 	0.66529 0.44798 0.16495 0.05200
C 	C 	0.74941 0.43502 0.17010 -0.12800
C 	C 	0.75912 0.37324 0.14240 0.07300
C 	C 	0.65318 0.51256 0.19556 0.08900
C 	C 	0.56832 0.58424 0.21909 0.10700
C 	C 	0.71528 0.61356 0.25285 0.10600
C 	C 	0.47793 0.59946 0.21850 0.05900
C 	C 	0.47541 0.66402 0.24670 -0.12100
C 	C 	0.38889 0.67558 0.24750 0.07100
C 	C 	0.31074 0.56548 0.19560 0.07300
C 	C 	0.39362 0.54964 0.19230 -0.12200
C 	C 	0.79380 0.66240 0.28910 0.06400
C 	C 	0.87531 0.64702 0.29570 -0.13200
C 	C 	0.94476 0.69432 0.33040 0.07600
C 	C 	0.85787 0.76934 0.34890 0.08200
C 	C 	0.78580 0.72500 0.31630 -0.12900
C 	C 	0.92910 0.91940 0.45600 0.06600
C 	C 	0.85901 0.93242 0.48216 -0.10900
C 	C 	0.80222 0.87664 0.50365 0.04900
C 	C 	0.81689 0.80898 0.49720 -0.11200
C 	C 	0.88664 0.79988 0.47010 0.06700
C 	C 	0.72832 0.88884 0.53260 0.09600
C 	C 	0.63799 0.95578 0.55753 0.09600
C 	C 	0.63322 0.85944 0.58790 0.10600
C 	C 	0.61168 0.02176 0.55788 0.05800
C 	C 	0.63101 0.05982 0.52400 -0.13500
C 	C 	0.60686 0.12212 0.52730 0.08600
C 	C 	0.54550 0.11040 0.59320 0.07800
C 	C 	0.56840 0.04780 0.59330 -0.12500
C 	C 	0.59231 0.80902 0.61950 0.08700
C 	C 	0.61350 0.74700 0.61970 -0.14200
C 	C 	0.57440 0.70180 0.64830 0.09300
C 	C 	0.48990 0.77180 0.67490 0.10300
C 	C 	0.52730 0.82100 0.64760 -0.14600
I 	I 	0.36979 0.21152 0.60282 -0.38200
I 	I 	0.50100 0.53336 0.70236 -0.38100
I 	I 	0.54055 0.75049 0.79955 -0.40200
I 	I 	0.55369 0.28062 0.49213 -0.36200
I 	I 	0.64698 0.75846 0.94709 -0.38000
I 	I 	0.81289 0.94480 0.87590 -0.35200
I 	I 	0.84173 0.21152 0.10282 -0.38300
I 	I 	0.03236 0.53336 0.20236 -0.38100
I 	I 	0.20994 0.75049 0.29955 -0.40200
I 	I 	0.72693 0.28062 0.99213 -0.36200
I 	I 	0.11148 0.75846 0.44709 -0.38100
I 	I 	0.13191 0.94480 0.37590 -0.35400
N 	N 	0.63502 0.32584 0.61018 -0.27700
N 	N 	0.82831 0.55402 0.72743 -0.14200
N 	N 	0.99264 0.63148 0.75028 -0.13700
N 	N 	0.95307 0.52494 0.68973 -0.14000
N 	N 	0.81871 0.75422 0.85694 -0.27500
N 	N 	0.31975 0.62810 0.72254 -0.27600
N 	N 	0.20033 0.71466 0.17750 -0.28600
N 	N 	0.24566 0.94352 0.02768 -0.14600
N 	N 	0.31260 0.91480 0.08808 -0.13400
N 	N 	0.14692 0.84484 0.06217 -0.13500
N 	N 	0.91159 0.85398 0.94945 -0.27000
N 	N 	0.58279 0.14778 0.06098 -0.28200
N 	N 	0.69082 0.32584 0.11018 -0.27700
N 	N 	0.72571 0.55402 0.22743 -0.14200
N 	N 	0.63884 0.63148 0.25028 -0.13700
N 	N 	0.57187 0.52494 0.18973 -0.14000
N 	N 	0.93551 0.75422 0.35694 -0.27500
N 	N 	0.30835 0.62810 0.22254 -0.27600
N 	N 	0.51433 0.71466 0.67750 -0.28600
N 	N 	0.69786 0.94352 0.52768 -0.14600
N 	N 	0.60220 0.91480 0.58808 -0.13400
N 	N 	0.69792 0.84484 0.56217 -0.13500
N 	N 	0.94239 0.85398 0.44945 -0.27000
N 	N 	0.56499 0.14778 0.56098 -0.28200
