data_crystal

_cell_length_a 14.80900
_cell_length_b 19.30080
_cell_length_c 31.84200
_cell_angle_alpha 101.76000
_cell_angle_beta  90.00000
_cell_angle_gamma 112.55900

_symmetry_space_group_name_	'P 1'
_symmetry_space_group_name_H-M	'P 1'

loop_
_symmetry_equiv_pos_as_xyz
  x,y,z

loop_
_atom_site_label
_atom_site_type_symbol
_atom_site_fract_x
_atom_site_fract_y
_atom_site_fract_z
_atom_site_charge
Zn	Zn	0.21590 0.25200 0.56284 1.16300
Zn	Zn	0.70745 0.67294 0.73189 1.16200
Zn	Zn	0.28250 0.82084 0.41934 1.16100
Zn	Zn	0.03610 0.25200 0.06284 1.16300
Zn	Zn	0.96549 0.67294 0.23189 1.16100
Zn	Zn	0.53834 0.82084 0.91934 1.16100
H 	H 	0.63190 0.97160 0.48360 0.06900
H 	H 	0.59360 0.74100 0.60340 0.08500
H 	H 	0.58580 0.67180 0.65570 -0.01000
H 	H 	0.34880 0.75960 0.48620 -0.01200
H 	H 	0.48920 0.77900 0.52790 0.07900
H 	H 	0.87630 0.87040 0.64650 0.08500
H 	H 	0.48730 0.94740 0.44450 -0.00700
H 	H 	0.51160 0.68280 0.84460 -0.01500
H 	H 	0.40020 0.60700 0.78560 0.08300
H 	H 	0.33370 0.78200 0.88860 -0.00300
H 	H 	0.91150 0.73500 0.77280 -0.01400
H 	H 	0.31490 0.47040 0.69430 0.09300
H 	H 	0.32890 0.37080 0.64400 -0.00300
H 	H 	0.07280 0.32480 0.58440 -0.00200
H 	H 	0.05020 0.70740 0.77310 0.08400
H 	H 	0.77300 0.54780 0.68370 -0.01300
H 	H 	0.04890 0.42000 0.63470 0.08000
H 	H 	0.21820 0.70940 0.83130 0.09500
H 	H 	0.90840 0.51700 0.68050 0.08100
H 	H 	0.89450 0.03800 0.49690 0.07800
H 	H 	0.96300 0.04880 0.62070 0.09000
H 	H 	0.10110 0.15740 0.62090 -0.01300
H 	H 	0.03670 0.14720 0.49980 -0.00300
H 	H 	0.85960 0.79720 0.69760 -0.02000
H 	H 	0.33970 0.97160 0.98360 0.07100
H 	H 	0.14740 0.74100 0.10340 0.08400
H 	H 	0.08600 0.67180 0.15570 -0.01000
H 	H 	0.41080 0.75960 0.98620 -0.01200
H 	H 	0.28980 0.77900 0.02790 0.07900
H 	H 	0.99410 0.87040 0.14650 0.07800
H 	H 	0.46010 0.94740 0.94450 -0.00700
H 	H 	0.17120 0.68280 0.34460 -0.01500
H 	H 	0.20680 0.60700 0.28560 0.08300
H 	H 	0.44830 0.78200 0.38860 -0.00300
H 	H 	0.82350 0.73500 0.27280 -0.01400
H 	H 	0.15550 0.47040 0.19430 0.09300
H 	H 	0.04190 0.37080 0.14400 -0.00300
H 	H 	0.25200 0.32480 0.08440 -0.00200
H 	H 	0.65720 0.70740 0.27310 0.08400
H 	H 	0.77480 0.54780 0.18370 -0.01300
H 	H 	0.37110 0.42000 0.13470 0.08000
H 	H 	0.49120 0.70940 0.33130 0.09500
H 	H 	0.60860 0.51700 0.18050 0.08100
H 	H 	0.14350 0.03800 0.99690 0.07800
H 	H 	0.08580 0.04880 0.12070 0.09000
H 	H 	0.05630 0.15740 0.12090 -0.01400
H 	H 	0.11050 0.14720 0.99980 -0.00400
H 	H 	0.93760 0.79720 0.19760 -0.01700
C 	C 	0.91521 0.03042 0.55801 0.05500
C 	C 	0.66700 0.88980 0.53604 0.09900
C 	C 	0.57635 0.87670 0.50985 0.05000
C 	C 	0.73921 0.86402 0.58906 0.10900
C 	C 	0.82529 0.96158 0.55810 0.09500
C 	C 	0.73409 0.81558 0.62053 0.06600
C 	C 	0.57460 0.92740 0.48468 -0.11200
C 	C 	0.64926 0.75472 0.62291 -0.11900
C 	C 	0.64555 0.71350 0.65411 0.07300
C 	C 	0.40732 0.80304 0.48570 0.06500
C 	C 	0.49096 0.81412 0.51059 -0.11300
C 	C 	0.81493 0.83046 0.64830 -0.12200
C 	C 	0.48838 0.91236 0.46135 0.06800
C 	C 	0.45120 0.68860 0.84154 0.07500
C 	C 	0.38506 0.64312 0.80632 -0.13000
C 	C 	0.34785 0.74630 0.86715 0.07300
C 	C 	0.91080 0.68960 0.75406 0.06600
C 	C 	0.26360 0.44060 0.67225 -0.12000
C 	C 	0.22498 0.60856 0.76429 0.09900
C 	C 	0.16719 0.51738 0.70310 0.09300
C 	C 	0.27183 0.38146 0.64192 0.06300
C 	C 	0.17972 0.45604 0.67021 0.04400
C 	C 	0.12212 0.35424 0.60737 0.06500
C 	C 	0.99384 0.60788 0.72723 0.06000
C 	C 	0.99361 0.67362 0.75441 -0.12000
C 	C 	0.08164 0.58908 0.72834 0.10600
C 	C 	0.83041 0.58082 0.70205 0.07600
C 	C 	0.29728 0.65116 0.80176 0.06200
C 	C 	0.10748 0.41136 0.63701 -0.11700
C 	C 	0.27860 0.70320 0.83312 -0.12400
C 	C 	0.91038 0.56176 0.70025 -0.12300
C 	C 	0.93681 0.06102 0.52263 -0.12300
C 	C 	0.97730 0.06780 0.59518 -0.11900
C 	C 	0.05932 0.13224 0.59501 0.07300
C 	C 	0.02169 0.12638 0.52471 0.06700
C 	C 	0.80440 0.78620 0.67850 0.08100
C 	C 	0.11521 0.03042 0.05801 0.05300
C 	C 	0.22280 0.88980 0.03604 0.09900
C 	C 	0.30035 0.87670 0.00985 0.05000
C 	C 	0.12481 0.86402 0.08906 0.11200
C 	C 	0.13629 0.96158 0.05810 0.09900
C 	C 	0.08149 0.81558 0.12053 0.06000
C 	C 	0.35280 0.92740 0.98468 -0.11200
C 	C 	0.10546 0.75472 0.12291 -0.11500
C 	C 	0.06795 0.71350 0.15411 0.07100
C 	C 	0.39572 0.80304 0.98570 0.06400
C 	C 	0.32316 0.81412 0.01059 -0.11300
C 	C 	0.01553 0.83046 0.14830 -0.10700
C 	C 	0.42398 0.91236 0.96135 0.06800
C 	C 	0.23740 0.68860 0.34154 0.07500
C 	C 	0.25806 0.64312 0.30632 -0.12900
C 	C 	0.39845 0.74630 0.36715 0.07300
C 	C 	0.77880 0.68960 0.25406 0.06600
C 	C 	0.17700 0.44060 0.17225 -0.12000
C 	C 	0.38358 0.60856 0.26429 0.09900
C 	C 	0.35019 0.51738 0.20310 0.09300
C 	C 	0.10963 0.38146 0.14192 0.06300
C 	C 	0.27632 0.45604 0.17021 0.04400
C 	C 	0.23212 0.35424 0.10737 0.06500
C 	C 	0.61404 0.60788 0.22723 0.05900
C 	C 	0.68001 0.67362 0.25441 -0.12000
C 	C 	0.50744 0.58908 0.22834 0.10600
C 	C 	0.75041 0.58082 0.20205 0.07600
C 	C 	0.35388 0.65116 0.30176 0.06200
C 	C 	0.30388 0.41136 0.13701 -0.11700
C 	C 	0.42460 0.70320 0.33312 -0.12400
C 	C 	0.65138 0.56176 0.20025 -0.12300
C 	C 	0.12421 0.06102 0.02263 -0.12700
C 	C 	0.09050 0.06780 0.09518 -0.12400
C 	C 	0.07292 0.13224 0.09501 0.07800
C 	C 	0.10469 0.12638 0.02471 0.07100
C 	C 	0.98180 0.78620 0.17850 0.07000
I 	I 	0.54822 0.55366 0.71115 -0.37700
I 	I 	0.33644 0.20996 0.59701 -0.38200
I 	I 	0.23051 0.29126 0.49103 -0.36600
I 	I 	0.13416 0.74972 0.45638 -0.38200
I 	I 	0.73088 0.76878 0.80285 -0.39800
I 	I 	0.31154 0.93432 0.38463 -0.34800
I 	I 	0.00544 0.55366 0.21115 -0.37500
I 	I 	0.87352 0.20996 0.09701 -0.38100
I 	I 	0.06075 0.29126 0.99103 -0.36700
I 	I 	0.61556 0.74972 0.95638 -0.38400
I 	I 	0.03790 0.76878 0.30285 -0.39500
I 	I 	0.62278 0.93432 0.88463 -0.35000
N 	N 	0.40633 0.85106 0.46122 -0.27000
N 	N 	0.75024 0.94588 0.52985 -0.14500
N 	N 	0.65717 0.84774 0.56521 -0.13700
N 	N 	0.82467 0.92174 0.58822 -0.13500
N 	N 	0.08318 0.16116 0.56033 -0.27300
N 	N 	0.72130 0.72920 0.68198 -0.27700
N 	N 	0.82933 0.64386 0.72845 -0.27300
N 	N 	0.08831 0.53342 0.69754 -0.13800
N 	N 	0.23733 0.55206 0.73583 -0.13900
N 	N 	0.20174 0.33828 0.60942 -0.27100
N 	N 	0.43341 0.74022 0.87132 -0.27100
N 	N 	0.14819 0.62878 0.76187 -0.13400
N 	N 	0.44473 0.85106 0.96122 -0.27000
N 	N 	0.19564 0.94588 0.02985 -0.14500
N 	N 	0.19057 0.84774 0.06521 -0.13700
N 	N 	0.09707 0.92174 0.08822 -0.13500
N 	N 	0.07798 0.16116 0.06033 -0.27500
N 	N 	0.00790 0.72920 0.18198 -0.27300
N 	N 	0.81453 0.64386 0.22845 -0.27300
N 	N 	0.44511 0.53342 0.19754 -0.13800
N 	N 	0.31473 0.55206 0.23583 -0.13900
N 	N 	0.13654 0.33828 0.10942 -0.27100
N 	N 	0.30681 0.74022 0.37132 -0.27100
N 	N 	0.48059 0.62878 0.26187 -0.13400
Zn	Zn	0.96390 0.74800 0.93716 1.16400
Zn	Zn	0.03451 0.32706 0.76811 1.16200
Zn	Zn	0.46166 0.17916 0.08066 1.16200
Zn	Zn	0.78410 0.74800 0.43716 1.16400
Zn	Zn	0.29255 0.32706 0.26811 1.16300
Zn	Zn	0.71750 0.17916 0.58066 1.16200
H 	H 	0.66030 0.02840 0.01640 0.07100
H 	H 	0.85260 0.25900 0.89660 0.08400
H 	H 	0.91400 0.32820 0.84430 -0.01000
H 	H 	0.58920 0.24040 0.01380 -0.01200
H 	H 	0.71020 0.22100 0.97210 0.07900
H 	H 	0.00590 0.12960 0.85350 0.07800
H 	H 	0.53990 0.05260 0.05550 -0.00700
H 	H 	0.82880 0.31720 0.65540 -0.01500
H 	H 	0.79320 0.39300 0.71440 0.08300
H 	H 	0.55170 0.21800 0.61140 -0.00300
H 	H 	0.17650 0.26500 0.72720 -0.01400
H 	H 	0.84450 0.52960 0.80570 0.09300
H 	H 	0.95810 0.62920 0.85600 -0.00300
H 	H 	0.74800 0.67520 0.91560 -0.00200
H 	H 	0.34280 0.29260 0.72690 0.08400
H 	H 	0.22520 0.45220 0.81630 -0.01300
H 	H 	0.62890 0.58000 0.86530 0.08000
H 	H 	0.50880 0.29060 0.66870 0.09500
H 	H 	0.39140 0.48300 0.81950 0.08100
H 	H 	0.85650 0.96200 0.00310 0.07800
H 	H 	0.91420 0.95120 0.87930 0.09000
H 	H 	0.94370 0.84260 0.87910 -0.01400
H 	H 	0.88950 0.85280 0.00020 -0.00400
H 	H 	0.06240 0.20280 0.80240 -0.01700
H 	H 	0.36810 0.02840 0.51640 0.07000
H 	H 	0.40640 0.25900 0.39660 0.08500
H 	H 	0.41420 0.32820 0.34430 -0.01000
H 	H 	0.65120 0.24040 0.51380 -0.01200
H 	H 	0.51080 0.22100 0.47210 0.07900
H 	H 	0.12370 0.12960 0.35350 0.08500
H 	H 	0.51270 0.05260 0.55550 -0.00700
H 	H 	0.48840 0.31720 0.15540 -0.01500
H 	H 	0.59980 0.39300 0.21440 0.08300
H 	H 	0.66630 0.21800 0.11140 -0.00300
H 	H 	0.08850 0.26500 0.22720 -0.01400
H 	H 	0.68510 0.52960 0.30570 0.09300
H 	H 	0.67110 0.62920 0.35600 -0.00300
H 	H 	0.92720 0.67520 0.41560 -0.00200
H 	H 	0.94980 0.29260 0.22690 0.08400
H 	H 	0.22700 0.45220 0.31630 -0.01300
H 	H 	0.95110 0.58000 0.36530 0.08000
H 	H 	0.78180 0.29060 0.16870 0.09500
H 	H 	0.09160 0.48300 0.31950 0.08100
H 	H 	0.10550 0.96200 0.50310 0.07800
H 	H 	0.03700 0.95120 0.37930 0.09000
H 	H 	0.89890 0.84260 0.37910 -0.01300
H 	H 	0.96330 0.85280 0.50020 -0.00300
H 	H 	0.14040 0.20280 0.30240 -0.02000
C 	C 	0.88479 0.96958 0.94199 0.05300
C 	C 	0.77720 0.11020 0.96396 0.09900
C 	C 	0.69965 0.12330 0.99015 0.05000
C 	C 	0.87519 0.13598 0.91094 0.11200
C 	C 	0.86371 0.03842 0.94190 0.09900
C 	C 	0.91851 0.18442 0.87947 0.06000
C 	C 	0.64720 0.07260 0.01532 -0.11200
C 	C 	0.89454 0.24528 0.87709 -0.11500
C 	C 	0.93205 0.28650 0.84589 0.07100
C 	C 	0.60428 0.19696 0.01430 0.06400
C 	C 	0.67684 0.18588 0.98941 -0.11300
C 	C 	0.98447 0.16954 0.85170 -0.10700
C 	C 	0.57602 0.08764 0.03865 0.06800
C 	C 	0.76260 0.31140 0.65846 0.07500
C 	C 	0.74194 0.35688 0.69368 -0.12900
C 	C 	0.60155 0.25370 0.63285 0.07300
C 	C 	0.22120 0.31040 0.74594 0.06600
C 	C 	0.82300 0.55940 0.82775 -0.12000
C 	C 	0.61642 0.39144 0.73571 0.09900
C 	C 	0.64981 0.48262 0.79690 0.09300
C 	C 	0.89037 0.61854 0.85808 0.06300
C 	C 	0.72368 0.54396 0.82979 0.04400
C 	C 	0.76788 0.64576 0.89263 0.06500
C 	C 	0.38596 0.39212 0.77277 0.05900
C 	C 	0.31999 0.32638 0.74559 -0.12000
C 	C 	0.49256 0.41092 0.77166 0.10600
C 	C 	0.24959 0.41918 0.79795 0.07600
C 	C 	0.64612 0.34884 0.69824 0.06200
C 	C 	0.69612 0.58864 0.86299 -0.11700
C 	C 	0.57540 0.29680 0.66688 -0.12400
C 	C 	0.34862 0.43824 0.79975 -0.12300
C 	C 	0.87579 0.93898 0.97737 -0.12700
C 	C 	0.90950 0.93220 0.90482 -0.12400
C 	C 	0.92708 0.86776 0.90499 0.07800
C 	C 	0.89531 0.87362 0.97529 0.07100
C 	C 	0.01820 0.21380 0.82150 0.07000
C 	C 	0.08479 0.96958 0.44199 0.05500
C 	C 	0.33300 0.11020 0.46396 0.09900
C 	C 	0.42365 0.12330 0.49015 0.05000
C 	C 	0.26079 0.13598 0.41094 0.10900
C 	C 	0.17471 0.03842 0.44190 0.09500
C 	C 	0.26591 0.18442 0.37947 0.06600
C 	C 	0.42540 0.07260 0.51532 -0.11200
C 	C 	0.35074 0.24528 0.37709 -0.11900
C 	C 	0.35445 0.28650 0.34589 0.07300
C 	C 	0.59268 0.19696 0.51430 0.06500
C 	C 	0.50904 0.18588 0.48941 -0.11300
C 	C 	0.18507 0.16954 0.35170 -0.12200
C 	C 	0.51162 0.08764 0.53865 0.06800
C 	C 	0.54880 0.31140 0.15846 0.07500
C 	C 	0.61494 0.35688 0.19368 -0.13000
C 	C 	0.65215 0.25370 0.13285 0.07300
C 	C 	0.08920 0.31040 0.24594 0.06600
C 	C 	0.73640 0.55940 0.32775 -0.12000
C 	C 	0.77502 0.39144 0.23571 0.09900
C 	C 	0.83281 0.48262 0.29690 0.09300
C 	C 	0.72817 0.61854 0.35808 0.06300
C 	C 	0.82028 0.54396 0.32979 0.04400
C 	C 	0.87788 0.64576 0.39263 0.06500
C 	C 	0.00616 0.39212 0.27277 0.06000
C 	C 	0.00639 0.32638 0.24559 -0.12000
C 	C 	0.91836 0.41092 0.27166 0.10600
C 	C 	0.16959 0.41918 0.29795 0.07600
C 	C 	0.70272 0.34884 0.19824 0.06200
C 	C 	0.89252 0.58864 0.36299 -0.11700
C 	C 	0.72140 0.29680 0.16688 -0.12400
C 	C 	0.08962 0.43824 0.29975 -0.12300
C 	C 	0.06319 0.93898 0.47737 -0.12300
C 	C 	0.02270 0.93220 0.40482 -0.11900
C 	C 	0.94068 0.86776 0.40499 0.07300
C 	C 	0.97831 0.87362 0.47529 0.06700
C 	C 	0.19560 0.21380 0.32150 0.08100
I 	I 	0.99456 0.44634 0.78885 -0.37500
I 	I 	0.12648 0.79004 0.90300 -0.38100
I 	I 	0.93925 0.70874 0.00897 -0.36700
I 	I 	0.38444 0.25028 0.04362 -0.38400
I 	I 	0.96210 0.23122 0.69715 -0.39500
I 	I 	0.37722 0.06568 0.11537 -0.35000
I 	I 	0.45178 0.44634 0.28885 -0.37700
I 	I 	0.66356 0.79004 0.40300 -0.38200
I 	I 	0.76949 0.70874 0.50897 -0.36600
I 	I 	0.86584 0.25028 0.54362 -0.38200
I 	I 	0.26912 0.23122 0.19715 -0.39800
I 	I 	0.68846 0.06568 0.61537 -0.34900
N 	N 	0.55527 0.14894 0.03878 -0.27000
N 	N 	0.80436 0.05412 0.97015 -0.14500
N 	N 	0.80943 0.15226 0.93479 -0.13700
N 	N 	0.90293 0.07826 0.91178 -0.13500
N 	N 	0.92202 0.83884 0.93967 -0.27500
N 	N 	0.99210 0.27080 0.81802 -0.27300
N 	N 	0.18547 0.35614 0.77155 -0.27300
N 	N 	0.55489 0.46658 0.80246 -0.13800
N 	N 	0.68527 0.44794 0.76417 -0.13900
N 	N 	0.86346 0.66172 0.89058 -0.27100
N 	N 	0.69319 0.25978 0.62868 -0.27100
N 	N 	0.51941 0.37122 0.73813 -0.13400
N 	N 	0.59367 0.14894 0.53878 -0.27000
N 	N 	0.24976 0.05412 0.47015 -0.14500
N 	N 	0.34283 0.15226 0.43479 -0.13700
N 	N 	0.17533 0.07826 0.41178 -0.13500
N 	N 	0.91682 0.83884 0.43967 -0.27300
N 	N 	0.27870 0.27080 0.31802 -0.27700
N 	N 	0.17067 0.35614 0.27155 -0.27300
N 	N 	0.91169 0.46658 0.30246 -0.13800
N 	N 	0.76267 0.44794 0.26417 -0.13900
N 	N 	0.79826 0.66172 0.39058 -0.27100
N 	N 	0.56659 0.25978 0.12868 -0.27100
N 	N 	0.85181 0.37122 0.23813 -0.13400
