data_crystal

_cell_length_a 10.72500
_cell_length_b 13.33100
_cell_length_c 15.26140
_cell_angle_alpha 65.64100
_cell_angle_beta  86.00400
_cell_angle_gamma 74.00700

_symmetry_space_group_name_	'P 1'
_symmetry_space_group_name_H-M	'P 1'

loop_
_symmetry_equiv_pos_as_xyz
  x,y,z

loop_
_atom_site_label
_atom_site_type_symbol
_atom_site_fract_x
_atom_site_fract_y
_atom_site_fract_z
_atom_site_charge
Co	Co	0.12862 0.01340 0.58857 1.17100
Co	Co	0.87138 0.98660 0.41143 1.17100
H 	H 	0.21170 0.75210 0.69780 -0.00300
H 	H 	0.14150 0.59980 0.80200 0.09300
H 	H 	0.80210 0.81610 0.80180 0.09300
H 	H 	0.87790 0.96640 0.69600 0.00000
H 	H 	0.97040 0.51770 0.90330 0.04800
H 	H 	0.84940 0.39640 0.92580 0.07100
H 	H 	0.75450 0.25070 0.03130 0.03000
H 	H 	0.61350 0.28380 0.14130 0.07600
H 	H 	0.43650 0.58770 0.22300 0.07300
H 	H 	0.51280 0.73550 0.11100 0.02800
H 	H 	0.65810 0.70400 0.00460 0.06400
H 	H 	0.30730 0.47030 0.23110 0.04900
H 	H 	0.46050 0.16900 0.35370 0.11600
H 	H 	0.37370 0.03860 0.47550 -0.00000
H 	H 	0.06200 0.27690 0.46530 -0.00200
H 	H 	0.14070 0.41350 0.34750 0.09100
H 	H 	0.50960 0.92350 0.78160 0.02900
H 	H 	0.61880 0.92330 0.90600 0.06300
H 	H 	0.28650 0.08190 0.98220 0.06200
H 	H 	0.17810 0.08030 0.85410 0.03700
H 	H 	0.44780 0.39600 0.43330 0.07500
H 	H 	0.60040 0.23500 0.44120 0.02400
H 	H 	0.84470 0.29400 0.58550 0.02300
H 	H 	0.68940 0.45730 0.57810 0.06900
H 	H 	0.78830 0.24790 0.30220 -0.00300
H 	H 	0.85850 0.40020 0.19800 0.09300
H 	H 	0.19790 0.18390 0.19820 0.09300
H 	H 	0.12210 0.03360 0.30400 0.00000
H 	H 	0.02960 0.48230 0.09670 0.04800
H 	H 	0.15060 0.60360 0.07420 0.07100
H 	H 	0.24550 0.74930 0.96870 0.03000
H 	H 	0.38650 0.71620 0.85870 0.07600
H 	H 	0.56350 0.41230 0.77700 0.07300
H 	H 	0.48720 0.26450 0.88900 0.02800
H 	H 	0.34190 0.29600 0.99540 0.06400
H 	H 	0.69270 0.52970 0.76890 0.04900
H 	H 	0.53950 0.83100 0.64630 0.11600
H 	H 	0.62630 0.96140 0.52450 -0.00000
H 	H 	0.93800 0.72310 0.53470 -0.00200
H 	H 	0.85930 0.58650 0.65250 0.09100
H 	H 	0.49040 0.07650 0.21840 0.02900
H 	H 	0.38120 0.07670 0.09400 0.06300
H 	H 	0.71350 0.91810 0.01780 0.06200
H 	H 	0.82190 0.91970 0.14590 0.03700
H 	H 	0.55220 0.60400 0.56670 0.07500
H 	H 	0.39960 0.76500 0.55880 0.02400
H 	H 	0.15530 0.70600 0.41450 0.02300
H 	H 	0.31060 0.54270 0.42190 0.06900
C 	C 	0.12780 0.76560 0.71900 0.09700
C 	C 	0.08620 0.67340 0.78160 -0.16400
C 	C 	0.96210 0.69070 0.81380 0.10900
C 	C 	0.88610 0.80130 0.78110 -0.15500
C 	C 	0.93190 0.89210 0.71760 0.07700
C 	C 	0.91570 0.59160 0.88190 -0.04200
C 	C 	0.75500 0.51670 0.97360 0.07500
C 	C 	0.79000 0.41040 0.96950 -0.11100
C 	C 	0.73280 0.32170 0.03420 0.01500
C 	C 	0.64780 0.34200 0.09890 -0.08100
C 	C 	0.61110 0.44790 0.10300 0.00700
C 	C 	0.52180 0.47200 0.17070 0.07200
C 	C 	0.49040 0.57550 0.17580 -0.11300
C 	C 	0.53930 0.66330 0.11010 0.01500
C 	C 	0.62390 0.64510 0.04580 -0.07800
C 	C 	0.66230 0.53750 0.03950 -0.00200
C 	C 	0.36190 0.39680 0.26170 -0.04200
C 	C 	0.31020 0.30730 0.33760 0.12100
C 	C 	0.37970 0.19300 0.37590 -0.17900
C 	C 	0.32560 0.11490 0.44830 0.10500
C 	C 	0.14320 0.25490 0.44270 0.10100
C 	C 	0.18990 0.33750 0.37200 -0.17800
C 	C 	0.33440 0.99690 0.80530 -0.10600
C 	C 	0.46220 0.95470 0.82210 0.03800
C 	C 	0.52930 0.95480 0.89760 -0.10600
C 	C 	0.46560 0.00040 0.95910 0.03900
C 	C 	0.33300 0.04860 0.94270 -0.10000
C 	C 	0.26720 0.04710 0.86500 0.02200
C 	C 	0.54960 0.44860 0.50240 0.04900
C 	C 	0.52810 0.37710 0.46400 -0.12100
C 	C 	0.61940 0.27990 0.46890 0.06600
C 	C 	0.73820 0.24850 0.51440 -0.14700
C 	C 	0.76420 0.31450 0.55440 0.06200
C 	C 	0.67040 0.41360 0.54930 -0.11900
C 	C 	0.26460 0.99970 0.72340 0.33400
C 	C 	0.83930 0.14300 0.51780 0.41300
C 	C 	0.87220 0.23440 0.28100 0.09700
C 	C 	0.91380 0.32660 0.21840 -0.16400
C 	C 	0.03790 0.30930 0.18620 0.10900
C 	C 	0.11390 0.19870 0.21890 -0.15500
C 	C 	0.06810 0.10790 0.28240 0.07700
C 	C 	0.08430 0.40840 0.11810 -0.04200
C 	C 	0.24500 0.48330 0.02640 0.07500
C 	C 	0.21000 0.58960 0.03050 -0.11100
C 	C 	0.26720 0.67830 0.96580 0.01500
C 	C 	0.35220 0.65800 0.90110 -0.08100
C 	C 	0.38890 0.55210 0.89700 0.00700
C 	C 	0.47820 0.52800 0.82930 0.07200
C 	C 	0.50960 0.42450 0.82420 -0.11300
C 	C 	0.46070 0.33670 0.88990 0.01500
C 	C 	0.37610 0.35490 0.95420 -0.07800
C 	C 	0.33770 0.46250 0.96050 -0.00200
C 	C 	0.63810 0.60320 0.73830 -0.04200
C 	C 	0.68980 0.69270 0.66240 0.12100
C 	C 	0.62030 0.80700 0.62410 -0.17900
C 	C 	0.67440 0.88510 0.55170 0.10500
C 	C 	0.85680 0.74510 0.55730 0.10100
C 	C 	0.81010 0.66250 0.62800 -0.17800
C 	C 	0.66560 0.00310 0.19470 -0.10600
C 	C 	0.53780 0.04530 0.17790 0.03800
C 	C 	0.47070 0.04520 0.10240 -0.10600
C 	C 	0.53440 0.99960 0.04090 0.03900
C 	C 	0.66700 0.95140 0.05730 -0.10000
C 	C 	0.73280 0.95290 0.13500 0.02200
C 	C 	0.45040 0.55140 0.49760 0.04900
C 	C 	0.47190 0.62290 0.53600 -0.12100
C 	C 	0.38060 0.72010 0.53110 0.06600
C 	C 	0.26180 0.75150 0.48560 -0.14700
C 	C 	0.23580 0.68550 0.44560 0.06200
C 	C 	0.32960 0.58640 0.45070 -0.11900
C 	C 	0.73540 0.00030 0.27660 0.33400
C 	C 	0.16070 0.85700 0.48220 0.41300
N 	N 	0.05360 0.87360 0.68710 -0.22600
N 	N 	0.79940 0.60960 0.91040 -0.11300
N 	N 	0.47810 0.37550 0.23780 -0.10700
N 	N 	0.20880 0.14370 0.48080 -0.22900
N 	N 	0.94640 0.12640 0.31290 -0.22600
N 	N 	0.20060 0.39040 0.08960 -0.11300
N 	N 	0.52190 0.62450 0.76220 -0.10700
N 	N 	0.79120 0.85630 0.51920 -0.22900
O 	O 	0.31540 0.94610 0.67680 -0.38100
O 	O 	0.14650 0.05960 0.70410 -0.38300
O 	O 	0.95140 0.12740 0.54910 -0.45300
O 	O 	0.80490 0.07940 0.48820 -0.46100
O 	O 	0.68460 0.05390 0.32320 -0.38100
O 	O 	0.85350 0.94040 0.29590 -0.38300
O 	O 	0.04860 0.87260 0.45090 -0.45300
O 	O 	0.19510 0.92060 0.51180 -0.46100
