data_crystal

_cell_length_a 11.23630
_cell_length_b 11.23630
_cell_length_c 20.93200
_cell_angle_alpha 95.52650
_cell_angle_beta  95.52650
_cell_angle_gamma 106.97700

_symmetry_space_group_name_	'P 1'
_symmetry_space_group_name_H-M	'P 1'

loop_
_symmetry_equiv_pos_as_xyz
  x,y,z

loop_
_atom_site_label
_atom_site_type_symbol
_atom_site_fract_x
_atom_site_fract_y
_atom_site_fract_z
_atom_site_charge
Co	Co	0.51029 0.02373 0.80839 1.12400
Co	Co	0.97627 0.48971 0.69161 1.12400
Co	Co	0.48971 0.97627 0.19161 1.12400
Co	Co	0.02373 0.51029 0.30839 1.12400
Co	Co	0.75194 0.24806 0.75000 1.19800
Co	Co	0.24806 0.75194 0.25000 1.19800
H 	H 	0.73360 0.51940 0.90410 0.04100
H 	H 	0.72300 0.65560 0.99050 0.06300
H 	H 	0.39780 0.28780 0.92240 0.04800
H 	H 	0.65360 0.04800 0.60920 0.06100
H 	H 	0.74210 0.02730 0.50550 0.06800
H 	H 	0.28420 0.99660 0.60570 0.04100
H 	H 	0.01230 0.23770 0.53040 0.04300
H 	H 	0.07220 0.17240 0.42340 0.05100
H 	H 	0.89200 0.97880 0.64680 0.03900
H 	H 	0.48060 0.26640 0.59590 0.04100
H 	H 	0.34440 0.27700 0.50950 0.06300
H 	H 	0.71220 0.60220 0.57760 0.04800
H 	H 	0.95200 0.34640 0.89080 0.06000
H 	H 	0.97270 0.25790 0.99450 0.06200
H 	H 	0.00340 0.71580 0.89430 0.04500
H 	H 	0.76230 0.98770 0.96960 0.04600
H 	H 	0.82760 0.92780 0.07660 0.05200
H 	H 	0.02120 0.10800 0.85320 0.03900
H 	H 	0.26640 0.48060 0.09590 0.04100
H 	H 	0.27700 0.34440 0.00950 0.06300
H 	H 	0.60220 0.71220 0.07760 0.04800
H 	H 	0.34640 0.95200 0.39080 0.06100
H 	H 	0.25790 0.97270 0.49450 0.06800
H 	H 	0.71580 0.00340 0.39430 0.04100
H 	H 	0.98770 0.76230 0.46960 0.04300
H 	H 	0.92780 0.82760 0.57660 0.05100
H 	H 	0.10800 0.02120 0.35320 0.03900
H 	H 	0.51940 0.73360 0.40410 0.04100
H 	H 	0.65560 0.72300 0.49050 0.06300
H 	H 	0.28780 0.39780 0.42240 0.04800
H 	H 	0.04800 0.65360 0.10920 0.06000
H 	H 	0.02730 0.74210 0.00550 0.06200
H 	H 	0.99660 0.28420 0.10570 0.04500
H 	H 	0.23770 0.01230 0.03040 0.04600
H 	H 	0.17240 0.07220 0.92340 0.05200
H 	H 	0.97880 0.89200 0.14680 0.03900
C 	C 	0.57850 0.29610 0.85070 0.38500
C 	C 	0.56640 0.38960 0.90510 -0.09200
C 	C 	0.66330 0.50050 0.92580 0.01600
C 	C 	0.65690 0.58230 0.97730 -0.09500
C 	C 	0.54950 0.55550 0.01070 0.02000
C 	C 	0.46220 0.36200 0.93620 -0.03700
C 	C 	0.48720 0.03620 0.69010 0.32400
C 	C 	0.47350 0.02650 0.61820 -0.07900
C 	C 	0.57440 0.03140 0.58590 -0.04600
C 	C 	0.56000 0.01140 0.51750 0.02800
C 	C 	0.66290 0.01430 0.48290 -0.09100
C 	C 	0.35300 0.00180 0.58350 0.00200
C 	C 	0.91480 0.22120 0.64010 0.36900
C 	C 	0.94600 0.12320 0.59440 -0.08600
C 	C 	0.99260 0.15480 0.53870 -0.03500
C 	C 	0.01170 0.06190 0.49260 0.01500
C 	C 	0.05660 0.09100 0.43370 -0.09000
C 	C 	0.92250 0.99970 0.60830 0.00400
C 	C 	0.70390 0.42150 0.64930 0.38500
C 	C 	0.61040 0.43360 0.59490 -0.09200
C 	C 	0.49950 0.33670 0.57420 0.01600
C 	C 	0.41770 0.34310 0.52270 -0.09500
C 	C 	0.44450 0.45050 0.48930 0.02000
C 	C 	0.63800 0.53780 0.56380 -0.03700
C 	C 	0.96380 0.51280 0.80990 0.32200
C 	C 	0.97350 0.52650 0.88180 -0.07600
C 	C 	0.96860 0.42560 0.91410 -0.04600
C 	C 	0.98860 0.44000 0.98250 0.02300
C 	C 	0.98570 0.33710 0.01710 -0.07800
C 	C 	0.99820 0.64700 0.91650 -0.00800
C 	C 	0.77880 0.08520 0.85990 0.36900
C 	C 	0.87680 0.05400 0.90560 -0.08500
C 	C 	0.84520 0.00740 0.96130 -0.04000
C 	C 	0.93810 0.98830 0.00740 0.01700
C 	C 	0.90900 0.94340 0.06630 -0.09100
C 	C 	0.00030 0.07750 0.89170 0.00600
C 	C 	0.42150 0.70390 0.14930 0.38500
C 	C 	0.43360 0.61040 0.09490 -0.09200
C 	C 	0.33670 0.49950 0.07420 0.01600
C 	C 	0.34310 0.41770 0.02270 -0.09500
C 	C 	0.45050 0.44450 0.98930 0.02000
C 	C 	0.53780 0.63800 0.06380 -0.03700
C 	C 	0.51280 0.96380 0.30990 0.32400
C 	C 	0.52650 0.97350 0.38180 -0.07900
C 	C 	0.42560 0.96860 0.41410 -0.04600
C 	C 	0.44000 0.98860 0.48250 0.02800
C 	C 	0.33710 0.98570 0.51710 -0.09100
C 	C 	0.64700 0.99820 0.41650 0.00200
C 	C 	0.08520 0.77880 0.35990 0.36900
C 	C 	0.05400 0.87680 0.40560 -0.08600
C 	C 	0.00740 0.84520 0.46130 -0.03500
C 	C 	0.98830 0.93810 0.50740 0.01500
C 	C 	0.94340 0.90900 0.56630 -0.09000
C 	C 	0.07750 0.00030 0.39170 0.00400
C 	C 	0.29610 0.57850 0.35070 0.38500
C 	C 	0.38960 0.56640 0.40510 -0.09200
C 	C 	0.50050 0.66330 0.42580 0.01600
C 	C 	0.58230 0.65690 0.47730 -0.09500
C 	C 	0.55550 0.54950 0.51070 0.02000
C 	C 	0.36200 0.46220 0.43620 -0.03700
C 	C 	0.03620 0.48720 0.19010 0.32200
C 	C 	0.02650 0.47350 0.11820 -0.07600
C 	C 	0.03140 0.57440 0.08590 -0.04600
C 	C 	0.01140 0.56000 0.01750 0.02300
C 	C 	0.01430 0.66290 0.98290 -0.07800
C 	C 	0.00180 0.35300 0.08350 -0.00800
C 	C 	0.22120 0.91480 0.14010 0.36900
C 	C 	0.12320 0.94600 0.09440 -0.08500
C 	C 	0.15480 0.99260 0.03870 -0.04000
C 	C 	0.06190 0.01170 0.99260 0.01700
C 	C 	0.09100 0.05660 0.93370 -0.09100
C 	C 	0.99970 0.92250 0.10830 0.00600
O 	O 	0.49420 0.19320 0.84056 -0.46000
O 	O 	0.67254 0.32986 0.82152 -0.42500
O 	O 	0.59562 0.08178 0.72338 -0.50300
O 	O 	0.39207 0.99513 0.71767 -0.41500
O 	O 	0.85205 0.17735 0.68424 -0.41300
O 	O 	0.95270 0.33230 0.62986 -0.47400
O 	O 	0.80680 0.50580 0.65944 -0.46000
O 	O 	0.67014 0.32746 0.67848 -0.42500
O 	O 	0.91822 0.40438 0.77662 -0.50300
O 	O 	0.00487 0.60793 0.78233 -0.41400
O 	O 	0.82265 0.14795 0.81576 -0.41300
O 	O 	0.66770 0.04730 0.87014 -0.47400
O 	O 	0.50580 0.80680 0.15944 -0.46000
O 	O 	0.32746 0.67014 0.17848 -0.42500
O 	O 	0.40438 0.91822 0.27662 -0.50300
O 	O 	0.60793 0.00487 0.28233 -0.41500
O 	O 	0.14795 0.82265 0.31576 -0.41300
O 	O 	0.04730 0.66770 0.37014 -0.47400
O 	O 	0.19320 0.49420 0.34056 -0.46000
O 	O 	0.32986 0.67254 0.32152 -0.42500
O 	O 	0.08178 0.59562 0.22338 -0.50300
O 	O 	0.99513 0.39207 0.21767 -0.41400
O 	O 	0.17735 0.85205 0.18424 -0.41300
O 	O 	0.33230 0.95270 0.12986 -0.47400
