data_crystal

_cell_length_a 11.22000
_cell_length_b 11.22000
_cell_length_c 21.14900
_cell_angle_alpha 95.73290
_cell_angle_beta  95.73290
_cell_angle_gamma 107.10700

_symmetry_space_group_name_	'P 1'
_symmetry_space_group_name_H-M	'P 1'

loop_
_symmetry_equiv_pos_as_xyz
  x,y,z

loop_
_atom_site_label
_atom_site_type_symbol
_atom_site_fract_x
_atom_site_fract_y
_atom_site_fract_z
_atom_site_charge
Co	Co	0.01988 0.50526 0.80707 1.11600
Co	Co	0.49474 0.98012 0.69293 1.11600
Co	Co	0.98012 0.49474 0.19293 1.11600
Co	Co	0.50526 0.01988 0.30707 1.11600
Co	Co	0.24716 0.75284 0.75000 1.18300
Co	Co	0.75284 0.24716 0.25000 1.18300
H 	H 	0.04840 0.65200 0.60910 0.05800
H 	H 	0.03060 0.74320 0.50640 0.07000
H 	H 	0.00620 0.71920 0.39690 0.03600
H 	H 	0.23830 0.01010 0.52950 0.04300
H 	H 	0.17020 0.06480 0.42280 0.05400
H 	H 	0.51870 0.73350 0.90540 0.04100
H 	H 	0.28570 0.39510 0.92300 0.04800
H 	H 	0.34300 0.27780 0.00970 0.06300
H 	H 	0.98200 0.90060 0.64700 0.03300
H 	H 	0.34800 0.95160 0.89090 0.05700
H 	H 	0.25680 0.96940 0.99360 0.06600
H 	H 	0.28080 0.99380 0.10310 0.03700
H 	H 	0.98990 0.76170 0.97050 0.04500
H 	H 	0.93520 0.82980 0.07720 0.05300
H 	H 	0.26650 0.48130 0.59460 0.04100
H 	H 	0.60490 0.71430 0.57700 0.04800
H 	H 	0.72220 0.65700 0.49030 0.06300
H 	H 	0.09940 0.01800 0.85300 0.03600
H 	H 	0.95160 0.34800 0.39090 0.05800
H 	H 	0.96940 0.25680 0.49360 0.07000
H 	H 	0.99380 0.28080 0.60310 0.03600
H 	H 	0.76170 0.98990 0.47050 0.04300
H 	H 	0.82980 0.93520 0.57720 0.05400
H 	H 	0.48130 0.26650 0.09460 0.04100
H 	H 	0.71430 0.60490 0.07700 0.04800
H 	H 	0.65700 0.72220 0.99030 0.06300
H 	H 	0.01800 0.09940 0.35300 0.03300
H 	H 	0.65200 0.04840 0.10910 0.05700
H 	H 	0.74320 0.03060 0.00640 0.06600
H 	H 	0.71920 0.00620 0.89690 0.03700
H 	H 	0.01010 0.23830 0.02950 0.04500
H 	H 	0.06480 0.17020 0.92280 0.05300
H 	H 	0.73350 0.51870 0.40540 0.04100
H 	H 	0.39510 0.28570 0.42300 0.04800
H 	H 	0.27780 0.34300 0.50970 0.06300
H 	H 	0.90060 0.98200 0.14700 0.03600
C 	C 	0.01140 0.56040 0.51773 0.02800
C 	C 	0.03070 0.57290 0.58549 -0.04200
C 	C 	0.03390 0.48350 0.68820 0.33200
C 	C 	0.01630 0.66390 0.48370 -0.09700
C 	C 	0.02370 0.47130 0.61675 -0.08600
C 	C 	0.00080 0.64980 0.41835 0.01200
C 	C 	0.06170 0.01250 0.49200 0.01600
C 	C 	0.22260 0.92080 0.64003 0.36600
C 	C 	0.15590 0.99310 0.53830 -0.03100
C 	C 	0.12640 0.95100 0.59390 -0.09400
C 	C 	0.08950 0.05170 0.43350 -0.09800
C 	C 	0.44410 0.45070 0.98987 0.02000
C 	C 	0.50020 0.66300 0.92670 0.01400
C 	C 	0.38750 0.56490 0.90634 -0.09100
C 	C 	0.35980 0.46040 0.93689 -0.03700
C 	C 	0.29440 0.57680 0.85160 0.38700
C 	C 	0.41720 0.34360 0.02270 -0.09400
C 	C 	0.00200 0.92880 0.60840 0.01700
C 	C 	0.43960 0.98860 0.98227 0.02400
C 	C 	0.42710 0.96930 0.91451 -0.04100
C 	C 	0.51650 0.96610 0.81180 0.33100
C 	C 	0.33610 0.98370 0.01630 -0.08800
C 	C 	0.52870 0.97630 0.88325 -0.08600
C 	C 	0.35020 0.99920 0.08165 0.01000
C 	C 	0.98750 0.93830 0.00800 0.01800
C 	C 	0.07920 0.77740 0.85997 0.36500
C 	C 	0.00690 0.84410 0.96170 -0.03700
C 	C 	0.04900 0.87360 0.90610 -0.09000
C 	C 	0.94830 0.91050 0.06650 -0.09500
C 	C 	0.54930 0.55590 0.51013 0.02000
C 	C 	0.33700 0.49980 0.57330 0.01400
C 	C 	0.43510 0.61250 0.59366 -0.09100
C 	C 	0.53960 0.64020 0.56311 -0.03700
C 	C 	0.42320 0.70560 0.64840 0.38700
C 	C 	0.65640 0.58280 0.47730 -0.09400
C 	C 	0.07120 0.99800 0.89160 0.01100
C 	C 	0.98860 0.43960 0.48227 0.02800
C 	C 	0.96930 0.42710 0.41451 -0.04200
C 	C 	0.96610 0.51650 0.31180 0.33200
C 	C 	0.98370 0.33610 0.51630 -0.09700
C 	C 	0.97630 0.52870 0.38325 -0.08600
C 	C 	0.99920 0.35020 0.58165 0.01200
C 	C 	0.93830 0.98750 0.50800 0.01600
C 	C 	0.77740 0.07920 0.35997 0.36600
C 	C 	0.84410 0.00690 0.46170 -0.03100
C 	C 	0.87360 0.04900 0.40610 -0.09400
C 	C 	0.91050 0.94830 0.56650 -0.09800
C 	C 	0.55590 0.54930 0.01013 0.02000
C 	C 	0.49980 0.33700 0.07330 0.01400
C 	C 	0.61250 0.43510 0.09366 -0.09100
C 	C 	0.64020 0.53960 0.06311 -0.03700
C 	C 	0.70560 0.42320 0.14840 0.38700
C 	C 	0.58280 0.65640 0.97730 -0.09400
C 	C 	0.99800 0.07120 0.39160 0.01700
C 	C 	0.56040 0.01140 0.01773 0.02400
C 	C 	0.57290 0.03070 0.08549 -0.04100
C 	C 	0.48350 0.03390 0.18820 0.33100
C 	C 	0.66390 0.01630 0.98370 -0.08800
C 	C 	0.47130 0.02370 0.11675 -0.08600
C 	C 	0.64980 0.00080 0.91835 0.01000
C 	C 	0.01250 0.06170 0.99200 0.01800
C 	C 	0.92080 0.22260 0.14003 0.36500
C 	C 	0.99310 0.15590 0.03830 -0.03700
C 	C 	0.95100 0.12640 0.09390 -0.09000
C 	C 	0.05170 0.08950 0.93350 -0.09500
C 	C 	0.45070 0.44410 0.48987 0.02000
C 	C 	0.66300 0.50020 0.42670 0.01400
C 	C 	0.56490 0.38750 0.40634 -0.09100
C 	C 	0.46040 0.35980 0.43689 -0.03700
C 	C 	0.57680 0.29440 0.35160 0.38700
C 	C 	0.34360 0.41720 0.52270 -0.09400
C 	C 	0.92880 0.00200 0.10840 0.01100
O 	O 	0.07760 0.59220 0.72111 -0.49900
O 	O 	0.18157 0.86063 0.68366 -0.41500
O 	O 	0.99421 0.38819 0.71490 -0.41600
O 	O 	0.19065 0.49115 0.84102 -0.45900
O 	O 	0.32825 0.66855 0.82247 -0.42500
O 	O 	0.33700 0.95960 0.63034 -0.46200
O 	O 	0.40780 0.92240 0.77889 -0.49900
O 	O 	0.13937 0.81843 0.81634 -0.41500
O 	O 	0.61181 0.00579 0.78510 -0.41500
O 	O 	0.50885 0.80935 0.65898 -0.45800
O 	O 	0.33145 0.67175 0.67753 -0.42500
O 	O 	0.04040 0.66300 0.86966 -0.46200
O 	O 	0.92240 0.40780 0.27889 -0.49900
O 	O 	0.81843 0.13937 0.31634 -0.41500
O 	O 	0.00579 0.61181 0.28510 -0.41600
O 	O 	0.80935 0.50885 0.15898 -0.45900
O 	O 	0.67175 0.33145 0.17753 -0.42500
O 	O 	0.66300 0.04040 0.36966 -0.46200
O 	O 	0.59220 0.07760 0.22111 -0.49900
O 	O 	0.86063 0.18157 0.18366 -0.41500
O 	O 	0.38819 0.99421 0.21490 -0.41500
O 	O 	0.49115 0.19065 0.34102 -0.45800
O 	O 	0.66855 0.32825 0.32247 -0.42500
O 	O 	0.95960 0.33700 0.13034 -0.46200
