data_crystal

_cell_length_a 14.12390
_cell_length_b 18.32430
_cell_length_c 20.66570
_cell_angle_alpha 90.00000
_cell_angle_beta  99.12180
_cell_angle_gamma 90.00000

_symmetry_space_group_name_	'P 1'
_symmetry_space_group_name_H-M	'P 1'

loop_
_symmetry_equiv_pos_as_xyz
  x,y,z

loop_
_atom_site_label
_atom_site_type_symbol
_atom_site_fract_x
_atom_site_fract_y
_atom_site_fract_z
_atom_site_charge
Co	Co	0.72019 0.24478 0.18762 1.12600
O 	O 	0.64482 0.15394 0.15693 -0.45600
O 	O 	0.49567 0.17310 0.17739 -0.42300
O 	O 	0.63255 0.31251 0.12935 -0.47200
O 	O 	0.50864 0.33448 0.18260 -0.42300
O 	O 	0.78847 0.19329 0.27725 -0.40000
O 	O 	0.65484 0.25612 0.27448 -0.49700
C 	C 	0.55600 0.14399 0.14751 0.38300
C 	C 	0.51880 0.09102 0.09291 -0.08900
C 	C 	0.42060 0.08816 0.06775 0.00800
H 	H 	0.37690 0.11720 0.08710 0.04400
C 	C 	0.38710 0.04427 0.01599 -0.08100
H 	H 	0.32050 0.04380 0.99910 0.05400
C 	C 	0.58170 0.04842 0.06618 -0.03700
H 	H 	0.64810 0.05060 0.08340 0.04800
C 	C 	0.54930 0.00089 0.01297 0.02200
C 	C 	0.55850 0.34703 0.13939 0.38000
C 	C 	0.52770 0.40950 0.09323 -0.09800
C 	C 	0.45720 0.45909 0.10799 0.01200
H 	H 	0.43120 0.45340 0.14740 0.03500
C 	C 	0.42620 0.51492 0.06641 -0.08900
H 	H 	0.37890 0.54770 0.07710 0.04900
C 	C 	0.56600 0.41820 0.03688 -0.02600
H 	H 	0.61370 0.38510 0.02730 0.04100
C 	C 	0.53580 0.47537 0.99284 0.01100
C 	C 	0.72590 0.22204 0.30657 0.31800
C 	C 	0.74050 0.22078 0.37983 -0.07700
C 	C 	0.80300 0.16902 0.41418 0.00900
H 	H 	0.83260 0.13350 0.39060 0.04200
C 	C 	0.82130 0.16943 0.48117 -0.09000
H 	H 	0.86180 0.13310 0.50370 0.07100
C 	C 	0.69860 0.27235 0.41336 -0.04200
H 	H 	0.65480 0.30600 0.38990 0.05900
C 	C 	0.71910 0.27681 0.48287 0.02400
Co	Co	0.22019 0.74478 0.18762 1.12200
O 	O 	0.14482 0.65394 0.15693 -0.45600
O 	O 	0.99567 0.67310 0.17739 -0.38700
O 	O 	0.13255 0.81251 0.12935 -0.48500
O 	O 	0.00864 0.83448 0.18260 -0.45000
O 	O 	0.28847 0.69329 0.27725 -0.40800
O 	O 	0.15484 0.75612 0.27448 -0.50300
C 	C 	0.05600 0.64399 0.14751 0.36600
C 	C 	0.01880 0.59102 0.09291 -0.17300
C 	C 	0.92060 0.58816 0.06775 0.11700
H 	H 	0.87690 0.61720 0.08710 0.01200
C 	C 	0.88710 0.54427 0.01599 -0.16700
H 	H 	0.82050 0.54380 0.99910 0.08500
C 	C 	0.08170 0.54842 0.06618 0.03600
H 	H 	0.14810 0.55060 0.08340 0.02200
C 	C 	0.04930 0.50089 0.01297 -0.08800
C 	C 	0.05850 0.84703 0.13939 0.41000
C 	C 	0.02770 0.90950 0.09323 -0.19600
C 	C 	0.95720 0.95909 0.10799 0.12800
H 	H 	0.93120 0.95340 0.14740 0.00600
C 	C 	0.92620 0.01492 0.06641 -0.18100
H 	H 	0.87890 0.04770 0.07710 0.08300
C 	C 	0.06600 0.91820 0.03688 0.05600
H 	H 	0.11370 0.88510 0.02730 0.01000
C 	C 	0.03580 0.97537 0.99284 -0.10600
C 	C 	0.22590 0.72204 0.30657 0.31800
C 	C 	0.24050 0.72078 0.37983 -0.08300
C 	C 	0.30300 0.66902 0.41418 0.00800
H 	H 	0.33260 0.63350 0.39060 0.03700
C 	C 	0.32130 0.66943 0.48117 -0.09200
H 	H 	0.36180 0.63310 0.50370 0.06500
C 	C 	0.19860 0.77235 0.41336 -0.04100
H 	H 	0.15480 0.80600 0.38990 0.05200
C 	C 	0.21910 0.77681 0.48287 0.02100
Co	Co	0.27981 0.24478 0.31238 1.12100
O 	O 	0.35518 0.15394 0.34307 -0.46000
O 	O 	0.50433 0.17310 0.32261 -0.42500
O 	O 	0.36745 0.31251 0.37065 -0.47600
O 	O 	0.49136 0.33448 0.31740 -0.42300
O 	O 	0.21153 0.19329 0.22275 -0.41200
O 	O 	0.34516 0.25612 0.22552 -0.49900
C 	C 	0.44400 0.14399 0.35249 0.38500
C 	C 	0.48120 0.09102 0.40709 -0.09300
C 	C 	0.57940 0.08816 0.43225 0.01400
H 	H 	0.62310 0.11720 0.41290 0.04100
C 	C 	0.61290 0.04427 0.48401 -0.08900
H 	H 	0.67950 0.04380 0.50090 0.05900
C 	C 	0.41830 0.04842 0.43382 -0.03200
H 	H 	0.35190 0.05060 0.41660 0.04500
C 	C 	0.45070 0.00089 0.48703 0.01500
C 	C 	0.44150 0.34703 0.36061 0.38000
C 	C 	0.47230 0.40950 0.40677 -0.09700
C 	C 	0.54280 0.45909 0.39201 0.01000
H 	H 	0.56880 0.45340 0.35260 0.03600
C 	C 	0.57380 0.51492 0.43359 -0.08700
H 	H 	0.62110 0.54770 0.42290 0.04800
C 	C 	0.43400 0.41820 0.46312 -0.02900
H 	H 	0.38630 0.38510 0.47270 0.04000
C 	C 	0.46420 0.47537 0.50716 0.01400
C 	C 	0.27410 0.22204 0.19343 0.31600
C 	C 	0.25950 0.22078 0.12017 -0.07600
C 	C 	0.19700 0.16902 0.08582 -0.00100
H 	H 	0.16740 0.13350 0.10940 0.03600
C 	C 	0.17870 0.16943 0.01883 -0.08100
H 	H 	0.13820 0.13310 0.99630 0.05500
C 	C 	0.30140 0.27235 0.08664 -0.05000
H 	H 	0.34520 0.30600 0.11010 0.06100
C 	C 	0.28090 0.27681 0.01713 0.03400
Co	Co	0.77981 0.74478 0.31238 1.12400
O 	O 	0.85518 0.65394 0.34307 -0.46000
O 	O 	0.00433 0.67310 0.32261 -0.45800
O 	O 	0.86745 0.81251 0.37065 -0.46300
O 	O 	0.99136 0.83448 0.31740 -0.39200
O 	O 	0.71153 0.69329 0.22275 -0.40500
O 	O 	0.84516 0.75612 0.22552 -0.48800
C 	C 	0.94400 0.64399 0.35249 0.40100
C 	C 	0.98120 0.59102 0.40709 -0.00800
C 	C 	0.07940 0.58816 0.43225 -0.09600
H 	H 	0.12310 0.61720 0.41290 0.07300
C 	C 	0.11290 0.54427 0.48401 -0.00100
H 	H 	0.17950 0.54380 0.50090 0.02800
C 	C 	0.91830 0.54842 0.43382 -0.10700
H 	H 	0.85190 0.55060 0.41660 0.07100
C 	C 	0.95070 0.50089 0.48703 0.12800
C 	C 	0.94150 0.84703 0.36061 0.34900
C 	C 	0.97230 0.90950 0.40677 0.00300
C 	C 	0.04280 0.95909 0.39201 -0.10800
H 	H 	0.06880 0.95340 0.35260 0.06500
C 	C 	0.07380 0.01492 0.43359 0.00600
H 	H 	0.12110 0.04770 0.42290 0.01400
C 	C 	0.93400 0.91820 0.46312 -0.11400
H 	H 	0.88630 0.88510 0.47270 0.07100
C 	C 	0.96420 0.97537 0.50716 0.13400
C 	C 	0.77410 0.72204 0.19343 0.31500
C 	C 	0.75950 0.72078 0.12017 -0.07100
C 	C 	0.69700 0.66902 0.08582 0.00200
H 	H 	0.66740 0.63350 0.10940 0.04000
C 	C 	0.67870 0.66943 0.01883 -0.08300
H 	H 	0.63820 0.63310 0.99630 0.06200
C 	C 	0.80140 0.77235 0.08664 -0.04800
H 	H 	0.84520 0.80600 0.11010 0.06700
C 	C 	0.78090 0.77681 0.01713 0.03300
Co	Co	0.27981 0.75522 0.81238 1.12100
O 	O 	0.35518 0.84606 0.84307 -0.46000
O 	O 	0.50433 0.82690 0.82261 -0.42500
O 	O 	0.36745 0.68749 0.87065 -0.47600
O 	O 	0.49136 0.66552 0.81740 -0.42300
O 	O 	0.21153 0.80671 0.72275 -0.41200
O 	O 	0.34516 0.74388 0.72552 -0.49900
C 	C 	0.44400 0.85601 0.85249 0.38500
C 	C 	0.48120 0.90898 0.90709 -0.09500
C 	C 	0.57940 0.91184 0.93225 0.01700
H 	H 	0.62310 0.88280 0.91290 0.04100
C 	C 	0.61290 0.95573 0.98401 -0.09300
H 	H 	0.67950 0.95620 0.00090 0.06000
C 	C 	0.41830 0.95158 0.93382 -0.02900
H 	H 	0.35190 0.94940 0.91660 0.04400
C 	C 	0.45070 0.99911 0.98703 0.01100
C 	C 	0.44150 0.65297 0.86061 0.37900
C 	C 	0.47230 0.59050 0.90677 -0.09500
C 	C 	0.54280 0.54091 0.89201 0.00800
H 	H 	0.56880 0.54660 0.85260 0.03700
C 	C 	0.57380 0.48508 0.93359 -0.08400
H 	H 	0.62110 0.45230 0.92290 0.04700
C 	C 	0.43400 0.58180 0.96312 -0.03200
H 	H 	0.38630 0.61490 0.97270 0.04100
C 	C 	0.46420 0.52463 0.00716 0.01800
C 	C 	0.27410 0.77796 0.69343 0.31800
C 	C 	0.25950 0.77922 0.62017 -0.08000
C 	C 	0.19700 0.83098 0.58582 0.00500
H 	H 	0.16740 0.86650 0.60940 0.03400
C 	C 	0.17870 0.83057 0.51883 -0.09100
H 	H 	0.13820 0.86690 0.49630 0.05900
C 	C 	0.30140 0.72765 0.58664 -0.04500
H 	H 	0.34520 0.69400 0.61010 0.05900
C 	C 	0.28090 0.72319 0.51713 0.02600
Co	Co	0.77981 0.25522 0.81238 1.12400
O 	O 	0.85518 0.34606 0.84307 -0.46000
O 	O 	0.00433 0.32690 0.82261 -0.45800
O 	O 	0.86745 0.18749 0.87065 -0.46300
O 	O 	0.99136 0.16552 0.81740 -0.39100
O 	O 	0.71153 0.30671 0.72275 -0.40500
O 	O 	0.84516 0.24388 0.72552 -0.48800
C 	C 	0.94400 0.35601 0.85249 0.40200
C 	C 	0.98120 0.40898 0.90709 -0.01200
C 	C 	0.07940 0.41184 0.93225 -0.09100
H 	H 	0.12310 0.38280 0.91290 0.07200
C 	C 	0.11290 0.45573 0.98401 -0.00900
H 	H 	0.17950 0.45620 0.00090 0.03100
C 	C 	0.91830 0.45158 0.93382 -0.10300
H 	H 	0.85190 0.44940 0.91660 0.07000
C 	C 	0.95070 0.49911 0.98703 0.12100
C 	C 	0.94150 0.15297 0.86061 0.34800
C 	C 	0.97230 0.09050 0.90677 0.00500
C 	C 	0.04280 0.04091 0.89201 -0.11000
H 	H 	0.06880 0.04660 0.85260 0.06600
C 	C 	0.07380 0.98508 0.93359 0.00900
H 	H 	0.12110 0.95230 0.92290 0.01300
C 	C 	0.93400 0.08180 0.96312 -0.11700
H 	H 	0.88630 0.11490 0.97270 0.07100
C 	C 	0.96420 0.02463 0.00716 0.13700
C 	C 	0.77410 0.27796 0.69343 0.31600
C 	C 	0.75950 0.27922 0.62017 -0.07300
C 	C 	0.69700 0.33098 0.58582 0.00500
H 	H 	0.66740 0.36650 0.60940 0.03900
C 	C 	0.67870 0.33057 0.51883 -0.08800
H 	H 	0.63820 0.36690 0.49630 0.06400
C 	C 	0.80140 0.22765 0.58664 -0.04600
H 	H 	0.84520 0.19400 0.61010 0.06600
C 	C 	0.78090 0.22319 0.51713 0.03000
Co	Co	0.72019 0.75522 0.68762 1.12500
O 	O 	0.64482 0.84606 0.65693 -0.45700
O 	O 	0.49567 0.82690 0.67739 -0.42500
O 	O 	0.63255 0.68749 0.62935 -0.47300
O 	O 	0.50864 0.66552 0.68260 -0.42300
O 	O 	0.78847 0.80671 0.77725 -0.40100
O 	O 	0.65484 0.74388 0.77448 -0.49700
C 	C 	0.55600 0.85601 0.64751 0.38400
C 	C 	0.51880 0.90898 0.59291 -0.09100
C 	C 	0.42060 0.91184 0.56775 0.01200
H 	H 	0.37690 0.88280 0.58710 0.04200
C 	C 	0.38710 0.95573 0.51599 -0.08700
H 	H 	0.32050 0.95620 0.49910 0.05700
C 	C 	0.58170 0.95158 0.56618 -0.03400
H 	H 	0.64810 0.94940 0.58340 0.04700
C 	C 	0.54930 0.99911 0.51297 0.01800
C 	C 	0.55850 0.65297 0.63939 0.38000
C 	C 	0.52770 0.59050 0.59323 -0.09600
C 	C 	0.45720 0.54091 0.60799 0.01000
H 	H 	0.43120 0.54660 0.64740 0.03500
C 	C 	0.42620 0.48508 0.56641 -0.08600
H 	H 	0.37890 0.45230 0.57710 0.04800
C 	C 	0.56600 0.58180 0.53688 -0.03000
H 	H 	0.61370 0.61490 0.52730 0.04100
C 	C 	0.53580 0.52463 0.49284 0.01500
C 	C 	0.72590 0.77796 0.80657 0.31800
C 	C 	0.74050 0.77922 0.87983 -0.07800
C 	C 	0.80300 0.83098 0.91418 0.01200
H 	H 	0.83260 0.86650 0.89060 0.04100
C 	C 	0.82130 0.83057 0.98117 -0.09300
H 	H 	0.86180 0.86690 0.00370 0.07200
C 	C 	0.69860 0.72765 0.91336 -0.04000
H 	H 	0.65480 0.69400 0.88990 0.05800
C 	C 	0.71910 0.72319 0.98287 0.02000
Co	Co	0.22019 0.25522 0.68762 1.12200
O 	O 	0.14482 0.34606 0.65693 -0.45600
O 	O 	0.99567 0.32690 0.67739 -0.38700
O 	O 	0.13255 0.18749 0.62935 -0.48500
O 	O 	0.00864 0.16552 0.68260 -0.45000
O 	O 	0.28847 0.30671 0.77725 -0.40800
O 	O 	0.15484 0.24388 0.77448 -0.50400
C 	C 	0.05600 0.35601 0.64751 0.36700
C 	C 	0.01880 0.40898 0.59291 -0.17600
C 	C 	0.92060 0.41184 0.56775 0.12200
H 	H 	0.87690 0.38280 0.58710 0.01000
C 	C 	0.88710 0.45573 0.51599 -0.17500
H 	H 	0.82050 0.45620 0.49910 0.08800
C 	C 	0.08170 0.45158 0.56618 0.04100
H 	H 	0.14810 0.44940 0.58340 0.02100
C 	C 	0.04930 0.49911 0.51297 -0.09500
C 	C 	0.05850 0.15297 0.63939 0.40900
C 	C 	0.02770 0.09050 0.59323 -0.19600
C 	C 	0.95720 0.04091 0.60799 0.12700
H 	H 	0.93120 0.04660 0.64740 0.00600
C 	C 	0.92620 0.98508 0.56641 -0.17900
H 	H 	0.87890 0.95230 0.57710 0.08200
C 	C 	0.06600 0.08180 0.53688 0.05500
H 	H 	0.11370 0.11490 0.52730 0.01100
C 	C 	0.03580 0.02463 0.49284 -0.10400
C 	C 	0.22590 0.27796 0.80657 0.32000
C 	C 	0.24050 0.27922 0.87983 -0.08700
C 	C 	0.30300 0.33098 0.91418 0.01300
H 	H 	0.33260 0.36650 0.89060 0.03500
C 	C 	0.32130 0.33057 0.98117 -0.10000
H 	H 	0.36180 0.36690 0.00370 0.06900
C 	C 	0.19860 0.22765 0.91336 -0.03600
H 	H 	0.15480 0.19400 0.88990 0.05000
C 	C 	0.21910 0.22319 0.98287 0.01200
Co	Co	0.50000 0.25167 0.25000 1.20000
Co	Co	0.00000 0.75167 0.25000 1.18500
Co	Co	0.50000 0.74833 0.75000 1.20000
Co	Co	0.00000 0.24833 0.75000 1.18500
