data_crystal

_cell_length_a 12.64600
_cell_length_b 14.83400
_cell_length_c 16.05210
_cell_angle_alpha 90.00000
_cell_angle_beta  98.12630
_cell_angle_gamma 90.00000

_symmetry_space_group_name_	'P 1'
_symmetry_space_group_name_H-M	'P 1'

loop_
_symmetry_equiv_pos_as_xyz
  x,y,z

loop_
_atom_site_label
_atom_site_type_symbol
_atom_site_fract_x
_atom_site_fract_y
_atom_site_fract_z
_atom_site_charge
Mn	Mn	0.02249 0.24871 0.01530 1.23000
Mn	Mn	0.47751 0.74871 0.48470 1.28700
Mn	Mn	0.97751 0.75129 0.98470 1.33100
Mn	Mn	0.52249 0.25129 0.51530 1.28200
Mn	Mn	-0.00000 0.00000 -0.00000 1.20900
Mn	Mn	0.50000 0.50000 0.50000 1.31400
Mn	Mn	-0.00000 0.50000 -0.00000 1.19000
Mn	Mn	0.50000 -0.00000 0.50000 1.20400
H 	H 	0.71870 0.05470 0.80870 -0.00200
H 	H 	0.54470 0.05290 0.74610 0.05200
H 	H 	0.47230 0.24590 0.90490 0.09300
H 	H 	0.65260 0.25420 0.96130 0.04100
H 	H 	0.20750 0.11110 0.61460 0.02500
H 	H 	0.32090 0.14010 0.89750 0.06100
H 	H 	0.05090 0.01690 0.60280 0.06900
H 	H 	0.87580 0.01050 0.54380 -0.04600
H 	H 	0.80740 0.20380 0.70460 0.01200
H 	H 	0.98090 0.20130 0.76740 0.08200
H 	H 	0.26590 0.06610 0.29820 0.03600
H 	H 	0.26070 0.17170 0.29760 0.07100
H 	H 	0.33890 0.12160 0.24570 0.03800
H 	H 	0.78130 0.55470 0.69130 0.05700
H 	H 	0.95530 0.55290 0.75390 0.03000
H 	H 	0.02770 0.74590 0.59510 -0.00500
H 	H 	0.84740 0.75420 0.53870 0.07500
H 	H 	0.29250 0.61110 0.88540 0.06500
H 	H 	0.17910 0.64010 0.60250 0.05700
H 	H 	0.44910 0.51690 0.89720 0.10000
H 	H 	0.62420 0.51050 0.95620 0.03800
H 	H 	0.69260 0.70380 0.79540 0.01800
H 	H 	0.51910 0.70130 0.73260 0.08400
H 	H 	0.23410 0.56610 0.20180 0.09200
H 	H 	0.23930 0.67170 0.20240 0.09000
H 	H 	0.16110 0.62160 0.25430 0.07300
H 	H 	0.28130 0.94530 0.19130 0.04300
H 	H 	0.45530 0.94710 0.25390 0.09000
H 	H 	0.52770 0.75410 0.09510 0.06800
H 	H 	0.34740 0.74580 0.03870 -0.00400
H 	H 	0.79250 0.88890 0.38540 0.05900
H 	H 	0.67910 0.85990 0.10250 0.03600
H 	H 	0.94910 0.98310 0.39720 0.09600
H 	H 	0.12420 0.98950 0.45620 0.06300
H 	H 	0.19260 0.79620 0.29540 0.01300
H 	H 	0.01910 0.79870 0.23260 0.07500
H 	H 	0.73410 0.93390 0.70180 0.16500
H 	H 	0.73930 0.82830 0.70240 0.13200
H 	H 	0.66110 0.87840 0.75430 0.13400
H 	H 	0.21870 0.44530 0.30870 -0.03300
H 	H 	0.04470 0.44710 0.24610 0.12500
H 	H 	0.97230 0.25410 0.40490 0.19100
H 	H 	0.15260 0.24580 0.46130 -0.05300
H 	H 	0.70750 0.38890 0.11460 0.02500
H 	H 	0.82090 0.35990 0.39750 0.03000
H 	H 	0.55090 0.48310 0.10280 0.06400
H 	H 	0.37580 0.48950 0.04380 -0.02000
H 	H 	0.30740 0.29620 0.20460 0.00800
H 	H 	0.48090 0.29870 0.26740 0.07100
H 	H 	0.76590 0.43390 0.79820 0.11200
H 	H 	0.76070 0.32830 0.79760 0.11200
H 	H 	0.83890 0.37840 0.74570 0.09900
C 	C 	0.82000 0.15010 0.93560 0.42200
C 	C 	0.70510 0.15370 0.89260 -0.13700
C 	C 	0.67000 0.09390 0.82780 0.05700
C 	C 	0.56540 0.09130 0.79120 -0.12700
C 	C 	0.48950 0.14660 0.82160 0.06600
C 	C 	0.52180 0.20790 0.88520 -0.12200
C 	C 	0.63030 0.21200 0.91970 0.05900
C 	C 	0.37190 0.13870 0.78600 0.02300
C 	C 	0.33630 0.12930 0.69950 -0.10700
C 	C 	0.40930 0.13370 0.63260 0.39700
C 	C 	0.22980 0.11830 0.67200 -0.01300
C 	C 	0.15250 0.11760 0.72710 -0.00700
C 	C 	0.18830 0.12660 0.81390 -0.07900
C 	C 	0.11390 0.12270 0.88040 0.38600
C 	C 	0.29730 0.13580 0.84010 -0.03800
C 	C 	0.03460 0.11240 0.69100 0.06100
C 	C 	0.00110 0.05360 0.62360 -0.22200
C 	C 	0.89680 0.04980 0.58830 0.14100
C 	C 	0.82060 0.10510 0.61900 -0.18500
C 	C 	0.85550 0.16440 0.68510 0.07500
C 	C 	0.96010 0.16450 0.72100 -0.11200
C 	C 	0.70380 0.10780 0.57820 0.43500
C 	C 	0.15010 0.11630 0.13470 0.34100
C 	C 	0.27030 0.11920 0.26460 -0.15000
C 	C 	0.68000 0.65010 0.56440 0.39800
C 	C 	0.79490 0.65370 0.60740 -0.05500
C 	C 	0.83000 0.59390 0.67220 -0.04700
C 	C 	0.93460 0.59130 0.70880 0.02700
C 	C 	0.01050 0.64660 0.67840 -0.09400
C 	C 	0.97820 0.70790 0.61480 0.08900
C 	C 	0.86970 0.71200 0.58030 -0.06400
C 	C 	0.12810 0.63870 0.71400 0.07700
C 	C 	0.16370 0.62930 0.80050 -0.10200
C 	C 	0.09070 0.63370 0.86740 0.39400
C 	C 	0.27020 0.61830 0.82800 -0.00500
C 	C 	0.34750 0.61760 0.77290 0.00700
C 	C 	0.31170 0.62660 0.68610 -0.06500
C 	C 	0.38610 0.62270 0.61960 0.38800
C 	C 	0.20270 0.63580 0.65990 -0.05800
C 	C 	0.46540 0.61240 0.80900 0.09200
C 	C 	0.49890 0.55360 0.87640 -0.13200
C 	C 	0.60320 0.54980 0.91170 0.07500
C 	C 	0.67940 0.60510 0.88100 -0.12700
C 	C 	0.64450 0.66440 0.81490 0.07000
C 	C 	0.53990 0.66450 0.77900 -0.13500
C 	C 	0.79620 0.60780 0.92180 0.41700
C 	C 	0.34990 0.61630 0.36530 0.37700
C 	C 	0.22970 0.61920 0.23540 -0.19400
C 	C 	0.18000 0.84990 0.06440 0.42700
C 	C 	0.29490 0.84630 0.10740 -0.14600
C 	C 	0.33000 0.90610 0.17220 0.06600
C 	C 	0.43460 0.90870 0.20880 -0.12400
C 	C 	0.51050 0.85340 0.17840 0.07800
C 	C 	0.47820 0.79210 0.11480 -0.13600
C 	C 	0.36970 0.78800 0.08030 0.06500
C 	C 	0.62810 0.86130 0.21400 0.01300
C 	C 	0.66370 0.87070 0.30050 -0.07400
C 	C 	0.59070 0.86630 0.36740 0.37800
C 	C 	0.77020 0.88170 0.32800 -0.02100
C 	C 	0.84750 0.88240 0.27290 0.01700
C 	C 	0.81170 0.87340 0.18610 -0.07800
C 	C 	0.88610 0.87730 0.11960 0.39200
C 	C 	0.70270 0.86420 0.15990 -0.02000
C 	C 	0.96540 0.88760 0.30900 0.11400
C 	C 	0.99890 0.94640 0.37640 -0.07100
C 	C 	0.10320 0.95020 0.41170 0.01300
C 	C 	0.17940 0.89490 0.38100 -0.10700
C 	C 	0.14450 0.83560 0.31490 0.07000
C 	C 	0.03990 0.83550 0.27900 -0.17800
C 	C 	0.29620 0.89220 0.42180 0.40800
C 	C 	0.84990 0.88370 0.86530 0.39800
C 	C 	0.72970 0.88080 0.73540 -0.27700
C 	C 	0.32000 0.34990 0.43560 0.47400
C 	C 	0.20510 0.34630 0.39260 -0.26100
C 	C 	0.17000 0.40610 0.32780 0.20700
C 	C 	0.06540 0.40870 0.29120 -0.32900
C 	C 	0.98950 0.35340 0.32160 0.29200
C 	C 	0.02180 0.29210 0.38520 -0.41000
C 	C 	0.13030 0.28800 0.41970 0.23000
C 	C 	0.87190 0.36130 0.28600 -0.06600
C 	C 	0.83630 0.37070 0.19950 -0.06200
C 	C 	0.90930 0.36630 0.13260 0.37200
C 	C 	0.72980 0.38170 0.17200 -0.04300
C 	C 	0.65250 0.38240 0.22710 0.01400
C 	C 	0.68830 0.37340 0.31390 -0.10800
C 	C 	0.61390 0.37730 0.38040 0.40400
C 	C 	0.79730 0.36420 0.34010 0.02000
C 	C 	0.53460 0.38760 0.19100 0.07100
C 	C 	0.50110 0.44640 0.12360 -0.15100
C 	C 	0.39680 0.45020 0.08830 0.06900
C 	C 	0.32060 0.39490 0.11900 -0.16200
C 	C 	0.35550 0.33560 0.18510 0.06700
C 	C 	0.46010 0.33550 0.22100 -0.14700
C 	C 	0.20380 0.39220 0.07820 0.42300
C 	C 	0.65010 0.38370 0.63470 0.37300
C 	C 	0.77030 0.38080 0.76460 -0.23200
N 	N 	0.18790 0.11620 0.19280 -0.25400
N 	N 	0.31210 0.61620 0.30720 -0.23000
N 	N 	0.81210 0.88380 0.80720 -0.19800
N 	N 	0.68790 0.38380 0.69280 -0.22300
O 	O 	0.86070 0.22430 0.95880 -0.42200
O 	O 	0.86050 0.07530 0.94550 -0.44100
O 	O 	0.45440 0.20810 0.62340 -0.43900
O 	O 	0.41870 0.06450 0.59010 -0.53100
O 	O 	0.09620 0.19590 0.91390 -0.43200
O 	O 	0.08090 0.04680 0.89870 -0.43100
O 	O 	0.66000 0.03510 0.55930 -0.53700
O 	O 	0.66500 0.18520 0.56670 -0.48800
O 	O 	0.07200 0.11780 0.07950 -0.59800
O 	O 	0.63930 0.72430 0.54120 -0.46200
O 	O 	0.63950 0.57530 0.55450 -0.45400
O 	O 	0.04560 0.70810 0.87660 -0.42100
O 	O 	0.08130 0.56450 0.90990 -0.45800
O 	O 	0.40380 0.69590 0.58610 -0.46200
O 	O 	0.41910 0.54680 0.60130 -0.43000
O 	O 	0.84000 0.53510 0.94070 -0.43900
O 	O 	0.83500 0.68520 0.93330 -0.44400
O 	O 	0.42800 0.61780 0.42050 -0.53400
O 	O 	0.13930 0.77570 0.04120 -0.52600
O 	O 	0.13950 0.92470 0.05450 -0.45000
O 	O 	0.54560 0.79190 0.37660 -0.43000
O 	O 	0.58130 0.93550 0.40990 -0.44600
O 	O 	0.90380 0.80410 0.08610 -0.49200
O 	O 	0.91910 0.95320 0.10130 -0.38600
O 	O 	0.34000 0.96490 0.44070 -0.42600
O 	O 	0.33500 0.81480 0.43330 -0.46800
O 	O 	0.92800 0.88220 0.92050 -0.45300
O 	O 	0.36070 0.27570 0.45880 -0.49600
O 	O 	0.36050 0.42470 0.44550 -0.47700
O 	O 	0.95440 0.29190 0.12340 -0.43400
O 	O 	0.91870 0.43550 0.09010 -0.50300
O 	O 	0.59620 0.30410 0.41390 -0.48200
O 	O 	0.58090 0.45320 0.39870 -0.43300
O 	O 	0.16000 0.46490 0.05930 -0.52500
O 	O 	0.16500 0.31480 0.06670 -0.51600
O 	O 	0.57200 0.38220 0.57950 -0.53200
