data_crystal

_cell_length_a 19.72050
_cell_length_b 19.72050
_cell_length_c 22.98160
_cell_angle_alpha 90.00000
_cell_angle_beta  90.00000
_cell_angle_gamma 120.00000

_symmetry_space_group_name_	'P 1'
_symmetry_space_group_name_H-M	'P 1'

loop_
_symmetry_equiv_pos_as_xyz
  x,y,z

loop_
_atom_site_label
_atom_site_type_symbol
_atom_site_fract_x
_atom_site_fract_y
_atom_site_fract_z
_atom_site_charge
Cd	Cd	0.54984 0.86636 0.10229 1.15900
Cd	Cd	0.53286 0.91442 0.93812 1.14200
S 	S 	0.49970 0.79964 0.00374 -0.51700
S 	S 	0.67407 0.99724 0.08359 -0.54100
S 	S 	0.44629 0.89020 0.14813 -0.54900
C 	C 	0.55830 0.76080 0.98420 0.05600
C 	C 	0.52070 0.68010 0.97700 -0.03300
C 	C 	0.56090 0.64560 0.95300 0.01000
C 	C 	0.63860 0.69180 0.93620 -0.01700
C 	C 	0.67610 0.77260 0.94330 0.02600
C 	C 	0.63600 0.80710 0.96730 -0.10100
C 	C 	0.73860 0.87660 0.21960 -0.06100
C 	C 	0.80830 0.91060 0.23100 0.02500
C 	C 	0.85090 0.93260 0.18980 -0.01400
C 	C 	0.71860 0.03400 0.15200 0.07600
C 	C 	0.79970 0.07080 0.15530 -0.02500
C 	C 	0.83750 0.10420 0.20740 0.01900
C 	C 	0.79420 0.10070 0.25620 -0.01600
C 	C 	0.71300 0.06390 0.25280 0.03700
C 	C 	0.67520 0.03060 0.20070 -0.09500
C 	C 	0.90960 0.14310 0.22330 -0.01000
C 	C 	0.37110 0.80320 0.18330 0.08200
C 	C 	0.29220 0.77780 0.17480 -0.09200
C 	C 	0.23560 0.71160 0.20360 0.03200
C 	C 	0.25790 0.67090 0.24100 -0.01300
C 	C 	0.33680 0.69630 0.24960 0.00400
C 	C 	0.39340 0.76250 0.22080 -0.08900
C 	C 	0.14510 0.68060 0.19210 -0.00400
S 	S 	0.60250 0.77850 0.14850 -0.26300
Cd	Cd	0.13364 0.68348 0.76896 1.15800
Cd	Cd	0.08558 0.61844 0.60479 1.15400
S 	S 	0.20036 0.70006 0.67041 -0.54100
S 	S 	0.00276 0.67683 0.75026 -0.49200
S 	S 	0.10980 0.55609 0.81480 -0.53500
C 	C 	0.23920 0.79750 0.65087 0.07000
C 	C 	0.31990 0.84060 0.64367 -0.03200
C 	C 	0.35440 0.91530 0.61967 0.00900
C 	C 	0.30820 0.94680 0.60287 -0.02400
C 	C 	0.22740 0.90350 0.60997 0.02700
C 	C 	0.19290 0.82890 0.63397 -0.09500
C 	C 	0.12340 0.86200 0.88627 -0.06000
C 	C 	0.08940 0.89770 0.89767 0.02200
C 	C 	0.06740 0.91830 0.85647 0.00200
C 	C 	0.96600 0.68460 0.81867 0.04200
C 	C 	0.92920 0.72890 0.82197 -0.03200
C 	C 	0.89580 0.73330 0.87407 0.01800
C 	C 	0.89930 0.69350 0.92287 -0.02400
C 	C 	0.93610 0.64910 0.91947 0.02100
C 	C 	0.96940 0.64460 0.86737 -0.10400
C 	C 	0.85690 0.76650 0.88997 -0.01600
C 	C 	0.19680 0.56790 0.84997 0.08000
C 	C 	0.22220 0.51440 0.84147 -0.09200
C 	C 	0.28840 0.52400 0.87027 0.03300
C 	C 	0.32910 0.58700 0.90767 -0.01700
C 	C 	0.30370 0.64050 0.91627 -0.00000
C 	C 	0.23750 0.63090 0.88747 -0.08900
C 	C 	0.31940 0.46450 0.85877 -0.01200
S 	S 	0.22150 0.82400 0.81517 -0.27600
Cd	Cd	0.31652 0.45016 0.43562 1.15800
Cd	Cd	0.38156 0.46714 0.27145 1.15100
S 	S 	0.29994 0.50030 0.33707 -0.54200
S 	S 	0.32317 0.32593 0.41692 -0.51800
S 	S 	0.44391 0.55371 0.48146 -0.54100
C 	C 	0.20250 0.44170 0.31753 0.07100
C 	C 	0.15940 0.47930 0.31033 -0.03100
C 	C 	0.08470 0.43910 0.28633 0.01800
C 	C 	0.05320 0.36140 0.26953 -0.01000
C 	C 	0.09650 0.32390 0.27663 0.03500
C 	C 	0.17110 0.36400 0.30063 -0.09700
C 	C 	0.13800 0.26140 0.55293 -0.06100
C 	C 	0.10230 0.19170 0.56433 0.03700
C 	C 	0.08170 0.14910 0.52313 -0.00400
C 	C 	0.31540 0.28140 0.48533 0.05700
C 	C 	0.27110 0.20030 0.48863 -0.02200
C 	C 	0.26670 0.16250 0.54073 0.01000
C 	C 	0.30650 0.20580 0.58953 -0.01200
C 	C 	0.35090 0.28700 0.58613 0.03100
C 	C 	0.35540 0.32480 0.53403 -0.09700
C 	C 	0.23350 0.09040 0.55663 0.00800
C 	C 	0.43210 0.62890 0.51663 0.08100
C 	C 	0.48560 0.70780 0.50813 -0.09300
C 	C 	0.47600 0.76440 0.53693 0.03400
C 	C 	0.41300 0.74210 0.57433 -0.01600
C 	C 	0.35950 0.66320 0.58293 0.00400
C 	C 	0.36910 0.60660 0.55413 -0.08800
C 	C 	0.53550 0.85490 0.52543 -0.01500
S 	S 	0.17600 0.39750 0.48183 -0.26500
Cd	Cd	0.45016 0.13364 0.10229 1.15900
Cd	Cd	0.46714 0.08558 0.93812 1.14800
S 	S 	0.50030 0.20036 0.00374 -0.51200
S 	S 	0.32593 0.00276 0.08359 -0.48400
S 	S 	0.55371 0.10980 0.14813 -0.53200
C 	C 	0.44170 0.23920 0.98420 0.05200
C 	C 	0.47930 0.31990 0.97700 -0.03400
C 	C 	0.43910 0.35440 0.95300 0.00900
C 	C 	0.36140 0.30820 0.93620 -0.01800
C 	C 	0.32390 0.22740 0.94330 0.02800
C 	C 	0.36400 0.19290 0.96730 -0.09700
C 	C 	0.26140 0.12340 0.21960 -0.05800
C 	C 	0.19170 0.08940 0.23100 0.03300
C 	C 	0.14910 0.06740 0.18980 0.00500
C 	C 	0.28140 0.96600 0.15200 0.03800
C 	C 	0.20030 0.92920 0.15530 -0.02400
C 	C 	0.16250 0.89580 0.20740 0.01000
C 	C 	0.20580 0.89930 0.25620 -0.01500
C 	C 	0.28700 0.93610 0.25280 0.02500
C 	C 	0.32480 0.96940 0.20070 -0.10100
C 	C 	0.09040 0.85690 0.22330 0.00200
C 	C 	0.62890 0.19680 0.18330 0.08000
C 	C 	0.70780 0.22220 0.17480 -0.09100
C 	C 	0.76440 0.28840 0.20360 0.03300
C 	C 	0.74210 0.32910 0.24100 -0.01500
C 	C 	0.66320 0.30370 0.24960 0.00400
C 	C 	0.60660 0.23750 0.22080 -0.08700
C 	C 	0.85490 0.31940 0.19210 -0.01400
S 	S 	0.39750 0.22150 0.14850 -0.26800
Cd	Cd	0.86636 0.31652 0.76896 1.15800
Cd	Cd	0.91442 0.38156 0.60479 1.14600
S 	S 	0.79964 0.29994 0.67041 -0.54500
S 	S 	0.99724 0.32317 0.75026 -0.54900
S 	S 	0.89020 0.44391 0.81480 -0.55300
C 	C 	0.76080 0.20250 0.65087 0.07200
C 	C 	0.68010 0.15940 0.64367 -0.03100
C 	C 	0.64560 0.08470 0.61967 0.01800
C 	C 	0.69180 0.05320 0.60287 -0.01000
C 	C 	0.77260 0.09650 0.60997 0.03300
C 	C 	0.80710 0.17110 0.63397 -0.10100
C 	C 	0.87660 0.13800 0.88627 -0.06600
C 	C 	0.91060 0.10230 0.89767 0.02700
C 	C 	0.93260 0.08170 0.85647 -0.01300
C 	C 	0.03400 0.31540 0.81867 0.07700
C 	C 	0.07080 0.27110 0.82197 -0.02400
C 	C 	0.10420 0.26670 0.87407 0.01800
C 	C 	0.10070 0.30650 0.92287 -0.01900
C 	C 	0.06390 0.35090 0.91947 0.03200
C 	C 	0.03060 0.35540 0.86737 -0.09600
C 	C 	0.14310 0.23350 0.88997 -0.00300
C 	C 	0.80320 0.43210 0.84997 0.08200
C 	C 	0.77780 0.48560 0.84147 -0.09500
C 	C 	0.71160 0.47600 0.87027 0.03300
C 	C 	0.67090 0.41300 0.90767 -0.01800
C 	C 	0.69630 0.35950 0.91627 -0.00000
C 	C 	0.76250 0.36910 0.88747 -0.09200
C 	C 	0.68060 0.53550 0.85877 -0.01200
S 	S 	0.77850 0.17600 0.81517 -0.26000
Cd	Cd	0.68348 0.54984 0.43562 1.15800
Cd	Cd	0.61844 0.53286 0.27145 1.15100
S 	S 	0.70006 0.49970 0.33707 -0.54200
S 	S 	0.67683 0.67407 0.41692 -0.52000
S 	S 	0.55609 0.44629 0.48146 -0.54100
C 	C 	0.79750 0.55830 0.31753 0.07100
C 	C 	0.84060 0.52070 0.31033 -0.03200
C 	C 	0.91530 0.56090 0.28633 0.00900
C 	C 	0.94680 0.63860 0.26953 -0.02400
C 	C 	0.90350 0.67610 0.27663 0.02600
C 	C 	0.82890 0.63600 0.30063 -0.09800
C 	C 	0.86200 0.73860 0.55293 -0.06000
C 	C 	0.89770 0.80830 0.56433 0.02200
C 	C 	0.91830 0.85090 0.52313 -0.00900
C 	C 	0.68460 0.71860 0.48533 0.06000
C 	C 	0.72890 0.79970 0.48863 -0.03100
C 	C 	0.73330 0.83750 0.54073 0.02000
C 	C 	0.69350 0.79420 0.58953 -0.01900
C 	C 	0.64910 0.71300 0.58613 0.03200
C 	C 	0.64460 0.67520 0.53403 -0.09900
C 	C 	0.76650 0.90960 0.55663 -0.01700
C 	C 	0.56790 0.37110 0.51663 0.08100
C 	C 	0.51440 0.29220 0.50813 -0.09200
C 	C 	0.52400 0.23560 0.53693 0.03200
C 	C 	0.58700 0.25790 0.57433 -0.01300
C 	C 	0.64050 0.33680 0.58293 0.00400
C 	C 	0.63090 0.39340 0.55413 -0.08800
C 	C 	0.46450 0.14510 0.52543 -0.00400
S 	S 	0.82400 0.60250 0.48183 -0.27600
Cd	Cd	0.86636 0.54984 0.56438 1.15800
Cd	Cd	0.91442 0.53286 0.72855 1.14600
S 	S 	0.79964 0.49970 0.66293 -0.54500
S 	S 	0.99724 0.67407 0.58308 -0.55000
S 	S 	0.89020 0.44629 0.51854 -0.55100
C 	C 	0.76080 0.55830 0.68247 0.07200
C 	C 	0.68010 0.52070 0.68967 -0.03200
C 	C 	0.64560 0.56090 0.71367 0.01400
C 	C 	0.69180 0.63860 0.73047 -0.01700
C 	C 	0.77260 0.67610 0.72337 0.02900
C 	C 	0.80710 0.63600 0.69937 -0.10100
C 	C 	0.87660 0.73860 0.44707 -0.06300
C 	C 	0.91060 0.80830 0.43567 0.02500
C 	C 	0.93260 0.85090 0.47687 -0.01600
C 	C 	0.03400 0.71860 0.51467 0.07800
C 	C 	0.07080 0.79970 0.51137 -0.02700
C 	C 	0.10420 0.83750 0.45927 0.02000
C 	C 	0.10070 0.79420 0.41047 -0.01700
C 	C 	0.06390 0.71300 0.41387 0.03800
C 	C 	0.03060 0.67520 0.46597 -0.09600
C 	C 	0.14310 0.90960 0.44337 -0.01100
C 	C 	0.80320 0.37110 0.48337 0.08200
C 	C 	0.77780 0.29220 0.49187 -0.09300
C 	C 	0.71160 0.23560 0.46307 0.03200
C 	C 	0.67090 0.25790 0.42567 -0.01300
C 	C 	0.69630 0.33680 0.41707 0.00400
C 	C 	0.76250 0.39340 0.44587 -0.08900
C 	C 	0.68060 0.14510 0.47457 -0.00500
S 	S 	0.77850 0.60250 0.51817 -0.26800
Cd	Cd	0.68348 0.13364 0.89771 1.15800
Cd	Cd	0.61844 0.08558 0.06188 1.15700
S 	S 	0.70006 0.20036 0.99626 -0.57300
S 	S 	0.67683 0.00276 0.91641 -0.50400
S 	S 	0.55609 0.10980 0.85187 -0.53700
C 	C 	0.79750 0.23920 0.01580 0.09000
C 	C 	0.84060 0.31990 0.02300 -0.03000
C 	C 	0.91530 0.35440 0.04700 0.01300
C 	C 	0.94680 0.30820 0.06380 -0.02200
C 	C 	0.90350 0.22740 0.05670 0.03200
C 	C 	0.82890 0.19290 0.03270 -0.09400
C 	C 	0.86200 0.12340 0.78040 -0.05900
C 	C 	0.89770 0.08940 0.76900 0.02800
C 	C 	0.91830 0.06740 0.81020 -0.00200
C 	C 	0.68460 0.96600 0.84800 0.04600
C 	C 	0.72890 0.92920 0.84470 -0.03300
C 	C 	0.73330 0.89580 0.79260 0.01600
C 	C 	0.69350 0.89930 0.74380 -0.01900
C 	C 	0.64910 0.93610 0.74720 0.02700
C 	C 	0.64460 0.96940 0.79930 -0.10300
C 	C 	0.76650 0.85690 0.77670 -0.01100
C 	C 	0.56790 0.19680 0.81670 0.08000
C 	C 	0.51440 0.22220 0.82520 -0.09300
C 	C 	0.52400 0.28840 0.79640 0.03300
C 	C 	0.58700 0.32910 0.75900 -0.01400
C 	C 	0.64050 0.30370 0.75040 0.00400
C 	C 	0.63090 0.23750 0.77920 -0.08700
C 	C 	0.46450 0.31940 0.80790 -0.01000
S 	S 	0.82400 0.22150 0.85150 -0.28400
Cd	Cd	0.45016 0.31652 0.23104 1.15800
Cd	Cd	0.46714 0.38156 0.39521 1.15100
S 	S 	0.50030 0.29994 0.32959 -0.54200
S 	S 	0.32593 0.32317 0.24974 -0.51800
S 	S 	0.55371 0.44391 0.18520 -0.53900
C 	C 	0.44170 0.20250 0.34913 0.07100
C 	C 	0.47930 0.15940 0.35633 -0.03100
C 	C 	0.43910 0.08470 0.38033 0.01800
C 	C 	0.36140 0.05320 0.39713 -0.01000
C 	C 	0.32390 0.09650 0.39003 0.03500
C 	C 	0.36400 0.17110 0.36603 -0.09700
C 	C 	0.26140 0.13800 0.11373 -0.05900
C 	C 	0.19170 0.10230 0.10233 0.04200
C 	C 	0.14910 0.08170 0.14353 -0.00600
C 	C 	0.28140 0.31540 0.18133 0.05600
C 	C 	0.20030 0.27110 0.17803 -0.02100
C 	C 	0.16250 0.26670 0.12593 0.00800
C 	C 	0.20580 0.30650 0.07713 -0.00700
C 	C 	0.28700 0.35090 0.08053 0.03600
C 	C 	0.32480 0.35540 0.13263 -0.09600
C 	C 	0.09040 0.23350 0.11003 0.01300
C 	C 	0.62890 0.43210 0.15003 0.08100
C 	C 	0.70780 0.48560 0.15853 -0.09200
C 	C 	0.76440 0.47600 0.12973 0.03400
C 	C 	0.74210 0.41300 0.09233 -0.01200
C 	C 	0.66320 0.35950 0.08373 0.00800
C 	C 	0.60660 0.36910 0.11253 -0.08600
C 	C 	0.85490 0.53550 0.14123 -0.01300
S 	S 	0.39750 0.17600 0.18483 -0.26800
Cd	Cd	0.13364 0.45016 0.56438 1.15800
Cd	Cd	0.08558 0.46714 0.72855 1.15400
S 	S 	0.20036 0.50030 0.66293 -0.54000
S 	S 	0.00276 0.32593 0.58308 -0.49100
S 	S 	0.10980 0.55371 0.51854 -0.53300
C 	C 	0.23920 0.44170 0.68247 0.07100
C 	C 	0.31990 0.47930 0.68967 -0.03100
C 	C 	0.35440 0.43910 0.71367 0.01300
C 	C 	0.30820 0.36140 0.73047 -0.01700
C 	C 	0.22740 0.32390 0.72337 0.03200
C 	C 	0.19290 0.36400 0.69937 -0.09500
C 	C 	0.12340 0.26140 0.44707 -0.05900
C 	C 	0.08940 0.19170 0.43567 0.03400
C 	C 	0.06740 0.14910 0.47687 0.00300
C 	C 	0.96600 0.28140 0.51467 0.04000
C 	C 	0.92920 0.20030 0.51137 -0.02600
C 	C 	0.89580 0.16250 0.45927 0.01000
C 	C 	0.89930 0.20580 0.41047 -0.01500
C 	C 	0.93610 0.28700 0.41387 0.02500
C 	C 	0.96940 0.32480 0.46597 -0.10100
C 	C 	0.85690 0.09040 0.44337 0.00100
C 	C 	0.19680 0.62890 0.48337 0.08000
C 	C 	0.22220 0.70780 0.49187 -0.09200
C 	C 	0.28840 0.76440 0.46307 0.03300
C 	C 	0.32910 0.74210 0.42567 -0.01500
C 	C 	0.30370 0.66320 0.41707 0.00400
C 	C 	0.23750 0.60660 0.44587 -0.08700
C 	C 	0.31940 0.85490 0.47457 -0.01500
S 	S 	0.22150 0.39750 0.51817 -0.27300
Cd	Cd	0.31652 0.86636 0.89771 1.15700
Cd	Cd	0.38156 0.91442 0.06188 1.14900
S 	S 	0.29994 0.79964 0.99626 -0.57400
S 	S 	0.32317 0.99724 0.91641 -0.55600
S 	S 	0.44391 0.89020 0.85187 -0.55300
C 	C 	0.20250 0.76080 0.01580 0.09000
C 	C 	0.15940 0.68010 0.02300 -0.02900
C 	C 	0.08470 0.64560 0.04700 0.02200
C 	C 	0.05320 0.69180 0.06380 -0.00800
C 	C 	0.09650 0.77260 0.05670 0.03700
C 	C 	0.17110 0.80710 0.03270 -0.10000
C 	C 	0.13800 0.87660 0.78040 -0.06400
C 	C 	0.10230 0.91060 0.76900 0.03400
C 	C 	0.08170 0.93260 0.81020 -0.01500
C 	C 	0.31540 0.03400 0.84800 0.07700
C 	C 	0.27110 0.07080 0.84470 -0.02500
C 	C 	0.26670 0.10420 0.79260 0.01600
C 	C 	0.30650 0.10070 0.74380 -0.01300
C 	C 	0.35090 0.06390 0.74720 0.03700
C 	C 	0.35540 0.03060 0.79930 -0.09600
C 	C 	0.23350 0.14310 0.77670 0.00100
C 	C 	0.43210 0.80320 0.81670 0.08300
C 	C 	0.48560 0.77780 0.82520 -0.09500
C 	C 	0.47600 0.71160 0.79640 0.03400
C 	C 	0.41300 0.67090 0.75900 -0.01500
C 	C 	0.35950 0.69630 0.75040 0.00400
C 	C 	0.36910 0.76250 0.77920 -0.09000
C 	C 	0.53550 0.68060 0.80790 -0.01000
S 	S 	0.17600 0.77850 0.85150 -0.26800
Cd	Cd	0.54984 0.68348 0.23104 1.15800
Cd	Cd	0.53286 0.61844 0.39521 1.15100
S 	S 	0.49970 0.70006 0.32959 -0.54200
S 	S 	0.67407 0.67683 0.24974 -0.52000
S 	S 	0.44629 0.55609 0.18520 -0.53900
C 	C 	0.55830 0.79750 0.34913 0.07100
C 	C 	0.52070 0.84060 0.35633 -0.03200
C 	C 	0.56090 0.91530 0.38033 0.00900
C 	C 	0.63860 0.94680 0.39713 -0.02400
C 	C 	0.67610 0.90350 0.39003 0.02600
C 	C 	0.63600 0.82890 0.36603 -0.09800
C 	C 	0.73860 0.86200 0.11373 -0.05800
C 	C 	0.80830 0.89770 0.10233 0.02700
C 	C 	0.85090 0.91830 0.14353 -0.01000
C 	C 	0.71860 0.68460 0.18133 0.06000
C 	C 	0.79970 0.72890 0.17803 -0.03000
C 	C 	0.83750 0.73330 0.12593 0.01700
C 	C 	0.79420 0.69350 0.07713 -0.01400
C 	C 	0.71300 0.64910 0.08053 0.03700
C 	C 	0.67520 0.64460 0.13263 -0.09800
C 	C 	0.90960 0.76650 0.11003 -0.01200
C 	C 	0.37110 0.56790 0.15003 0.08100
C 	C 	0.29220 0.51440 0.15853 -0.09100
C 	C 	0.23560 0.52400 0.12973 0.03200
C 	C 	0.25790 0.58700 0.09233 -0.00900
C 	C 	0.33680 0.64050 0.08373 0.00700
C 	C 	0.39340 0.63090 0.11253 -0.08600
C 	C 	0.14510 0.46450 0.14123 -0.00200
S 	S 	0.60250 0.82400 0.18483 -0.27900
S 	S 	0.50000 0.00000 -0.00000 -1.08600
S 	S 	0.00000 0.50000 0.66667 -1.10400
S 	S 	0.50000 0.50000 0.33333 -1.12300
C 	C 	0.70130 0.85065 0.16667 0.07500
C 	C 	0.14935 0.85065 0.83333 0.07800
C 	C 	0.14935 0.29870 0.50000 0.07900
C 	C 	0.29870 0.14935 0.16667 0.07800
C 	C 	0.85065 0.14935 0.83333 0.07800
C 	C 	0.85065 0.70130 0.50000 0.07600
