data_crystal

_cell_length_a 22.13600
_cell_length_b 16.64700
_cell_length_c 16.55100
_cell_angle_alpha 90.00000
_cell_angle_beta  114.63000
_cell_angle_gamma 90.00000

_symmetry_space_group_name_	'P 1'
_symmetry_space_group_name_H-M	'P 1'

loop_
_symmetry_equiv_pos_as_xyz
  x,y,z

loop_
_atom_site_label
_atom_site_type_symbol
_atom_site_fract_x
_atom_site_fract_y
_atom_site_fract_z
_atom_site_charge
O 	O 	0.07390 0.08460 0.62250 -0.45100
O 	O 	0.96000 0.08530 0.56100 -0.46400
O 	O 	0.35830 0.13560 0.54540 -0.22700
C 	C 	0.00250 0.24820 0.96080 -0.04000
H 	H 	0.00400 0.20340 0.92810 0.04800
C 	C 	0.00510 0.33070 0.93740 0.11000
C 	C 	0.01330 0.35490 0.86090 -0.15600
C 	C 	0.01430 0.43470 0.83810 0.10400
C 	C 	0.01950 0.45940 0.75880 -0.08400
H 	H 	0.02240 0.42610 0.71550 0.07000
C 	C 	0.01550 0.29150 0.79840 0.13800
C 	C 	0.95970 0.26690 0.73480 -0.16100
H 	H 	0.92020 0.29040 0.73010 0.10100
C 	C 	0.95630 0.20490 0.67110 0.07900
H 	H 	0.91630 0.18770 0.62670 0.02900
C 	C 	0.01600 0.17400 0.68140 -0.13000
C 	C 	0.07380 0.19530 0.74690 0.06900
H 	H 	0.11300 0.17010 0.75300 0.02200
C 	C 	0.07510 0.25790 0.80810 -0.16900
H 	H 	0.11500 0.27500 0.85290 0.09200
C 	C 	0.01600 0.10610 0.61530 0.35100
C 	C 	0.38100 0.07320 0.53200 0.20600
C 	C 	0.47080 0.14570 0.50790 -0.03500
H 	H 	0.45130 0.19400 0.51230 0.06100
C 	C 	0.44340 0.07480 0.51650 -0.04800
O 	O 	0.92610 0.08460 0.37750 -0.45800
O 	O 	0.04000 0.08530 0.43900 -0.48600
O 	O 	0.64170 0.13560 0.45460 -0.22800
C 	C 	0.99750 0.24820 0.03920 -0.13900
H 	H 	0.99600 0.20340 0.07190 0.07200
C 	C 	0.99490 0.33070 0.06260 0.11800
C 	C 	0.98670 0.35490 0.13910 -0.17500
C 	C 	0.98570 0.43470 0.16190 0.10700
C 	C 	0.98050 0.45940 0.24120 -0.08700
H 	H 	0.97760 0.42610 0.28450 0.07300
C 	C 	0.98450 0.29150 0.20160 0.17100
C 	C 	0.04030 0.26690 0.26520 -0.20000
H 	H 	0.07980 0.29040 0.26990 0.10500
C 	C 	0.04370 0.20490 0.32890 0.06200
H 	H 	0.08370 0.18770 0.37330 0.03000
C 	C 	0.98400 0.17400 0.31860 -0.11700
C 	C 	0.92620 0.19530 0.25310 0.06900
H 	H 	0.88700 0.17010 0.24700 0.01500
C 	C 	0.92490 0.25790 0.19190 -0.18400
H 	H 	0.88500 0.27500 0.14710 0.08800
C 	C 	0.98400 0.10610 0.38470 0.37300
C 	C 	0.61900 0.07320 0.46800 0.20700
C 	C 	0.52920 0.14570 0.49210 -0.03500
H 	H 	0.54870 0.19400 0.48770 0.06200
C 	C 	0.55660 0.07480 0.48350 -0.04700
O 	O 	0.92610 0.91540 0.37750 -0.41600
O 	O 	0.04000 0.91470 0.43900 -0.44600
O 	O 	0.64170 0.86440 0.45460 -0.22300
C 	C 	0.99750 0.75180 0.03920 -0.13000
H 	H 	0.99600 0.79660 0.07190 0.08500
C 	C 	0.99490 0.66930 0.06260 0.11900
C 	C 	0.98670 0.64510 0.13910 -0.17100
C 	C 	0.98570 0.56530 0.16190 0.10500
C 	C 	0.98050 0.54060 0.24120 -0.08500
H 	H 	0.97760 0.57390 0.28450 0.07200
C 	C 	0.98450 0.70850 0.20160 0.16600
C 	C 	0.04030 0.73310 0.26520 -0.18800
H 	H 	0.07980 0.70960 0.26990 0.10600
C 	C 	0.04370 0.79510 0.32890 0.05700
H 	H 	0.08370 0.81230 0.37330 0.04200
C 	C 	0.98400 0.82600 0.31860 -0.09800
C 	C 	0.92620 0.80470 0.25310 0.06300
H 	H 	0.88700 0.82990 0.24700 0.03200
C 	C 	0.92490 0.74210 0.19190 -0.17200
H 	H 	0.88500 0.72500 0.14710 0.09000
C 	C 	0.98400 0.89390 0.38470 0.37200
C 	C 	0.61900 0.92680 0.46800 0.26100
C 	C 	0.52920 0.85430 0.49210 -0.03600
H 	H 	0.54870 0.80600 0.48770 0.06500
C 	C 	0.55660 0.92520 0.48350 0.00200
O 	O 	0.07390 0.91540 0.62250 -0.41000
O 	O 	0.96000 0.91470 0.56100 -0.42500
O 	O 	0.35830 0.86440 0.54540 -0.22300
C 	C 	0.00250 0.75180 0.96080 -0.04100
H 	H 	0.00400 0.79660 0.92810 0.06100
C 	C 	0.00510 0.66930 0.93740 0.11100
C 	C 	0.01330 0.64510 0.86090 -0.15400
C 	C 	0.01430 0.56530 0.83810 0.10200
C 	C 	0.01950 0.54060 0.75880 -0.08400
H 	H 	0.02240 0.57390 0.71550 0.06800
C 	C 	0.01550 0.70850 0.79840 0.13100
C 	C 	0.95970 0.73310 0.73480 -0.15000
H 	H 	0.92020 0.70960 0.73010 0.10100
C 	C 	0.95630 0.79510 0.67110 0.07300
H 	H 	0.91630 0.81230 0.62670 0.04100
C 	C 	0.01600 0.82600 0.68140 -0.11300
C 	C 	0.07380 0.80470 0.74690 0.06300
H 	H 	0.11300 0.82990 0.75300 0.03700
C 	C 	0.07510 0.74210 0.80810 -0.15700
H 	H 	0.11500 0.72500 0.85290 0.09400
C 	C 	0.01600 0.89390 0.61530 0.34900
C 	C 	0.38100 0.92680 0.53200 0.26000
C 	C 	0.47080 0.85430 0.50790 -0.03600
H 	H 	0.45130 0.80600 0.51230 0.06500
C 	C 	0.44340 0.92520 0.51650 0.00200
Zn	Zn	0.07332 0.00000 0.53624 1.20400
N 	N 	0.16590 0.00000 0.54410 -0.30900
N 	N 	0.35580 0.00000 0.53920 -0.24300
C 	C 	0.21840 -0.00000 0.60880 0.21300
H 	H 	0.21450 0.00000 0.66260 -0.06400
C 	C 	0.28600 0.00000 0.61750 -0.30900
H 	H 	0.32270 0.00000 0.67210 0.13200
C 	C 	0.29080 0.00000 0.54110 0.28400
C 	C 	0.23810 0.00000 0.46750 -0.27700
H 	H 	0.24250 0.00000 0.41410 0.12200
C 	C 	0.17200 0.00000 0.46590 0.12900
H 	H 	0.13450 0.00000 0.41210 -0.03000
C 	C 	0.46890 0.00000 0.50720 -0.03300
Zn	Zn	0.92668 0.00000 0.46376 1.20500
N 	N 	0.83410 0.00000 0.45590 -0.31000
N 	N 	0.64420 0.00000 0.46080 -0.24400
C 	C 	0.78160 0.00000 0.39120 0.21400
H 	H 	0.78550 0.00000 0.33740 -0.06800
C 	C 	0.71400 0.00000 0.38250 -0.31100
H 	H 	0.67730 0.00000 0.32790 0.12900
C 	C 	0.70920 0.00000 0.45890 0.28400
C 	C 	0.76190 0.00000 0.53250 -0.27700
H 	H 	0.75750 0.00000 0.58590 0.12700
C 	C 	0.82800 0.00000 0.53410 0.12900
H 	H 	0.86550 0.00000 0.58790 -0.02600
C 	C 	0.53110 0.00000 0.49280 -0.03300
N 	N 	-0.00000 0.38170 -0.00000 -0.33600
N 	N 	-0.00000 0.61830 -0.00000 -0.33400
N 	N 	0.01210 0.50000 0.88930 -0.30200
N 	N 	0.98790 0.50000 0.11070 -0.31200
Mn	Mn	-0.00000 0.50000 -0.00000 1.23900
O 	O 	0.57390 0.58460 0.62250 -0.44100
O 	O 	0.46000 0.58530 0.56100 -0.46600
O 	O 	0.85830 0.63560 0.54540 -0.22600
C 	C 	0.50250 0.74820 0.96080 -0.02100
H 	H 	0.50400 0.70340 0.92810 0.05000
C 	C 	0.50510 0.83070 0.93740 0.11600
C 	C 	0.51330 0.85490 0.86090 -0.15400
C 	C 	0.51430 0.93470 0.83810 0.12300
C 	C 	0.51950 0.95940 0.75880 0.03900
H 	H 	0.52240 0.92610 0.71550 0.04100
C 	C 	0.51550 0.79150 0.79840 0.15400
C 	C 	0.45970 0.76690 0.73480 -0.17800
H 	H 	0.42020 0.79040 0.73010 0.11000
C 	C 	0.45630 0.70490 0.67110 0.07400
H 	H 	0.41630 0.68770 0.62670 0.03200
C 	C 	0.51600 0.67400 0.68140 -0.11900
C 	C 	0.57380 0.69530 0.74690 0.07300
H 	H 	0.61300 0.67010 0.75300 0.02700
C 	C 	0.57510 0.75790 0.80810 -0.17200
H 	H 	0.61500 0.77500 0.85290 0.10100
C 	C 	0.51600 0.60610 0.61530 0.36600
C 	C 	0.88100 0.57320 0.53200 0.22400
C 	C 	0.97080 0.64570 0.50790 0.00600
H 	H 	0.95130 0.69400 0.51230 0.05200
C 	C 	0.94340 0.57480 0.51650 -0.07500
O 	O 	0.42610 0.58460 0.37750 -0.44400
O 	O 	0.54000 0.58530 0.43900 -0.46600
O 	O 	0.14170 0.63560 0.45460 -0.22400
C 	C 	0.49750 0.74820 0.03920 -0.15200
H 	H 	0.49600 0.70340 0.07190 0.08200
C 	C 	0.49490 0.83070 0.06260 0.12100
C 	C 	0.48670 0.85490 0.13910 -0.16600
C 	C 	0.48570 0.93470 0.16190 0.12100
C 	C 	0.48050 0.95940 0.24120 0.04100
H 	H 	0.47760 0.92610 0.28450 0.03900
C 	C 	0.48450 0.79150 0.20160 0.15600
C 	C 	0.54030 0.76690 0.26520 -0.18100
H 	H 	0.57980 0.79040 0.26990 0.10900
C 	C 	0.54370 0.70490 0.32890 0.07300
H 	H 	0.58370 0.68770 0.37330 0.03100
C 	C 	0.48400 0.67400 0.31860 -0.12200
C 	C 	0.42620 0.69530 0.25310 0.07100
H 	H 	0.38700 0.67010 0.24700 0.02100
C 	C 	0.42490 0.75790 0.19190 -0.17600
H 	H 	0.38500 0.77500 0.14710 0.09200
C 	C 	0.48400 0.60610 0.38470 0.36600
C 	C 	0.11900 0.57320 0.46800 0.21000
C 	C 	0.02920 0.64570 0.49210 -0.06400
H 	H 	0.04870 0.69400 0.48770 0.07200
C 	C 	0.05660 0.57480 0.48350 -0.03700
O 	O 	0.42610 0.41540 0.37750 -0.44500
O 	O 	0.54000 0.41470 0.43900 -0.46700
O 	O 	0.14170 0.36440 0.45460 -0.22900
C 	C 	0.49750 0.25180 0.03920 -0.15900
H 	H 	0.49600 0.29660 0.07190 0.08200
C 	C 	0.49490 0.16930 0.06260 0.11500
C 	C 	0.48670 0.14510 0.13910 -0.18800
C 	C 	0.48570 0.06530 0.16190 0.13300
C 	C 	0.48050 0.04060 0.24120 -0.22200
H 	H 	0.47760 0.07390 0.28450 0.10900
C 	C 	0.48450 0.20850 0.20160 0.16100
C 	C 	0.54030 0.23310 0.26520 -0.18600
H 	H 	0.57980 0.20960 0.26990 0.10300
C 	C 	0.54370 0.29510 0.32890 0.07400
H 	H 	0.58370 0.31230 0.37330 0.02800
C 	C 	0.48400 0.32600 0.31860 -0.12400
C 	C 	0.42620 0.30470 0.25310 0.07100
H 	H 	0.38700 0.32990 0.24700 0.01800
C 	C 	0.42490 0.24210 0.19190 -0.18200
H 	H 	0.38500 0.22500 0.14710 0.08500
C 	C 	0.48400 0.39390 0.38470 0.36600
C 	C 	0.11900 0.42680 0.46800 0.21000
C 	C 	0.02920 0.35430 0.49210 -0.06300
H 	H 	0.04870 0.30600 0.48770 0.07100
C 	C 	0.05660 0.42520 0.48350 -0.03800
O 	O 	0.57390 0.41540 0.62250 -0.44300
O 	O 	0.46000 0.41470 0.56100 -0.46700
O 	O 	0.85830 0.36440 0.54540 -0.23100
C 	C 	0.50250 0.25180 0.96080 -0.02000
H 	H 	0.50400 0.29660 0.92810 0.04800
C 	C 	0.50510 0.16930 0.93740 0.11200
C 	C 	0.51330 0.14510 0.86090 -0.17600
C 	C 	0.51430 0.06530 0.83810 0.13700
C 	C 	0.51950 0.04060 0.75880 -0.21600
H 	H 	0.52240 0.07390 0.71550 0.10900
C 	C 	0.51550 0.20850 0.79840 0.15900
C 	C 	0.45970 0.23310 0.73480 -0.18300
H 	H 	0.42020 0.20960 0.73010 0.10500
C 	C 	0.45630 0.29510 0.67110 0.07500
H 	H 	0.41630 0.31230 0.62670 0.02900
C 	C 	0.51600 0.32600 0.68140 -0.12200
C 	C 	0.57380 0.30470 0.74690 0.07300
H 	H 	0.61300 0.32990 0.75300 0.02400
C 	C 	0.57510 0.24210 0.80810 -0.17800
H 	H 	0.61500 0.22500 0.85290 0.09500
C 	C 	0.51600 0.39390 0.61530 0.36700
C 	C 	0.88100 0.42680 0.53200 0.22500
C 	C 	0.97080 0.35430 0.50790 0.00600
H 	H 	0.95130 0.30600 0.51230 0.05100
C 	C 	0.94340 0.42520 0.51650 -0.07500
Zn	Zn	0.57332 0.50000 0.53624 1.22000
N 	N 	0.66590 0.50000 0.54410 -0.30100
N 	N 	0.85580 0.50000 0.53920 -0.21800
C 	C 	0.71840 0.50000 0.60880 0.22200
H 	H 	0.71450 0.50000 0.66260 -0.05200
C 	C 	0.78600 0.50000 0.61750 -0.30700
H 	H 	0.82270 0.50000 0.67210 0.14700
C 	C 	0.79080 0.50000 0.54110 0.29900
C 	C 	0.73810 0.50000 0.46750 -0.27600
H 	H 	0.74250 0.50000 0.41410 0.13700
C 	C 	0.67200 0.50000 0.46590 0.14100
H 	H 	0.63450 0.50000 0.41210 -0.01700
C 	C 	0.96890 0.50000 0.50720 0.05200
Zn	Zn	0.42668 0.50000 0.46376 1.22000
N 	N 	0.33410 0.50000 0.45590 -0.30200
N 	N 	0.14420 0.50000 0.46080 -0.21400
C 	C 	0.28160 0.50000 0.39120 0.22100
H 	H 	0.28550 0.50000 0.33740 -0.05700
C 	C 	0.21400 0.50000 0.38250 -0.30700
H 	H 	0.17730 0.50000 0.32790 0.14000
C 	C 	0.20920 0.50000 0.45890 0.29700
C 	C 	0.26190 0.50000 0.53250 -0.27500
H 	H 	0.25750 0.50000 0.58590 0.14000
C 	C 	0.32800 0.50000 0.53410 0.14100
H 	H 	0.36550 0.50000 0.58790 -0.01500
C 	C 	0.03110 0.50000 0.49280 -0.00400
N 	N 	0.50000 0.88170 -0.00000 -0.31100
N 	N 	0.50000 0.11830 -0.00000 -0.33500
N 	N 	0.51210 0.00000 0.88930 -0.33700
N 	N 	0.48790 0.00000 0.11070 -0.35200
Mn	Mn	0.50000 0.00000 -0.00000 1.22600
