data_crystal

_cell_length_a 9.86060
_cell_length_b 11.67370
_cell_length_c 12.51240
_cell_angle_alpha 66.93000
_cell_angle_beta  74.60200
_cell_angle_gamma 65.78700

_symmetry_space_group_name_	'P 1'
_symmetry_space_group_name_H-M	'P 1'

loop_
_symmetry_equiv_pos_as_xyz
  x,y,z

loop_
_atom_site_label
_atom_site_type_symbol
_atom_site_fract_x
_atom_site_fract_y
_atom_site_fract_z
_atom_site_charge
C 	C 	0.73600 0.23760 0.06960 0.37500
C 	C 	0.61250 0.37390 0.03480 -0.29100
C 	C 	0.48970 0.39220 0.98900 0.40200
C 	C 	0.62010 0.48480 0.04530 0.32100
F 	F 	0.47400 0.28860 0.97840 -0.38000
F 	F 	0.73890 0.47250 0.08860 -0.42400
O 	O 	0.74410 0.17730 0.17610 -0.23700
O 	O 	0.81980 0.20200 0.98710 -0.32300
C 	C 	0.26400 0.76240 0.93040 0.50000
C 	C 	0.38750 0.62610 0.96520 -0.10300
C 	C 	0.51030 0.60780 0.01100 0.19600
C 	C 	0.37990 0.51520 0.95470 0.24000
F 	F 	0.52600 0.71140 0.02160 -0.36600
F 	F 	0.26110 0.52750 0.91140 -0.40700
O 	O 	0.25590 0.82270 0.82390 -0.20600
O 	O 	0.18020 0.79800 0.01290 -0.45200
Cd	Cd	-0.00000 0.00000 -0.00000 1.11300
C 	C 	0.32460 0.66020 0.61780 0.38700
C 	C 	0.34880 0.52220 0.61910 -0.18300
C 	C 	0.45730 0.40900 0.67870 0.28500
C 	C 	0.47100 0.28310 0.68590 0.28700
C 	C 	0.38110 0.26310 0.63120 -0.20200
C 	C 	0.27790 0.37610 0.56910 0.27700
C 	C 	0.26180 0.50080 0.56360 0.26500
C 	C 	0.39690 0.12480 0.63830 0.42900
F 	F 	0.55330 0.41720 0.73230 -0.37100
F 	F 	0.57580 0.17720 0.74800 -0.37900
F 	F 	0.18830 0.36360 0.51290 -0.39000
F 	F 	0.15670 0.60370 0.50070 -0.37200
O 	O 	0.43350 0.68170 0.62900 -0.15100
O 	O 	0.19380 0.73930 0.61180 -0.16400
O 	O 	0.35470 0.05160 0.73200 -0.24300
O 	O 	0.44960 0.09130 0.55100 -0.20100
C 	C 	0.67540 0.33980 0.38220 0.38900
C 	C 	0.65120 0.47780 0.38090 -0.18200
C 	C 	0.54270 0.59100 0.32130 0.29100
C 	C 	0.52900 0.71690 0.31410 0.28100
C 	C 	0.61890 0.73690 0.36880 -0.17400
C 	C 	0.72210 0.62390 0.43090 0.27100
C 	C 	0.73820 0.49920 0.43640 0.27100
C 	C 	0.60310 0.87520 0.36170 0.40500
F 	F 	0.44670 0.58280 0.26770 -0.37500
F 	F 	0.42420 0.82280 0.25200 -0.35600
F 	F 	0.81170 0.63640 0.48710 -0.35200
F 	F 	0.84330 0.39630 0.49930 -0.35000
O 	O 	0.56650 0.31830 0.37100 -0.16500
O 	O 	0.80620 0.26070 0.38820 -0.16100
O 	O 	0.64530 0.94840 0.26800 -0.13900
O 	O 	0.55040 0.90870 0.44900 -0.10300
C 	C 	0.70640 0.64820 0.74360 0.14500
H 	H 	0.67190 0.59870 0.72130 0.08900
C 	C 	0.92940 0.45590 0.78760 -0.33600
H 	H 	0.87850 0.42000 0.76010 0.21800
H 	H 	0.02310 0.45470 0.73910 0.14900
H 	H 	0.94760 0.40320 0.86700 0.19800
C 	C 	0.89610 0.66440 0.81810 -0.65200
H 	H 	0.81830 0.74600 0.82300 0.32700
H 	H 	0.93080 0.61250 0.89330 0.31900
H 	H 	0.97790 0.68340 0.76150 0.33100
N 	N 	0.83770 0.59050 0.78270 0.04100
O 	O 	0.62590 0.76530 0.73470 -0.06200
C 	C 	0.29360 0.35180 0.25640 0.12200
H 	H 	0.32810 0.40130 0.27870 0.08700
C 	C 	0.07060 0.54410 0.21240 -0.81400
H 	H 	0.12150 0.58000 0.23990 0.33600
H 	H 	0.97690 0.54530 0.26090 0.38500
H 	H 	0.05240 0.59680 0.13300 0.28200
C 	C 	0.10390 0.33560 0.18190 -0.50300
H 	H 	0.18170 0.25400 0.17700 0.21500
H 	H 	0.06920 0.38750 0.10670 0.19700
H 	H 	0.02210 0.31660 0.23850 0.21600
N 	N 	0.16230 0.40950 0.21730 0.05800
O 	O 	0.37410 0.23470 0.26530 -0.13100
