data_crystal

_cell_length_a 14.79280
_cell_length_b 14.79280
_cell_length_c 14.79280
_cell_angle_alpha 104.26400
_cell_angle_beta  112.13600
_cell_angle_gamma 112.13600

_symmetry_space_group_name_	'P 1'
_symmetry_space_group_name_H-M	'P 1'

loop_
_symmetry_equiv_pos_as_xyz
  x,y,z

loop_
_atom_site_label
_atom_site_type_symbol
_atom_site_fract_x
_atom_site_fract_y
_atom_site_fract_z
_atom_site_charge
Co	Co	0.56667 0.90718 0.49317 1.09900
Co	Co	0.93333 0.42650 0.34051 1.09900
Co	Co	0.58599 0.49317 0.42650 1.09700
Co	Co	0.91401 0.34051 0.90718 1.09700
Co	Co	0.43333 0.09282 0.50683 1.09800
Co	Co	0.06667 0.57350 0.65949 1.09800
Co	Co	0.41401 0.50683 0.57350 1.09700
Co	Co	0.08599 0.65949 0.09282 1.09700
H 	H 	0.36160 0.73340 0.53820 0.02700
H 	H 	0.45960 0.75840 0.65060 0.00600
H 	H 	0.57100 0.68110 0.30050 0.03500
H 	H 	0.68830 0.76370 0.41180 0.03700
H 	H 	0.57200 0.89400 0.63800 0.16100
H 	H 	0.13840 0.67660 0.37180 0.02700
H 	H 	0.04040 0.69100 0.29880 0.00600
H 	H 	0.92900 0.22950 0.11010 0.03400
H 	H 	0.81170 0.22350 0.07540 0.03700
H 	H 	0.92800 0.56600 0.32200 0.16100
H 	H 	0.80480 0.53820 0.67660 0.02600
H 	H 	0.89220 0.65060 0.69100 0.00500
H 	H 	0.61940 0.30050 0.22950 0.03500
H 	H 	0.64810 0.41180 0.22350 0.03700
H 	H 	0.74400 0.63800 0.56600 0.16100
H 	H 	0.69520 0.37180 0.73340 0.02600
H 	H 	0.60780 0.29880 0.75840 0.00500
H 	H 	0.88060 0.11010 0.68110 0.03400
H 	H 	0.85190 0.07540 0.76370 0.03700
H 	H 	0.75600 0.32200 0.89400 0.16100
H 	H 	0.63840 0.26660 0.46180 0.02700
H 	H 	0.54040 0.24160 0.34940 0.00600
H 	H 	0.42900 0.31890 0.69950 0.03500
H 	H 	0.31170 0.23630 0.58820 0.03700
H 	H 	0.42800 0.10600 0.36200 0.16100
H 	H 	0.86160 0.32340 0.62820 0.02700
H 	H 	0.95960 0.30900 0.70120 0.00600
H 	H 	0.07100 0.77050 0.88990 0.03400
H 	H 	0.18830 0.77650 0.92460 0.03700
H 	H 	0.07200 0.43400 0.67800 0.16100
H 	H 	0.19520 0.46180 0.32340 0.02600
H 	H 	0.10780 0.34940 0.30900 0.00500
H 	H 	0.38060 0.69950 0.77050 0.03500
H 	H 	0.35190 0.58820 0.77650 0.03700
H 	H 	0.25600 0.36200 0.43400 0.16100
H 	H 	0.30480 0.62820 0.26660 0.02600
H 	H 	0.39220 0.70120 0.24160 0.00500
H 	H 	0.11940 0.88990 0.31890 0.03400
H 	H 	0.14810 0.92460 0.23630 0.03700
H 	H 	0.24400 0.67800 0.10600 0.16100
C 	C 	0.48300 0.70740 0.52420 0.07500
C 	C 	0.55890 0.68030 0.43320 0.09600
C 	C 	0.44350 0.76520 0.58350 -0.00700
C 	C 	0.62010 0.69120 0.37250 -0.07100
C 	C 	0.01700 0.54120 0.22440 0.07400
C 	C 	0.94110 0.37430 0.12140 0.09600
C 	C 	0.05650 0.64000 0.32170 -0.00800
C 	C 	0.87990 0.25240 0.07110 -0.06800
C 	C 	0.81680 0.52420 0.54120 0.07500
C 	C 	0.75290 0.43320 0.37430 0.09600
C 	C 	0.81830 0.58350 0.64000 -0.00700
C 	C 	0.68130 0.37250 0.25240 -0.07100
C 	C 	0.68320 0.22440 0.70740 0.07500
C 	C 	0.74710 0.12140 0.68030 0.09600
C 	C 	0.68170 0.32170 0.76520 -0.00700
C 	C 	0.81870 0.07110 0.69120 -0.07200
C 	C 	0.51700 0.29260 0.47580 0.07500
C 	C 	0.44110 0.31970 0.56680 0.09600
C 	C 	0.55650 0.23480 0.41650 -0.00700
C 	C 	0.37990 0.30880 0.62750 -0.07100
C 	C 	0.98300 0.45880 0.77560 0.07400
C 	C 	0.05890 0.62570 0.87860 0.09600
C 	C 	0.94350 0.36000 0.67830 -0.00800
C 	C 	0.12010 0.74760 0.92890 -0.06800
C 	C 	0.18320 0.47580 0.45880 0.07500
C 	C 	0.24710 0.56680 0.62570 0.09600
C 	C 	0.18170 0.41650 0.36000 -0.00700
C 	C 	0.31870 0.62750 0.74760 -0.07100
C 	C 	0.31680 0.77560 0.29260 0.07500
C 	C 	0.25290 0.87860 0.31970 0.09600
C 	C 	0.31830 0.67830 0.23480 -0.00700
C 	C 	0.18130 0.92890 0.30880 -0.07200
N 	N 	0.53230 0.75280 0.47370 -0.26000
N 	N 	0.47920 0.61530 0.51710 -0.23000
N 	N 	0.52930 0.59720 0.45690 -0.23500
N 	N 	0.96770 0.44140 0.22050 -0.25900
N 	N 	0.02080 0.53790 0.13610 -0.23000
N 	N 	0.97070 0.42760 0.06790 -0.23300
N 	N 	0.72090 0.47370 0.44140 -0.26000
N 	N 	0.90180 0.51710 0.53790 -0.23000
N 	N 	0.85970 0.45690 0.42760 -0.23500
N 	N 	0.77910 0.22050 0.75280 -0.26000
N 	N 	0.59820 0.13610 0.61530 -0.23000
N 	N 	0.64030 0.06790 0.59720 -0.23500
N 	N 	0.46770 0.24720 0.52630 -0.26000
N 	N 	0.52080 0.38470 0.48290 -0.23000
N 	N 	0.47070 0.40280 0.54310 -0.23500
N 	N 	0.03230 0.55860 0.77950 -0.25900
N 	N 	0.97920 0.46210 0.86390 -0.23000
N 	N 	0.02930 0.57240 0.93210 -0.23300
N 	N 	0.27910 0.52630 0.55860 -0.26000
N 	N 	0.09820 0.48290 0.46210 -0.23000
N 	N 	0.14030 0.54310 0.57240 -0.23500
N 	N 	0.22090 0.77950 0.24720 -0.26000
N 	N 	0.40180 0.86390 0.38470 -0.23000
N 	N 	0.35970 0.93210 0.40280 -0.23500
O 	O 	0.50270 0.87600 0.60750 -0.42600
O 	O 	0.65040 0.61130 0.36270 -0.30500
O 	O 	0.99730 0.60480 0.37330 -0.42500
O 	O 	0.84960 0.21230 0.96090 -0.30700
O 	O 	0.73150 0.60750 0.60480 -0.42600
O 	O 	0.75140 0.36270 0.21230 -0.30500
O 	O 	0.76850 0.37330 0.87600 -0.42600
O 	O 	0.74860 0.96090 0.61130 -0.30400
O 	O 	0.49730 0.12400 0.39250 -0.42600
O 	O 	0.34960 0.38870 0.63730 -0.30500
O 	O 	0.00270 0.39520 0.62670 -0.42500
O 	O 	0.15040 0.78770 0.03910 -0.30700
O 	O 	0.26850 0.39250 0.39520 -0.42600
O 	O 	0.24860 0.63730 0.78770 -0.30500
O 	O 	0.23150 0.62670 0.12400 -0.42600
O 	O 	0.25140 0.03910 0.38870 -0.30400
