data_crystal

_cell_length_a 17.70900
_cell_length_b 17.70900
_cell_length_c 11.52300
_cell_angle_alpha 90.00000
_cell_angle_beta  90.00000
_cell_angle_gamma 90.00000

_symmetry_space_group_name_	'P 1'
_symmetry_space_group_name_H-M	'P 1'

loop_
_symmetry_equiv_pos_as_xyz
  x,y,z

loop_
_atom_site_label
_atom_site_type_symbol
_atom_site_fract_x
_atom_site_fract_y
_atom_site_fract_z
_atom_site_charge
Zn	Zn	0.25976 0.71064 0.10032 1.11700
N 	N 	0.19380 0.66880 0.22730 -0.29600
N 	N 	0.18890 0.69550 0.33970 -0.29700
N 	N 	0.11700 0.59390 0.32480 -0.31900
C 	C 	0.04670 0.71160 0.53100 -0.34800
H 	H 	0.03340 0.73010 0.45550 0.09900
H 	H 	0.05700 0.75340 0.58160 0.07500
H 	H 	0.00560 0.68250 0.56190 0.06900
C 	C 	0.12300 0.65740 0.52080 -0.28300
H 	H 	0.16470 0.68020 0.56260 0.04700
H 	H 	0.11310 0.60810 0.55420 0.06900
C 	C 	0.14260 0.64960 0.39450 0.13000
C 	C 	0.15100 0.60820 0.22350 0.07600
H 	H 	0.14490 0.57850 0.15760 -0.10700
C 	C 	0.18640 0.60360 0.58840 -0.34700
H 	H 	0.22210 0.58460 0.53290 0.07800
H 	H 	0.16130 0.56200 0.62540 0.06700
H 	H 	0.21240 0.63310 0.64570 0.05300
H 	H 	0.07210 0.63960 0.53580 0.06900
H 	H 	0.12700 0.70960 0.54570 0.05800
Zn	Zn	0.75976 0.21064 0.60032 1.11700
N 	N 	0.69380 0.16880 0.72730 -0.29700
N 	N 	0.68890 0.19550 0.83970 -0.29800
N 	N 	0.61700 0.09390 0.82480 -0.32000
C 	C 	0.54670 0.21160 0.03100 -0.33500
H 	H 	0.53340 0.23010 0.95550 0.09100
H 	H 	0.55700 0.25340 0.08160 0.07000
H 	H 	0.50560 0.18250 0.06190 0.06400
C 	C 	0.62300 0.15740 0.02080 -0.27700
H 	H 	0.66470 0.18020 0.06260 0.04800
H 	H 	0.61310 0.10810 0.05420 0.06900
C 	C 	0.64260 0.14960 0.89450 0.12600
C 	C 	0.65100 0.10820 0.72350 0.07600
H 	H 	0.64490 0.07850 0.65760 -0.10700
C 	C 	0.68640 0.10360 0.08840 -0.35500
H 	H 	0.72210 0.08460 0.03290 0.08300
H 	H 	0.66130 0.06200 0.12540 0.07100
H 	H 	0.71240 0.13310 0.14570 0.05600
H 	H 	0.57210 0.13960 0.03580 0.06700
H 	H 	0.62700 0.20960 0.04570 0.05500
Zn	Zn	0.24024 0.28936 0.60032 1.11700
N 	N 	0.30620 0.33120 0.72730 -0.29700
N 	N 	0.31110 0.30450 0.83970 -0.29800
N 	N 	0.38300 0.40610 0.82480 -0.32000
C 	C 	0.45330 0.28840 0.03100 -0.33500
H 	H 	0.46660 0.26990 0.95550 0.09100
H 	H 	0.44300 0.24660 0.08160 0.07000
H 	H 	0.49440 0.31750 0.06190 0.06400
C 	C 	0.37700 0.34260 0.02080 -0.28400
H 	H 	0.33530 0.31980 0.06260 0.04800
H 	H 	0.38690 0.39190 0.05420 0.06900
C 	C 	0.35740 0.35040 0.89450 0.12900
C 	C 	0.34900 0.39180 0.72350 0.07600
H 	H 	0.35510 0.42150 0.65760 -0.10700
C 	C 	0.31360 0.39640 0.08840 -0.34700
H 	H 	0.27790 0.41540 0.03290 0.07900
H 	H 	0.33870 0.43800 0.12540 0.06700
H 	H 	0.28760 0.36690 0.14570 0.05200
H 	H 	0.42790 0.36040 0.03580 0.06800
H 	H 	0.37300 0.29040 0.04570 0.05700
Zn	Zn	0.74024 0.78936 0.10032 1.11600
N 	N 	0.80620 0.83120 0.22730 -0.29800
N 	N 	0.81110 0.80450 0.33970 -0.29800
N 	N 	0.88300 0.90610 0.32480 -0.32100
C 	C 	0.95330 0.78840 0.53100 -0.33800
H 	H 	0.96660 0.76990 0.45550 0.09200
H 	H 	0.94300 0.74660 0.58160 0.07000
H 	H 	0.99440 0.81750 0.56190 0.06300
C 	C 	0.87700 0.84260 0.52080 -0.28600
H 	H 	0.83530 0.81980 0.56260 0.04800
H 	H 	0.88690 0.89190 0.55420 0.06900
C 	C 	0.85740 0.85040 0.39450 0.13100
C 	C 	0.84900 0.89180 0.22350 0.07600
H 	H 	0.85510 0.92150 0.15760 -0.10900
C 	C 	0.81360 0.89640 0.58840 -0.34600
H 	H 	0.77790 0.91540 0.53290 0.07800
H 	H 	0.83870 0.93800 0.62540 0.06600
H 	H 	0.78760 0.86690 0.64570 0.05200
H 	H 	0.92790 0.86040 0.53580 0.06800
H 	H 	0.87300 0.79040 0.54570 0.05700
Zn	Zn	0.03936 0.50976 0.35032 1.11700
N 	N 	0.08120 0.44380 0.47730 -0.29700
N 	N 	0.05450 0.43890 0.58970 -0.29800
N 	N 	0.15610 0.36700 0.57480 -0.32000
C 	C 	0.03840 0.29670 0.78100 -0.35600
H 	H 	0.01990 0.28340 0.70550 0.09900
H 	H 	0.99660 0.30700 0.83160 0.07700
H 	H 	0.06750 0.25560 0.81190 0.06900
C 	C 	0.09260 0.37300 0.77080 -0.27900
H 	H 	0.06980 0.41470 0.81260 0.04600
H 	H 	0.14190 0.36310 0.80420 0.06700
C 	C 	0.10040 0.39260 0.64450 0.12900
C 	C 	0.14180 0.40100 0.47350 0.07600
H 	H 	0.17150 0.39490 0.40760 -0.10700
C 	C 	0.14640 0.43640 0.83840 -0.34700
H 	H 	0.16540 0.47210 0.78290 0.07900
H 	H 	0.18800 0.41130 0.87540 0.06700
H 	H 	0.11690 0.46240 0.89570 0.05200
H 	H 	0.11040 0.32210 0.78580 0.06900
H 	H 	0.04040 0.37700 0.79570 0.05700
Zn	Zn	0.53936 0.00976 0.85032 1.11600
N 	N 	0.58120 0.94380 0.97730 -0.29500
N 	N 	0.55450 0.93890 0.08970 -0.30000
N 	N 	0.65610 0.86700 0.07480 -0.32300
C 	C 	0.53840 0.79670 0.28100 -0.34400
H 	H 	0.51990 0.78340 0.20550 0.09500
H 	H 	0.49660 0.80700 0.33160 0.07200
H 	H 	0.56750 0.75560 0.31190 0.06600
C 	C 	0.59260 0.87300 0.27080 -0.28500
H 	H 	0.56980 0.91470 0.31260 0.04800
H 	H 	0.64190 0.86310 0.30420 0.06900
C 	C 	0.60040 0.89260 0.14450 0.13000
C 	C 	0.64180 0.90100 0.97350 0.08000
H 	H 	0.67150 0.89490 0.90760 -0.10800
C 	C 	0.64640 0.93640 0.33840 -0.34500
H 	H 	0.66540 0.97210 0.28290 0.07700
H 	H 	0.68800 0.91130 0.37540 0.06600
H 	H 	0.61690 0.96240 0.39570 0.05200
H 	H 	0.61040 0.82210 0.28580 0.06900
H 	H 	0.54040 0.87700 0.29570 0.05800
Zn	Zn	0.46064 0.49024 0.85032 1.11700
N 	N 	0.41880 0.55620 0.97730 -0.29700
N 	N 	0.44550 0.56110 0.08970 -0.29800
N 	N 	0.34390 0.63300 0.07480 -0.32100
C 	C 	0.46160 0.70330 0.28100 -0.34400
H 	H 	0.48010 0.71660 0.20550 0.09500
H 	H 	0.50340 0.69300 0.33160 0.07200
H 	H 	0.43250 0.74440 0.31190 0.06600
C 	C 	0.40740 0.62700 0.27080 -0.28500
H 	H 	0.43020 0.58530 0.31260 0.04800
H 	H 	0.35810 0.63690 0.30420 0.06900
C 	C 	0.39960 0.60740 0.14450 0.13000
C 	C 	0.35820 0.59900 0.97350 0.07700
H 	H 	0.32850 0.60510 0.90760 -0.10700
C 	C 	0.35360 0.56360 0.33840 -0.34600
H 	H 	0.33460 0.52790 0.28290 0.07800
H 	H 	0.31200 0.58870 0.37540 0.06700
H 	H 	0.38310 0.53760 0.39570 0.05200
H 	H 	0.38960 0.67790 0.28580 0.06900
H 	H 	0.45960 0.62300 0.29570 0.05800
Zn	Zn	0.96064 0.99024 0.35032 1.11500
N 	N 	0.91880 0.05620 0.47730 -0.29500
N 	N 	0.94550 0.06110 0.58970 -0.29700
N 	N 	0.84390 0.13300 0.57480 -0.32100
C 	C 	0.96160 0.20330 0.78100 -0.32500
H 	H 	0.98010 0.21660 0.70550 0.09000
H 	H 	0.00340 0.19300 0.83160 0.06400
H 	H 	0.93250 0.24440 0.81190 0.06000
C 	C 	0.90740 0.12700 0.77080 -0.29300
H 	H 	0.93020 0.08530 0.81260 0.05000
H 	H 	0.85810 0.13690 0.80420 0.07200
C 	C 	0.89960 0.10740 0.64450 0.13300
C 	C 	0.85820 0.09900 0.47350 0.07700
H 	H 	0.82850 0.10510 0.40760 -0.10600
C 	C 	0.85360 0.06360 0.83840 -0.34400
H 	H 	0.83460 0.02790 0.78290 0.07800
H 	H 	0.81200 0.08870 0.87540 0.06500
H 	H 	0.88310 0.03760 0.89570 0.05100
H 	H 	0.88960 0.17790 0.78580 0.06900
H 	H 	0.95960 0.12300 0.79570 0.05900
Zn	Zn	0.74024 0.28936 0.89968 1.11600
N 	N 	0.80620 0.33120 0.77270 -0.29700
N 	N 	0.81110 0.30450 0.66030 -0.29800
N 	N 	0.88300 0.40610 0.67520 -0.32000
C 	C 	0.95330 0.28840 0.46900 -0.34900
H 	H 	0.96660 0.26990 0.54450 0.09800
H 	H 	0.94300 0.24660 0.41840 0.07500
H 	H 	0.99440 0.31750 0.43810 0.06900
C 	C 	0.87700 0.34260 0.47920 -0.28300
H 	H 	0.83530 0.31980 0.43740 0.04700
H 	H 	0.88690 0.39190 0.44580 0.06900
C 	C 	0.85740 0.35040 0.60550 0.13000
C 	C 	0.84900 0.39180 0.77650 0.07600
H 	H 	0.85510 0.42150 0.84240 -0.10700
C 	C 	0.81360 0.39640 0.41160 -0.34700
H 	H 	0.77790 0.41540 0.46710 0.07800
H 	H 	0.83870 0.43800 0.37460 0.06700
H 	H 	0.78760 0.36690 0.35430 0.05300
H 	H 	0.92790 0.36040 0.46420 0.06900
H 	H 	0.87300 0.29040 0.45430 0.05800
Zn	Zn	0.24024 0.78936 0.39968 1.11700
N 	N 	0.30620 0.83120 0.27270 -0.29700
N 	N 	0.31110 0.80450 0.16030 -0.29800
N 	N 	0.38300 0.90610 0.17520 -0.32000
C 	C 	0.45330 0.78840 0.96900 -0.33500
H 	H 	0.46660 0.76990 0.04450 0.09100
H 	H 	0.44300 0.74660 0.91840 0.07000
H 	H 	0.49440 0.81750 0.93810 0.06400
C 	C 	0.37700 0.84260 0.97920 -0.27700
H 	H 	0.33530 0.81980 0.93740 0.04800
H 	H 	0.38690 0.89190 0.94580 0.06900
C 	C 	0.35740 0.85040 0.10550 0.12600
C 	C 	0.34900 0.89180 0.27650 0.07600
H 	H 	0.35510 0.92150 0.34240 -0.10700
C 	C 	0.31360 0.89640 0.91160 -0.35500
H 	H 	0.27790 0.91540 0.96710 0.08300
H 	H 	0.33870 0.93800 0.87460 0.07100
H 	H 	0.28760 0.86690 0.85430 0.05600
H 	H 	0.42790 0.86040 0.96420 0.06700
H 	H 	0.37300 0.79040 0.95430 0.05500
Zn	Zn	0.75976 0.71064 0.39968 1.11700
N 	N 	0.69380 0.66880 0.27270 -0.29700
N 	N 	0.68890 0.69550 0.16030 -0.29800
N 	N 	0.61700 0.59390 0.17520 -0.32000
C 	C 	0.54670 0.71160 0.96900 -0.33500
H 	H 	0.53340 0.73010 0.04450 0.09100
H 	H 	0.55700 0.75340 0.91840 0.07000
H 	H 	0.50560 0.68250 0.93810 0.06400
C 	C 	0.62300 0.65740 0.97920 -0.28400
H 	H 	0.66470 0.68020 0.93740 0.04800
H 	H 	0.61310 0.60810 0.94580 0.06900
C 	C 	0.64260 0.64960 0.10550 0.12900
C 	C 	0.65100 0.60820 0.27650 0.07600
H 	H 	0.64490 0.57850 0.34240 -0.10700
C 	C 	0.68640 0.60360 0.91160 -0.34700
H 	H 	0.72210 0.58460 0.96710 0.07900
H 	H 	0.66130 0.56200 0.87460 0.06700
H 	H 	0.71240 0.63310 0.85430 0.05200
H 	H 	0.57210 0.63960 0.96420 0.06800
H 	H 	0.62700 0.70960 0.95430 0.05700
Zn	Zn	0.25976 0.21064 0.89968 1.11600
N 	N 	0.19380 0.16880 0.77270 -0.29800
N 	N 	0.18890 0.19550 0.66030 -0.29800
N 	N 	0.11700 0.09390 0.67520 -0.32100
C 	C 	0.04670 0.21160 0.46900 -0.33800
H 	H 	0.03340 0.23010 0.54450 0.09200
H 	H 	0.05700 0.25340 0.41840 0.07000
H 	H 	0.00560 0.18250 0.43810 0.06300
C 	C 	0.12300 0.15740 0.47920 -0.28600
H 	H 	0.16470 0.18020 0.43740 0.04800
H 	H 	0.11310 0.10810 0.44580 0.06900
C 	C 	0.14260 0.14960 0.60550 0.13100
C 	C 	0.15100 0.10820 0.77650 0.07600
H 	H 	0.14490 0.07850 0.84240 -0.10900
C 	C 	0.18640 0.10360 0.41160 -0.34600
H 	H 	0.22210 0.08460 0.46710 0.07800
H 	H 	0.16130 0.06200 0.37460 0.06600
H 	H 	0.21240 0.13310 0.35430 0.05200
H 	H 	0.07210 0.13960 0.46420 0.06800
H 	H 	0.12700 0.20960 0.45430 0.05700
Zn	Zn	0.96064 0.49024 0.64968 1.11700
N 	N 	0.91880 0.55620 0.52270 -0.29700
N 	N 	0.94550 0.56110 0.41030 -0.29800
N 	N 	0.84390 0.63300 0.42520 -0.32000
C 	C 	0.96160 0.70330 0.21900 -0.35600
H 	H 	0.98010 0.71660 0.29450 0.09900
H 	H 	0.00340 0.69300 0.16840 0.07700
H 	H 	0.93250 0.74440 0.18810 0.06900
C 	C 	0.90740 0.62700 0.22920 -0.27900
H 	H 	0.93020 0.58530 0.18740 0.04600
H 	H 	0.85810 0.63690 0.19580 0.06700
C 	C 	0.89960 0.60740 0.35550 0.12900
C 	C 	0.85820 0.59900 0.52650 0.07600
H 	H 	0.82850 0.60510 0.59240 -0.10700
C 	C 	0.85360 0.56360 0.16160 -0.34700
H 	H 	0.83460 0.52790 0.21710 0.07900
H 	H 	0.81200 0.58870 0.12460 0.06700
H 	H 	0.88310 0.53760 0.10430 0.05200
H 	H 	0.88960 0.67790 0.21420 0.06900
H 	H 	0.95960 0.62300 0.20430 0.05700
Zn	Zn	0.46064 0.99024 0.14968 1.11600
N 	N 	0.41880 0.05620 0.02270 -0.29500
N 	N 	0.44550 0.06110 0.91030 -0.30000
N 	N 	0.34390 0.13300 0.92520 -0.32300
C 	C 	0.46160 0.20330 0.71900 -0.34400
H 	H 	0.48010 0.21660 0.79450 0.09500
H 	H 	0.50340 0.19300 0.66840 0.07200
H 	H 	0.43250 0.24440 0.68810 0.06600
C 	C 	0.40740 0.12700 0.72920 -0.28500
H 	H 	0.43020 0.08530 0.68740 0.04800
H 	H 	0.35810 0.13690 0.69580 0.06900
C 	C 	0.39960 0.10740 0.85550 0.13000
C 	C 	0.35820 0.09900 0.02650 0.08000
H 	H 	0.32850 0.10510 0.09240 -0.10800
C 	C 	0.35360 0.06360 0.66160 -0.34500
H 	H 	0.33460 0.02790 0.71710 0.07700
H 	H 	0.31200 0.08870 0.62460 0.06600
H 	H 	0.38310 0.03760 0.60430 0.05200
H 	H 	0.38960 0.17790 0.71420 0.06900
H 	H 	0.45960 0.12300 0.70430 0.05800
Zn	Zn	0.53936 0.50976 0.14968 1.11700
N 	N 	0.58120 0.44380 0.02270 -0.29700
N 	N 	0.55450 0.43890 0.91030 -0.29800
N 	N 	0.65610 0.36700 0.92520 -0.32100
C 	C 	0.53840 0.29670 0.71900 -0.34400
H 	H 	0.51990 0.28340 0.79450 0.09500
H 	H 	0.49660 0.30700 0.66840 0.07200
H 	H 	0.56750 0.25560 0.68810 0.06600
C 	C 	0.59260 0.37300 0.72920 -0.28500
H 	H 	0.56980 0.41470 0.68740 0.04800
H 	H 	0.64190 0.36310 0.69580 0.06900
C 	C 	0.60040 0.39260 0.85550 0.13000
C 	C 	0.64180 0.40100 0.02650 0.07700
H 	H 	0.67150 0.39490 0.09240 -0.10700
C 	C 	0.64640 0.43640 0.66160 -0.34600
H 	H 	0.66540 0.47210 0.71710 0.07800
H 	H 	0.68800 0.41130 0.62460 0.06700
H 	H 	0.61690 0.46240 0.60430 0.05200
H 	H 	0.61040 0.32210 0.71420 0.06900
H 	H 	0.54040 0.37700 0.70430 0.05800
Zn	Zn	0.03936 0.00976 0.64968 1.11500
N 	N 	0.08120 0.94380 0.52270 -0.29500
N 	N 	0.05450 0.93890 0.41030 -0.29700
N 	N 	0.15610 0.86700 0.42520 -0.32100
C 	C 	0.03840 0.79670 0.21900 -0.32500
H 	H 	0.01990 0.78340 0.29450 0.09000
H 	H 	0.99660 0.80700 0.16840 0.06400
H 	H 	0.06750 0.75560 0.18810 0.06000
C 	C 	0.09260 0.87300 0.22920 -0.29300
H 	H 	0.06980 0.91470 0.18740 0.05000
H 	H 	0.14190 0.86310 0.19580 0.07200
C 	C 	0.10040 0.89260 0.35550 0.13300
C 	C 	0.14180 0.90100 0.52650 0.07700
H 	H 	0.17150 0.89490 0.59240 -0.10600
C 	C 	0.14640 0.93640 0.16160 -0.34400
H 	H 	0.16540 0.97210 0.21710 0.07800
H 	H 	0.18800 0.91130 0.12460 0.06500
H 	H 	0.11690 0.96240 0.10430 0.05100
H 	H 	0.11040 0.82210 0.21420 0.06900
H 	H 	0.04040 0.87700 0.20430 0.05900
