data_crystal

_cell_length_a 20.22030
_cell_length_b 20.22030
_cell_length_c 17.48410
_cell_angle_alpha 90.00000
_cell_angle_beta  90.00000
_cell_angle_gamma 90.00000

_symmetry_space_group_name_	'P 1'
_symmetry_space_group_name_H-M	'P 1'

loop_
_symmetry_equiv_pos_as_xyz
  x,y,z

loop_
_atom_site_label
_atom_site_type_symbol
_atom_site_fract_x
_atom_site_fract_y
_atom_site_fract_z
_atom_site_charge
O 	O 	0.58701 0.46862 0.03301 -0.39200
O 	O 	0.53078 0.38450 0.08060 -0.30200
C 	C 	0.71730 0.45780 0.00880 0.17200
C 	C 	0.58330 0.41460 0.06910 0.32100
C 	C 	0.70900 0.40630 0.07090 0.02100
C 	C 	0.64770 0.38660 0.09920 -0.07500
C 	C 	0.76570 0.37620 0.09820 -0.07700
H 	H 	0.80650 0.38730 0.07740 0.05800
C 	C 	0.64510 0.33950 0.15750 0.00300
H 	H 	0.60450 0.32650 0.17740 0.04200
C 	C 	0.70290 0.31230 0.18550 -0.07500
H 	H 	0.70120 0.28160 0.22510 0.05200
C 	C 	0.76260 0.33050 0.15510 -0.00200
H 	H 	0.80140 0.31150 0.17350 0.02700
C 	C 	0.68050 0.67960 0.12570 0.08300
H 	H 	0.67570 0.64220 0.15630 0.02800
C 	C 	0.70420 0.77780 0.08580 0.02400
H 	H 	0.71930 0.82120 0.08470 0.04000
C 	C 	0.67500 0.74610 0.02810 -0.04500
H 	H 	0.66650 0.76330 0.97970 0.07100
C 	C 	0.67750 0.60160 0.94910 -0.09600
H 	H 	0.68830 0.63640 0.91290 0.06500
H 	H 	0.65520 0.56670 0.92110 0.07300
C 	C 	0.63020 0.62940 0.00870 -0.10600
H 	H 	0.61740 0.59440 0.04360 0.07200
H 	H 	0.59050 0.64520 0.98340 0.08300
N 	N 	0.70830 0.73501 0.14800 -0.21000
N 	N 	0.65970 0.68405 0.05270 -0.09800
O 	O 	0.71618 0.44238 0.94065 -0.19600
C 	C 	0.74120 0.57420 0.98230 0.02600
H 	H 	0.76950 0.56000 0.94070 0.04100
H 	H 	0.76390 0.60930 0.00950 0.02500
N 	N 	0.73095 0.51835 0.03470 -0.12700
O 	O 	0.08701 0.96862 0.53301 -0.37500
O 	O 	0.03078 0.88450 0.58060 -0.30300
C 	C 	0.21730 0.95780 0.50880 0.21500
C 	C 	0.08330 0.91460 0.56910 0.31900
C 	C 	0.20900 0.90630 0.57090 0.01100
C 	C 	0.14770 0.88660 0.59920 -0.06500
C 	C 	0.26570 0.87620 0.59820 -0.06500
H 	H 	0.30650 0.88730 0.57740 0.05900
C 	C 	0.14510 0.83950 0.65750 -0.00400
H 	H 	0.10450 0.82650 0.67740 0.04300
C 	C 	0.20290 0.81230 0.68550 -0.06700
H 	H 	0.20120 0.78160 0.72510 0.05000
C 	C 	0.26260 0.83050 0.65510 -0.00900
H 	H 	0.30140 0.81150 0.67350 0.03000
C 	C 	0.18050 0.17960 0.62570 0.08600
H 	H 	0.17570 0.14220 0.65630 0.02600
C 	C 	0.20420 0.27780 0.58580 -0.00100
H 	H 	0.21930 0.32120 0.58470 0.05100
C 	C 	0.17500 0.24610 0.52810 0.00500
H 	H 	0.16650 0.26330 0.47970 0.04100
C 	C 	0.17750 0.10160 0.44910 -0.13100
H 	H 	0.18830 0.13640 0.41290 0.07000
H 	H 	0.15520 0.06670 0.42110 0.07400
C 	C 	0.13020 0.12940 0.50870 -0.03200
H 	H 	0.11740 0.09440 0.54360 0.05000
H 	H 	0.09050 0.14520 0.48340 0.04300
N 	N 	0.20830 0.23501 0.64800 -0.20700
N 	N 	0.15970 0.18405 0.55270 -0.11400
O 	O 	0.21618 0.94238 0.44065 -0.21400
C 	C 	0.24120 0.07420 0.48230 -0.01100
H 	H 	0.26950 0.06000 0.44070 0.04400
H 	H 	0.26390 0.10930 0.50950 0.04600
N 	N 	0.23095 0.01835 0.53470 -0.13300
O 	O 	0.91299 0.53138 0.53301 -0.37800
O 	O 	0.96922 0.61550 0.58060 -0.28800
C 	C 	0.78270 0.54220 0.50880 0.19700
C 	C 	0.91670 0.58540 0.56910 0.31800
C 	C 	0.79100 0.59370 0.57090 0.01300
C 	C 	0.85230 0.61340 0.59920 -0.06500
C 	C 	0.73430 0.62380 0.59820 -0.06700
H 	H 	0.69350 0.61270 0.57740 0.05800
C 	C 	0.85490 0.66050 0.65750 -0.00500
H 	H 	0.89550 0.67350 0.67740 0.04900
C 	C 	0.79710 0.68770 0.68550 -0.06700
H 	H 	0.79880 0.71840 0.72510 0.05100
C 	C 	0.73740 0.66950 0.65510 -0.00800
H 	H 	0.69860 0.68850 0.67350 0.03000
C 	C 	0.81950 0.32040 0.62570 0.08800
H 	H 	0.82430 0.35780 0.65630 0.02700
C 	C 	0.79580 0.22220 0.58580 0.00000
H 	H 	0.78070 0.17880 0.58470 0.05100
C 	C 	0.82500 0.25390 0.52810 0.00600
H 	H 	0.83350 0.23670 0.47970 0.04300
C 	C 	0.82250 0.39840 0.44910 -0.12800
H 	H 	0.81170 0.36360 0.41290 0.07200
H 	H 	0.84480 0.43330 0.42110 0.08100
C 	C 	0.86980 0.37060 0.50870 -0.03900
H 	H 	0.88260 0.40560 0.54360 0.05900
H 	H 	0.90950 0.35480 0.48340 0.05600
N 	N 	0.79170 0.26499 0.64800 -0.20700
N 	N 	0.84030 0.31595 0.55270 -0.11100
O 	O 	0.78382 0.55762 0.44065 -0.21400
C 	C 	0.75880 0.42580 0.48230 -0.01300
H 	H 	0.73050 0.44000 0.44070 0.04900
H 	H 	0.73610 0.39070 0.50950 0.04700
N 	N 	0.76905 0.48165 0.53470 -0.12000
O 	O 	0.41299 0.03138 0.03301 -0.40000
O 	O 	0.46922 0.11550 0.08060 -0.30400
C 	C 	0.28270 0.04220 0.00880 0.14900
C 	C 	0.41670 0.08540 0.06910 0.32300
C 	C 	0.29100 0.09370 0.07090 0.02700
C 	C 	0.35230 0.11340 0.09920 -0.08200
C 	C 	0.23430 0.12380 0.09820 -0.08400
H 	H 	0.19350 0.11270 0.07740 0.05600
C 	C 	0.35490 0.16050 0.15750 0.00700
H 	H 	0.39550 0.17350 0.17740 0.04000
C 	C 	0.29710 0.18770 0.18550 -0.08200
H 	H 	0.29880 0.21840 0.22510 0.05400
C 	C 	0.23740 0.16950 0.15510 0.00400
H 	H 	0.19860 0.18850 0.17350 0.02100
C 	C 	0.31950 0.82040 0.12570 0.08300
H 	H 	0.32430 0.85780 0.15630 0.02800
C 	C 	0.29580 0.72220 0.08580 0.02300
H 	H 	0.28070 0.67880 0.08470 0.04000
C 	C 	0.32500 0.75390 0.02810 -0.04600
H 	H 	0.33350 0.73670 0.97970 0.07100
C 	C 	0.32250 0.89840 0.94910 -0.09600
H 	H 	0.31170 0.86360 0.91290 0.06500
H 	H 	0.34480 0.93330 0.92110 0.07700
C 	C 	0.36980 0.87060 0.00870 -0.10400
H 	H 	0.38260 0.90560 0.04360 0.07500
H 	H 	0.40950 0.85480 0.98340 0.08300
N 	N 	0.29170 0.76499 0.14800 -0.21000
N 	N 	0.34030 0.81595 0.05270 -0.09800
O 	O 	0.28382 0.05762 0.94065 -0.19300
C 	C 	0.25880 0.92580 0.98230 0.02100
H 	H 	0.23050 0.94000 0.94070 0.04600
H 	H 	0.23610 0.89070 0.00950 0.02700
N 	N 	0.26905 0.98165 0.03470 -0.11100
O 	O 	0.28138 0.83701 0.28301 -0.38400
O 	O 	0.36550 0.78078 0.33060 -0.29800
C 	C 	0.29220 0.96730 0.25880 0.20000
C 	C 	0.33540 0.83330 0.31910 0.31900
C 	C 	0.34370 0.95900 0.32090 0.03100
C 	C 	0.36340 0.89770 0.34920 -0.06600
C 	C 	0.37380 0.01570 0.34820 -0.08200
H 	H 	0.36270 0.05650 0.32740 0.05900
C 	C 	0.41050 0.89510 0.40750 -0.01700
H 	H 	0.42350 0.85450 0.42740 0.05000
C 	C 	0.43770 0.95290 0.43550 -0.03000
H 	H 	0.46840 0.95120 0.47510 0.04100
C 	C 	0.41950 0.01260 0.40510 -0.04000
H 	H 	0.43850 0.05140 0.42350 0.03700
C 	C 	0.07040 0.93050 0.37570 0.08900
H 	H 	0.10780 0.92570 0.40630 0.02700
C 	C 	0.97220 0.95420 0.33580 0.08900
H 	H 	0.92880 0.96930 0.33470 0.02600
C 	C 	0.00390 0.92500 0.27810 -0.09000
H 	H 	0.98670 0.91650 0.22970 0.09000
C 	C 	0.14840 0.92750 0.19910 -0.19200
H 	H 	0.11360 0.93830 0.16290 0.09100
H 	H 	0.18330 0.90520 0.17110 0.09800
C 	C 	0.12060 0.88020 0.25870 -0.00900
H 	H 	0.15560 0.86740 0.29360 0.04600
H 	H 	0.10480 0.84050 0.23340 0.03900
N 	N 	0.01499 0.95830 0.39800 -0.22400
N 	N 	0.06595 0.90970 0.30270 -0.10200
O 	O 	0.30762 0.96618 0.19065 -0.21000
C 	C 	0.17580 0.99120 0.23230 0.10300
H 	H 	0.19000 0.01950 0.19070 -0.00300
H 	H 	0.14070 0.01390 0.25950 -0.00500
N 	N 	0.23165 0.98095 0.28470 -0.12800
O 	O 	0.78138 0.33701 0.78301 -0.38300
O 	O 	0.86550 0.28078 0.83060 -0.29400
C 	C 	0.79220 0.46730 0.75880 0.19700
C 	C 	0.83540 0.33330 0.81910 0.32000
C 	C 	0.84370 0.45900 0.82090 0.01500
C 	C 	0.86340 0.39770 0.84920 -0.06700
C 	C 	0.87380 0.51570 0.84820 -0.06700
H 	H 	0.86270 0.55650 0.82740 0.06100
C 	C 	0.91050 0.39510 0.90750 -0.00000
H 	H 	0.92350 0.35450 0.92740 0.05100
C 	C 	0.93770 0.45290 0.93550 -0.06700
H 	H 	0.96840 0.45120 0.97510 0.06300
C 	C 	0.91950 0.51260 0.90510 -0.00300
H 	H 	0.93850 0.55140 0.92350 0.03800
C 	C 	0.57040 0.43050 0.87570 0.08800
H 	H 	0.60780 0.42570 0.90630 0.03100
C 	C 	0.47220 0.45420 0.83580 0.00000
H 	H 	0.42880 0.46930 0.83470 0.05200
C 	C 	0.50390 0.42500 0.77810 0.00600
H 	H 	0.48670 0.41650 0.72970 0.04200
C 	C 	0.64840 0.42750 0.69910 -0.13000
H 	H 	0.61360 0.43830 0.66290 0.07100
H 	H 	0.68330 0.40520 0.67110 0.08000
C 	C 	0.62060 0.38020 0.75870 -0.03600
H 	H 	0.65560 0.36740 0.79360 0.05600
H 	H 	0.60480 0.34050 0.73340 0.05000
N 	N 	0.51499 0.45830 0.89800 -0.20200
N 	N 	0.56595 0.40970 0.80270 -0.11200
O 	O 	0.80762 0.46618 0.69065 -0.21200
C 	C 	0.67580 0.49120 0.73230 -0.01200
H 	H 	0.69000 0.51950 0.69070 0.04900
H 	H 	0.64070 0.51390 0.75950 0.04700
N 	N 	0.73165 0.48095 0.78470 -0.12000
O 	O 	0.21862 0.16299 0.78301 -0.38400
O 	O 	0.13450 0.21922 0.83060 -0.30000
C 	C 	0.20780 0.03270 0.75880 0.19500
C 	C 	0.16460 0.16670 0.81910 0.32100
C 	C 	0.15630 0.04100 0.82090 0.00100
C 	C 	0.13660 0.10230 0.84920 -0.07100
C 	C 	0.12620 0.98430 0.84820 -0.05800
H 	H 	0.13730 0.94350 0.82740 0.05800
C 	C 	0.08950 0.10490 0.90750 0.01400
H 	H 	0.07650 0.14550 0.92740 0.03800
C 	C 	0.06230 0.04710 0.93550 -0.10700
H 	H 	0.03160 0.04880 0.97510 0.05800
C 	C 	0.08050 0.98740 0.90510 0.02600
H 	H 	0.06150 0.94860 0.92350 0.02100
C 	C 	0.42960 0.06950 0.87570 0.08400
H 	H 	0.39220 0.07430 0.90630 0.03100
C 	C 	0.52780 0.04580 0.83580 -0.00100
H 	H 	0.57120 0.03070 0.83470 0.04800
C 	C 	0.49610 0.07500 0.77810 0.00200
H 	H 	0.51330 0.08350 0.72970 0.04200
C 	C 	0.35160 0.07250 0.69910 -0.07000
H 	H 	0.38640 0.06170 0.66290 0.04900
H 	H 	0.31670 0.09480 0.67110 0.06200
C 	C 	0.37940 0.11980 0.75870 -0.06800
H 	H 	0.34440 0.13260 0.79360 0.06600
H 	H 	0.39520 0.15950 0.73340 0.06000
N 	N 	0.48501 0.04170 0.89800 -0.20400
N 	N 	0.43405 0.09030 0.80270 -0.10800
O 	O 	0.19238 0.03382 0.69065 -0.22000
C 	C 	0.32420 0.00880 0.73230 -0.11300
H 	H 	0.31000 0.98050 0.69070 0.09200
H 	H 	0.35930 0.98610 0.75950 0.09000
N 	N 	0.26835 0.01905 0.78470 -0.11200
O 	O 	0.71862 0.66299 0.28301 -0.38400
O 	O 	0.63450 0.71922 0.33060 -0.29800
C 	C 	0.70780 0.53270 0.25880 0.19700
C 	C 	0.66460 0.66670 0.31910 0.32000
C 	C 	0.65630 0.54100 0.32090 0.01500
C 	C 	0.63660 0.60230 0.34920 -0.06900
C 	C 	0.62620 0.48430 0.34820 -0.06900
H 	H 	0.63730 0.44350 0.32740 0.05900
C 	C 	0.58950 0.60490 0.40750 -0.00200
H 	H 	0.57650 0.64550 0.42740 0.04400
C 	C 	0.56230 0.54710 0.43550 -0.07000
H 	H 	0.53160 0.54880 0.47510 0.05000
C 	C 	0.58050 0.48740 0.40510 -0.00600
H 	H 	0.56150 0.44860 0.42350 0.02900
C 	C 	0.92960 0.56950 0.37570 0.09000
H 	H 	0.89220 0.57430 0.40630 0.02700
C 	C 	0.02780 0.54580 0.33580 -0.09700
H 	H 	0.07120 0.53070 0.33470 0.08300
C 	C 	0.99610 0.57500 0.27810 0.11500
H 	H 	0.01330 0.58350 0.22970 -0.01100
C 	C 	0.85160 0.57250 0.19910 -0.13500
H 	H 	0.88640 0.56170 0.16290 0.07500
H 	H 	0.81670 0.59480 0.17110 0.08200
C 	C 	0.87940 0.61980 0.25870 -0.02600
H 	H 	0.84440 0.63260 0.29360 0.05300
H 	H 	0.89520 0.65950 0.23340 0.04900
N 	N 	0.98501 0.54170 0.39800 -0.18100
N 	N 	0.93405 0.59030 0.30270 -0.12900
O 	O 	0.69238 0.53382 0.19065 -0.21500
C 	C 	0.82420 0.50880 0.23230 -0.01000
H 	H 	0.81000 0.48050 0.19070 0.04800
H 	H 	0.85930 0.48610 0.25950 0.04800
N 	N 	0.76835 0.51905 0.28470 -0.12000
O 	O 	0.41299 0.53138 0.96699 -0.37300
O 	O 	0.46922 0.61550 0.91940 -0.29400
C 	C 	0.28270 0.54220 0.99120 0.22200
C 	C 	0.41670 0.58540 0.93090 0.31800
C 	C 	0.29100 0.59370 0.92910 0.00800
C 	C 	0.35230 0.61340 0.90080 -0.06200
C 	C 	0.23430 0.62380 0.90180 -0.06100
H 	H 	0.19350 0.61270 0.92260 0.05900
C 	C 	0.35490 0.66050 0.84250 -0.00700
H 	H 	0.39550 0.67350 0.82260 0.04600
C 	C 	0.29710 0.68770 0.81450 -0.06400
H 	H 	0.29880 0.71840 0.77490 0.04900
C 	C 	0.23740 0.66950 0.84490 -0.01100
H 	H 	0.19860 0.68850 0.82650 0.03100
C 	C 	0.31950 0.32040 0.87430 0.09100
H 	H 	0.32430 0.35780 0.84370 0.02500
C 	C 	0.29580 0.22220 0.91420 -0.02800
H 	H 	0.28070 0.17880 0.91530 0.06400
C 	C 	0.32500 0.25390 0.97190 0.06300
H 	H 	0.33350 0.23670 0.02030 0.00800
C 	C 	0.32250 0.39840 0.05090 -0.16700
H 	H 	0.31170 0.36360 0.08710 0.07900
H 	H 	0.34480 0.43330 0.07890 0.08900
C 	C 	0.36980 0.37060 0.99130 0.04100
H 	H 	0.38260 0.40560 0.95640 0.03700
H 	H 	0.40950 0.35480 0.01660 0.01400
N 	N 	0.29170 0.26499 0.85200 -0.20400
N 	N 	0.34030 0.31595 0.94730 -0.12900
O 	O 	0.28382 0.55762 0.05935 -0.23200
C 	C 	0.25880 0.42580 0.01770 -0.05100
H 	H 	0.23050 0.44000 0.05930 0.05500
H 	H 	0.23610 0.39070 0.99050 0.07000
N 	N 	0.26905 0.48165 0.96530 -0.11200
O 	O 	0.91299 0.03138 0.46699 -0.38500
O 	O 	0.96922 0.11550 0.41940 -0.29000
C 	C 	0.78270 0.04220 0.49120 0.18100
C 	C 	0.91670 0.08540 0.43090 0.31900
C 	C 	0.79100 0.09370 0.42910 0.01700
C 	C 	0.85230 0.11340 0.40080 -0.07100
C 	C 	0.73430 0.12380 0.40180 -0.07200
H 	H 	0.69350 0.11270 0.42260 0.05800
C 	C 	0.85490 0.16050 0.34250 -0.00200
H 	H 	0.89550 0.17350 0.32260 0.04600
C 	C 	0.79710 0.18770 0.31450 -0.07100
H 	H 	0.79880 0.21840 0.27490 0.05100
C 	C 	0.73740 0.16950 0.34490 -0.00500
H 	H 	0.69860 0.18850 0.32650 0.02800
C 	C 	0.81950 0.82040 0.37430 0.08800
H 	H 	0.82430 0.85780 0.34370 0.02700
C 	C 	0.79580 0.72220 0.41420 0.00000
H 	H 	0.78070 0.67880 0.41530 0.05100
C 	C 	0.82500 0.75390 0.47190 0.00600
H 	H 	0.83350 0.73670 0.52030 0.04300
C 	C 	0.82250 0.89840 0.55090 -0.12800
H 	H 	0.81170 0.86360 0.58710 0.07200
H 	H 	0.84480 0.93330 0.57890 0.08500
C 	C 	0.86980 0.87060 0.49130 -0.04000
H 	H 	0.88260 0.90560 0.45640 0.06100
H 	H 	0.90950 0.85480 0.51660 0.05700
N 	N 	0.79170 0.76499 0.35200 -0.20700
N 	N 	0.84030 0.81595 0.44730 -0.11100
O 	O 	0.78382 0.05762 0.55935 -0.21400
C 	C 	0.75880 0.92580 0.51770 -0.01300
H 	H 	0.73050 0.94000 0.55930 0.05200
H 	H 	0.73610 0.89070 0.49050 0.04800
N 	N 	0.76905 0.98165 0.46530 -0.10800
O 	O 	0.08701 0.46862 0.46699 -0.38600
O 	O 	0.03078 0.38450 0.41940 -0.30800
C 	C 	0.21730 0.45780 0.49120 0.19600
C 	C 	0.08330 0.41460 0.43090 0.32100
C 	C 	0.20900 0.40630 0.42910 0.01600
C 	C 	0.14770 0.38660 0.40080 -0.07200
C 	C 	0.26570 0.37620 0.40180 -0.07100
H 	H 	0.30650 0.38730 0.42260 0.05900
C 	C 	0.14510 0.33950 0.34250 0.00000
H 	H 	0.10450 0.32650 0.32260 0.03900
C 	C 	0.20290 0.31230 0.31450 -0.07300
H 	H 	0.20120 0.28160 0.27490 0.05000
C 	C 	0.26260 0.33050 0.34490 -0.00400
H 	H 	0.30140 0.31150 0.32650 0.02800
C 	C 	0.18050 0.67960 0.37430 0.08600
H 	H 	0.17570 0.64220 0.34370 0.02600
C 	C 	0.20420 0.77780 0.41420 -0.00100
H 	H 	0.21930 0.82120 0.41530 0.05200
C 	C 	0.17500 0.74610 0.47190 0.00500
H 	H 	0.16650 0.76330 0.52030 0.04100
C 	C 	0.17750 0.60160 0.55090 -0.13100
H 	H 	0.18830 0.63640 0.58710 0.07100
H 	H 	0.15520 0.56670 0.57890 0.07900
C 	C 	0.13020 0.62940 0.49130 -0.03300
H 	H 	0.11740 0.59440 0.45640 0.05300
H 	H 	0.09050 0.64520 0.51660 0.04400
N 	N 	0.20830 0.73501 0.35200 -0.20700
N 	N 	0.15970 0.68405 0.44730 -0.11400
O 	O 	0.21618 0.44238 0.55935 -0.21400
C 	C 	0.24120 0.57420 0.51770 -0.01200
H 	H 	0.26950 0.56000 0.55930 0.04800
H 	H 	0.26390 0.60930 0.49050 0.04700
N 	N 	0.23095 0.51835 0.46530 -0.12000
O 	O 	0.58701 0.96862 0.96699 -0.36400
O 	O 	0.53078 0.88450 0.91940 -0.29100
C 	C 	0.71730 0.95780 0.99120 0.23300
C 	C 	0.58330 0.91460 0.93090 0.31600
C 	C 	0.70900 0.90630 0.92910 0.00600
C 	C 	0.64770 0.88660 0.90080 -0.05800
C 	C 	0.76570 0.87620 0.90180 -0.05800
H 	H 	0.80650 0.88730 0.92260 0.06100
C 	C 	0.64510 0.83950 0.84250 -0.01000
H 	H 	0.60450 0.82650 0.82260 0.04800
C 	C 	0.70290 0.81230 0.81450 -0.06000
H 	H 	0.70120 0.78160 0.77490 0.04800
C 	C 	0.76260 0.83050 0.84490 -0.01400
H 	H 	0.80140 0.81150 0.82650 0.03500
C 	C 	0.68050 0.17960 0.87430 0.09200
H 	H 	0.67570 0.14220 0.84370 0.02600
C 	C 	0.70420 0.27780 0.91420 -0.02800
H 	H 	0.71930 0.32120 0.91530 0.06500
C 	C 	0.67500 0.24610 0.97190 0.06400
H 	H 	0.66650 0.26330 0.02030 0.00800
C 	C 	0.67750 0.10160 0.05090 -0.16700
H 	H 	0.68830 0.13640 0.08710 0.07800
H 	H 	0.65520 0.06670 0.07890 0.08400
C 	C 	0.63020 0.12940 0.99130 0.04400
H 	H 	0.61740 0.09440 0.95640 0.03500
H 	H 	0.59050 0.14520 0.01660 0.01200
N 	N 	0.70830 0.23501 0.85200 -0.20300
N 	N 	0.65970 0.18405 0.94730 -0.12900
O 	O 	0.71618 0.94238 0.05935 -0.22900
C 	C 	0.74120 0.07420 0.01770 -0.05700
H 	H 	0.76950 0.06000 0.05930 0.05400
H 	H 	0.76390 0.10930 0.99050 0.07300
N 	N 	0.73095 0.01835 0.96530 -0.12000
O 	O 	0.71862 0.16299 0.71699 -0.38400
O 	O 	0.63450 0.21922 0.66940 -0.29900
C 	C 	0.70780 0.03270 0.74120 0.19400
C 	C 	0.66460 0.16670 0.68090 0.32100
C 	C 	0.65630 0.04100 0.67910 0.00300
C 	C 	0.63660 0.10230 0.65080 -0.07300
C 	C 	0.62620 0.98430 0.65180 -0.06100
H 	H 	0.63730 0.94350 0.67260 0.06000
C 	C 	0.58950 0.10490 0.59250 0.01400
H 	H 	0.57650 0.14550 0.57260 0.03800
C 	C 	0.56230 0.04710 0.56450 -0.10900
H 	H 	0.53160 0.04880 0.52490 0.05900
C 	C 	0.58050 0.98740 0.59490 0.02800
H 	H 	0.56150 0.94860 0.57650 0.02000
C 	C 	0.92960 0.06950 0.62430 0.08600
H 	H 	0.89220 0.07430 0.59370 0.02700
C 	C 	0.02780 0.04580 0.66420 -0.10700
H 	H 	0.07120 0.03070 0.66530 0.08200
C 	C 	0.99610 0.07500 0.72190 0.12100
H 	H 	0.01330 0.08350 0.77030 -0.01500
C 	C 	0.85160 0.07250 0.80090 -0.08700
H 	H 	0.88640 0.06170 0.83710 0.06000
H 	H 	0.81670 0.09480 0.82890 0.06800
C 	C 	0.87940 0.11980 0.74130 -0.05100
H 	H 	0.84440 0.13260 0.70640 0.06100
H 	H 	0.89520 0.15950 0.76660 0.05800
N 	N 	0.98501 0.04170 0.60200 -0.18100
N 	N 	0.93405 0.09030 0.69730 -0.12700
O 	O 	0.69238 0.03382 0.80935 -0.21700
C 	C 	0.82420 0.00880 0.76770 -0.09500
H 	H 	0.81000 0.98050 0.80930 0.08600
H 	H 	0.85930 0.98610 0.74050 0.08500
N 	N 	0.76835 0.01905 0.71530 -0.11400
O 	O 	0.21862 0.66299 0.21699 -0.38400
O 	O 	0.13450 0.71922 0.16940 -0.30300
C 	C 	0.20780 0.53270 0.24120 0.19700
C 	C 	0.16460 0.66670 0.18090 0.32000
C 	C 	0.15630 0.54100 0.17910 0.01400
C 	C 	0.13660 0.60230 0.15080 -0.07000
C 	C 	0.12620 0.48430 0.15180 -0.07100
H 	H 	0.13730 0.44350 0.17260 0.05600
C 	C 	0.08950 0.60490 0.09250 -0.00400
H 	H 	0.07650 0.64550 0.07260 0.03800
C 	C 	0.06230 0.54710 0.06450 -0.07300
H 	H 	0.03160 0.54880 0.02490 0.03800
C 	C 	0.08050 0.48740 0.09490 -0.00900
H 	H 	0.06150 0.44860 0.07650 0.01900
C 	C 	0.42960 0.56950 0.12430 0.08500
H 	H 	0.39220 0.57430 0.09370 0.02300
C 	C 	0.52780 0.54580 0.16420 -0.00100
H 	H 	0.57120 0.53070 0.16530 0.05100
C 	C 	0.49610 0.57500 0.22190 0.00500
H 	H 	0.51330 0.58350 0.27030 0.04200
C 	C 	0.35160 0.57250 0.30090 -0.13000
H 	H 	0.38640 0.56170 0.33710 0.07100
H 	H 	0.31670 0.59480 0.32890 0.08000
C 	C 	0.37940 0.61980 0.24130 -0.03600
H 	H 	0.34440 0.63260 0.20640 0.05500
H 	H 	0.39520 0.65950 0.26660 0.04900
N 	N 	0.48501 0.54170 0.10200 -0.21000
N 	N 	0.43405 0.59030 0.19730 -0.11300
O 	O 	0.19238 0.53382 0.30935 -0.21600
C 	C 	0.32420 0.50880 0.26770 -0.01200
H 	H 	0.31000 0.48050 0.30930 0.04800
H 	H 	0.35930 0.48610 0.24050 0.04700
N 	N 	0.26835 0.51905 0.21530 -0.12000
O 	O 	0.78138 0.83701 0.21699 -0.38400
O 	O 	0.86550 0.78078 0.16940 -0.29600
C 	C 	0.79220 0.96730 0.24120 0.19900
C 	C 	0.83540 0.83330 0.18090 0.31900
C 	C 	0.84370 0.95900 0.17910 0.02900
C 	C 	0.86340 0.89770 0.15080 -0.06500
C 	C 	0.87380 0.01570 0.15180 -0.08000
H 	H 	0.86270 0.05650 0.17260 0.05900
C 	C 	0.91050 0.89510 0.09250 -0.01900
H 	H 	0.92350 0.85450 0.07260 0.05100
C 	C 	0.93770 0.95290 0.06450 -0.03100
H 	H 	0.96840 0.95120 0.02490 0.04200
C 	C 	0.91950 0.01260 0.09490 -0.04100
H 	H 	0.93850 0.05140 0.07650 0.03700
C 	C 	0.57040 0.93050 0.12430 0.09100
H 	H 	0.60780 0.92570 0.09370 0.02400
C 	C 	0.47220 0.95420 0.16420 0.00000
H 	H 	0.42880 0.96930 0.16530 0.05600
C 	C 	0.50390 0.92500 0.22190 0.01000
H 	H 	0.48670 0.91650 0.27030 0.04200
C 	C 	0.64840 0.92750 0.30090 -0.19300
H 	H 	0.61360 0.93830 0.33710 0.09500
H 	H 	0.68330 0.90520 0.32890 0.09900
C 	C 	0.62060 0.88020 0.24130 -0.00200
H 	H 	0.65560 0.86740 0.20640 0.04400
H 	H 	0.60480 0.84050 0.26660 0.03900
N 	N 	0.51499 0.95830 0.10200 -0.20400
N 	N 	0.56595 0.90970 0.19730 -0.11700
O 	O 	0.80762 0.96618 0.30935 -0.20900
C 	C 	0.67580 0.99120 0.26770 0.09300
H 	H 	0.69000 0.01950 0.30930 0.00300
H 	H 	0.64070 0.01390 0.24050 0.00100
N 	N 	0.73165 0.98095 0.21530 -0.12800
O 	O 	0.28138 0.33701 0.71699 -0.38400
O 	O 	0.36550 0.28078 0.66940 -0.29900
C 	C 	0.29220 0.46730 0.74120 0.19700
C 	C 	0.33540 0.33330 0.68090 0.32000
C 	C 	0.34370 0.45900 0.67910 0.01500
C 	C 	0.36340 0.39770 0.65080 -0.06900
C 	C 	0.37380 0.51570 0.65180 -0.06900
H 	H 	0.36270 0.55650 0.67260 0.05900
C 	C 	0.41050 0.39510 0.59250 -0.00200
H 	H 	0.42350 0.35450 0.57260 0.04400
C 	C 	0.43770 0.45290 0.56450 -0.07000
H 	H 	0.46840 0.45120 0.52490 0.05000
C 	C 	0.41950 0.51260 0.59490 -0.00600
H 	H 	0.43850 0.55140 0.57650 0.02900
C 	C 	0.07040 0.43050 0.62430 0.08300
H 	H 	0.10780 0.42570 0.59370 0.02700
C 	C 	0.97220 0.45420 0.66420 0.09900
H 	H 	0.92880 0.46930 0.66530 0.01900
C 	C 	0.00390 0.42500 0.72190 -0.10700
H 	H 	0.98670 0.41650 0.77030 0.09600
C 	C 	0.14840 0.42750 0.80090 -0.12400
H 	H 	0.11360 0.43830 0.83710 0.06800
H 	H 	0.18330 0.40520 0.82890 0.07900
C 	C 	0.12060 0.38020 0.74130 -0.04600
H 	H 	0.15560 0.36740 0.70640 0.05800
H 	H 	0.10480 0.34050 0.76660 0.05100
N 	N 	0.01499 0.45830 0.60200 -0.23100
N 	N 	0.06595 0.40970 0.69730 -0.09600
O 	O 	0.30762 0.46618 0.80935 -0.21400
C 	C 	0.17580 0.49120 0.76770 -0.01500
H 	H 	0.19000 0.51950 0.80930 0.04900
H 	H 	0.14070 0.51390 0.74050 0.04600
N 	N 	0.23165 0.48095 0.71530 -0.12000
Cu	Cu	0.50000 0.50000 -0.00000 0.89600
Cu	Cu	0.00000 0.00000 0.50000 0.88600
Cu	Cu	0.00000 0.50000 0.50000 0.89500
Cu	Cu	0.50000 0.00000 -0.00000 0.88700
Cu	Cu	0.25000 0.75000 0.25000 0.90400
Cu	Cu	0.25000 0.25000 0.75000 0.90400
Cu	Cu	0.75000 0.25000 0.75000 0.90500
Cu	Cu	0.75000 0.75000 0.25000 0.90500
