data_crystal

_cell_length_a 7.15200
_cell_length_b 18.28300
_cell_length_c 19.94700
_cell_angle_alpha 90.00000
_cell_angle_beta  90.39500
_cell_angle_gamma 90.00000

_symmetry_space_group_name_	'P 1'
_symmetry_space_group_name_H-M	'P 1'

loop_
_symmetry_equiv_pos_as_xyz
  x,y,z

loop_
_atom_site_label
_atom_site_type_symbol
_atom_site_fract_x
_atom_site_fract_y
_atom_site_fract_z
_atom_site_charge
Cd	Cd	0.52822 0.26454 0.35267 1.19000
Cd	Cd	0.04045 0.23978 0.32701 1.19800
O 	O 	0.71540 0.20030 0.28070 -0.48400
O 	O 	0.96650 0.13260 0.26810 -0.40600
O 	O 	0.89830 0.87610 0.18530 -0.41700
O 	O 	0.62680 0.83870 0.14470 -0.48300
O 	O 	0.90040 0.18010 0.41400 -0.44700
O 	O 	0.18520 0.04390 0.18940 -0.43600
H 	H 	0.14110 0.07190 0.21720 0.27100
O 	O 	0.64710 0.23530 0.45330 -0.44900
O 	O 	0.54580 0.20600 0.70730 -0.36800
O 	O 	0.79750 0.23170 0.76550 -0.55100
O 	O 	0.32580 0.15530 0.60820 -0.44700
H 	H 	0.37120 0.17560 0.64110 0.28900
C 	C 	0.79220 0.14130 0.26350 0.33600
C 	C 	0.67420 0.08020 0.23610 -0.02200
C 	C 	0.75340 0.01270 0.22060 -0.03900
H 	H 	0.88030 0.00460 0.22790 0.08000
C 	C 	0.48250 0.09200 0.22580 -0.18100
H 	H 	0.42970 0.13730 0.23530 0.08100
C 	C 	0.64040 0.95750 0.19420 -0.02100
C 	C 	0.45090 0.96850 0.18480 -0.15700
H 	H 	0.37640 0.93120 0.16760 0.08600
C 	C 	0.37240 0.03550 0.20130 0.25800
C 	C 	0.72640 0.88610 0.17410 0.33100
C 	C 	0.80300 0.20410 0.46130 0.34000
C 	C 	0.87730 0.19430 0.53130 -0.01700
C 	C 	0.76350 0.20580 0.58660 -0.04400
H 	H 	0.63750 0.21680 0.58070 0.07200
C 	C 	0.83970 0.20040 0.65070 -0.01100
C 	C 	0.02980 0.18450 0.65970 -0.18500
H 	H 	0.08180 0.18240 0.70260 0.10400
C 	C 	0.13970 0.17160 0.60370 0.27500
C 	C 	0.06400 0.17580 0.53990 -0.17700
H 	H 	0.13810 0.16620 0.50280 0.09000
C 	C 	0.71950 0.21280 0.71110 0.34000
Cd	Cd	0.97178 0.76454 0.14733 1.19000
Cd	Cd	0.45955 0.73978 0.17299 1.20000
O 	O 	0.78460 0.70030 0.21930 -0.48400
O 	O 	0.53350 0.63260 0.23190 -0.40900
O 	O 	0.60170 0.37610 0.31470 -0.41500
O 	O 	0.87320 0.33870 0.35530 -0.48100
O 	O 	0.59960 0.68010 0.08600 -0.44900
O 	O 	0.31480 0.54390 0.31060 -0.43600
H 	H 	0.35890 0.57190 0.28280 0.27300
O 	O 	0.85290 0.73530 0.04670 -0.45000
O 	O 	0.95420 0.70600 0.79270 -0.37100
O 	O 	0.70250 0.73170 0.73450 -0.55300
O 	O 	0.17420 0.65530 0.89180 -0.44500
H 	H 	0.12880 0.67560 0.85890 0.29000
C 	C 	0.70780 0.64130 0.23650 0.33600
C 	C 	0.82580 0.58020 0.26390 -0.02100
C 	C 	0.74660 0.51270 0.27940 -0.04100
H 	H 	0.61970 0.50460 0.27210 0.07900
C 	C 	0.01750 0.59200 0.27420 -0.18300
H 	H 	0.07030 0.63730 0.26470 0.08200
C 	C 	0.85960 0.45750 0.30580 -0.01700
C 	C 	0.04910 0.46850 0.31520 -0.16100
H 	H 	0.12360 0.43120 0.33240 0.08700
C 	C 	0.12760 0.53550 0.29870 0.26000
C 	C 	0.77360 0.38610 0.32590 0.32900
C 	C 	0.69700 0.70410 0.03870 0.34300
C 	C 	0.62270 0.69430 0.96870 -0.02500
C 	C 	0.73650 0.70580 0.91340 -0.03800
H 	H 	0.86250 0.71680 0.91930 0.06900
C 	C 	0.66030 0.70040 0.84930 -0.01800
C 	C 	0.47020 0.68450 0.84030 -0.17700
H 	H 	0.41820 0.68240 0.79740 0.10200
C 	C 	0.36030 0.67160 0.89630 0.27000
C 	C 	0.43600 0.67580 0.96010 -0.16800
H 	H 	0.36190 0.66620 0.99720 0.08900
C 	C 	0.78050 0.71280 0.78890 0.34300
Cd	Cd	0.47178 0.73546 0.64733 1.19100
Cd	Cd	0.95955 0.76022 0.67299 1.19900
O 	O 	0.28460 0.79970 0.71930 -0.48400
O 	O 	0.03350 0.86740 0.73190 -0.40600
O 	O 	0.10170 0.12390 0.81470 -0.41700
O 	O 	0.37320 0.16130 0.85530 -0.48300
O 	O 	0.09960 0.81990 0.58600 -0.44700
O 	O 	0.81480 0.95610 0.81060 -0.43600
H 	H 	0.85890 0.92810 0.78280 0.27100
O 	O 	0.35290 0.76470 0.54670 -0.44900
O 	O 	0.45420 0.79400 0.29270 -0.36800
O 	O 	0.20250 0.76830 0.23450 -0.55100
O 	O 	0.67420 0.84470 0.39180 -0.44700
H 	H 	0.62880 0.82440 0.35890 0.28900
C 	C 	0.20780 0.85870 0.73650 0.33600
C 	C 	0.32580 0.91980 0.76390 -0.02200
C 	C 	0.24660 0.98730 0.77940 -0.03900
H 	H 	0.11970 0.99540 0.77210 0.08000
C 	C 	0.51750 0.90800 0.77420 -0.18100
H 	H 	0.57030 0.86270 0.76470 0.08100
C 	C 	0.35960 0.04250 0.80580 -0.02100
C 	C 	0.54910 0.03150 0.81520 -0.15700
H 	H 	0.62360 0.06880 0.83240 0.08600
C 	C 	0.62760 0.96450 0.79870 0.25800
C 	C 	0.27360 0.11390 0.82590 0.33100
C 	C 	0.19700 0.79590 0.53870 0.34000
C 	C 	0.12270 0.80570 0.46870 -0.01700
C 	C 	0.23650 0.79420 0.41340 -0.04400
H 	H 	0.36250 0.78320 0.41930 0.07200
C 	C 	0.16030 0.79960 0.34930 -0.01100
C 	C 	0.97020 0.81550 0.34030 -0.18500
H 	H 	0.91820 0.81760 0.29740 0.10400
C 	C 	0.86030 0.82840 0.39630 0.27500
C 	C 	0.93600 0.82420 0.46010 -0.17700
H 	H 	0.86190 0.83380 0.49720 0.09000
C 	C 	0.28050 0.78720 0.28890 0.34000
Cd	Cd	0.02822 0.23546 0.85267 1.19000
Cd	Cd	0.54045 0.26022 0.82701 1.20000
O 	O 	0.21540 0.29970 0.78070 -0.48400
O 	O 	0.46650 0.36740 0.76810 -0.40900
O 	O 	0.39830 0.62390 0.68530 -0.41500
O 	O 	0.12680 0.66130 0.64470 -0.48100
O 	O 	0.40040 0.31990 0.91400 -0.44900
O 	O 	0.68520 0.45610 0.68940 -0.43600
H 	H 	0.64110 0.42810 0.71720 0.27300
O 	O 	0.14710 0.26470 0.95330 -0.45000
O 	O 	0.04580 0.29400 0.20730 -0.37100
O 	O 	0.29750 0.26830 0.26550 -0.55300
O 	O 	0.82580 0.34470 0.10820 -0.44500
H 	H 	0.87120 0.32440 0.14110 0.29000
C 	C 	0.29220 0.35870 0.76350 0.33600
C 	C 	0.17420 0.41980 0.73610 -0.02100
C 	C 	0.25340 0.48730 0.72060 -0.04100
H 	H 	0.38030 0.49540 0.72790 0.07900
C 	C 	0.98250 0.40800 0.72580 -0.18300
H 	H 	0.92970 0.36270 0.73530 0.08200
C 	C 	0.14040 0.54250 0.69420 -0.01700
C 	C 	0.95090 0.53150 0.68480 -0.16100
H 	H 	0.87640 0.56880 0.66760 0.08700
C 	C 	0.87240 0.46450 0.70130 0.26000
C 	C 	0.22640 0.61390 0.67410 0.32900
C 	C 	0.30300 0.29590 0.96130 0.34300
C 	C 	0.37730 0.30570 0.03130 -0.02500
C 	C 	0.26350 0.29420 0.08660 -0.03800
H 	H 	0.13750 0.28320 0.08070 0.06900
C 	C 	0.33970 0.29960 0.15070 -0.01800
C 	C 	0.52980 0.31550 0.15970 -0.17700
H 	H 	0.58180 0.31760 0.20260 0.10200
C 	C 	0.63970 0.32840 0.10370 0.27000
C 	C 	0.56400 0.32420 0.03990 -0.16800
H 	H 	0.63810 0.33380 0.00280 0.08900
C 	C 	0.21950 0.28720 0.21110 0.34300
