data_crystal

_cell_length_a 15.21200
_cell_length_b 15.21200
_cell_length_c 15.45100
_cell_angle_alpha 90.00000
_cell_angle_beta  90.00000
_cell_angle_gamma 120.00000

_symmetry_space_group_name_	'P 1'
_symmetry_space_group_name_H-M	'P 1'

loop_
_symmetry_equiv_pos_as_xyz
  x,y,z

loop_
_atom_site_label
_atom_site_type_symbol
_atom_site_fract_x
_atom_site_fract_y
_atom_site_fract_z
_atom_site_charge
Gd	Gd	0.66667 0.33334 0.75000 1.58300
Gd	Gd	0.33333 0.66666 0.75000 1.58300
Gd	Gd	0.33333 0.66666 0.25000 1.56700
Gd	Gd	0.66667 0.33334 0.25000 1.56700
Co	Co	0.50000 0.50000 -0.00000 1.09700
Co	Co	-0.00000 0.50000 -0.00000 1.06100
Co	Co	0.50000 0.00000 -0.00000 1.06100
Co	Co	0.00000 0.50000 0.50000 1.12700
Co	Co	0.50000 0.50000 0.50000 1.16400
Co	Co	0.50000 0.00000 0.50000 1.12700
H 	H 	0.76700 0.71390 0.84520 0.08400
H 	H 	0.94690 0.23300 0.84520 0.09200
H 	H 	0.28610 0.05310 0.84520 0.05300
H 	H 	0.23300 0.28610 0.84520 0.06800
H 	H 	0.05310 0.76700 0.84520 0.06100
H 	H 	0.71390 0.94690 0.84520 0.09900
H 	H 	0.05310 0.28610 0.65480 0.03200
H 	H 	0.71390 0.76700 0.65480 0.06400
H 	H 	0.23300 0.94690 0.65480 0.07200
H 	H 	0.94690 0.71390 0.65480 0.08000
H 	H 	0.28610 0.23300 0.65480 0.04700
H 	H 	0.76700 0.05310 0.65480 0.04000
H 	H 	0.23300 0.28610 0.15480 0.02500
H 	H 	0.05310 0.76700 0.15480 0.01900
H 	H 	0.71390 0.94690 0.15480 0.05800
H 	H 	0.76700 0.71390 0.15480 0.04200
H 	H 	0.94690 0.23300 0.15480 0.05100
H 	H 	0.28610 0.05310 0.15480 0.01000
H 	H 	0.94690 0.71390 0.34520 0.07700
H 	H 	0.28610 0.23300 0.34520 0.04400
H 	H 	0.76700 0.05310 0.34520 0.03700
H 	H 	0.05310 0.28610 0.34520 0.02900
H 	H 	0.71390 0.76700 0.34520 0.06100
H 	H 	0.23300 0.94690 0.34520 0.06900
H 	H 	0.90100 0.80200 0.75000 0.06500
H 	H 	0.90100 0.09900 0.75000 0.03900
H 	H 	0.19800 0.09900 0.75000 0.01300
H 	H 	0.09900 0.19800 0.75000 0.01300
H 	H 	0.09900 0.90100 0.75000 0.03900
H 	H 	0.80200 0.90100 0.75000 0.06500
H 	H 	0.09900 0.19800 0.25000 0.00700
H 	H 	0.09900 0.90100 0.25000 0.03300
H 	H 	0.80200 0.90100 0.25000 0.06000
H 	H 	0.90100 0.80200 0.25000 0.06000
H 	H 	0.90100 0.09900 0.25000 0.03300
H 	H 	0.19800 0.09900 0.25000 0.00700
C 	C 	0.64550 0.50890 0.86110 0.34700
C 	C 	0.73470 0.57400 0.80400 0.00100
C 	C 	0.78590 0.67940 0.80650 -0.03600
C 	C 	0.86340 0.35450 0.86110 0.34200
C 	C 	0.83930 0.26530 0.80400 0.00400
C 	C 	0.89350 0.21410 0.80650 -0.04100
C 	C 	0.49110 0.13660 0.86110 0.34700
C 	C 	0.42600 0.16070 0.80400 -0.01600
C 	C 	0.32060 0.10650 0.80650 -0.04800
C 	C 	0.35450 0.49110 0.86110 0.34600
C 	C 	0.26530 0.42600 0.80400 -0.01000
C 	C 	0.21410 0.32060 0.80650 -0.04700
C 	C 	0.13660 0.64550 0.86110 0.34800
C 	C 	0.16070 0.73470 0.80400 -0.01100
C 	C 	0.10650 0.78590 0.80650 -0.04200
C 	C 	0.50890 0.86340 0.86110 0.34300
C 	C 	0.57400 0.83930 0.80400 0.00900
C 	C 	0.67940 0.89350 0.80650 -0.03600
C 	C 	0.13660 0.49110 0.63890 0.35300
C 	C 	0.16070 0.42600 0.69600 -0.03100
C 	C 	0.10650 0.32060 0.69350 -0.04600
C 	C 	0.50890 0.64550 0.63890 0.35400
C 	C 	0.57400 0.73470 0.69600 -0.01300
C 	C 	0.67940 0.78590 0.69350 -0.03400
C 	C 	0.35450 0.86340 0.63890 0.34800
C 	C 	0.26530 0.83930 0.69600 -0.01100
C 	C 	0.21410 0.89350 0.69350 -0.04000
C 	C 	0.86340 0.50890 0.63890 0.34900
C 	C 	0.83930 0.57400 0.69600 -0.00500
C 	C 	0.89350 0.67940 0.69350 -0.03400
C 	C 	0.49110 0.35450 0.63890 0.35200
C 	C 	0.42600 0.26530 0.69600 -0.02500
C 	C 	0.32060 0.21410 0.69350 -0.04500
C 	C 	0.64550 0.13660 0.63890 0.35400
C 	C 	0.73470 0.16070 0.69600 -0.02500
C 	C 	0.78590 0.10650 0.69350 -0.04100
C 	C 	0.35450 0.49110 0.13890 0.35400
C 	C 	0.26530 0.42600 0.19600 -0.04400
C 	C 	0.21410 0.32060 0.19350 -0.03700
C 	C 	0.13660 0.64550 0.13890 0.35600
C 	C 	0.16070 0.73470 0.19600 -0.04400
C 	C 	0.10650 0.78590 0.19350 -0.03200
C 	C 	0.50890 0.86340 0.13890 0.35100
C 	C 	0.57400 0.83930 0.19600 -0.02400
C 	C 	0.67940 0.89350 0.19350 -0.02600
C 	C 	0.64550 0.50890 0.13890 0.35600
C 	C 	0.73470 0.57400 0.19600 -0.03200
C 	C 	0.78590 0.67940 0.19350 -0.02600
C 	C 	0.86340 0.35450 0.13890 0.35000
C 	C 	0.83930 0.26530 0.19600 -0.02900
C 	C 	0.89350 0.21410 0.19350 -0.03200
C 	C 	0.49110 0.13660 0.13890 0.35500
C 	C 	0.42600 0.16070 0.19600 -0.05000
C 	C 	0.32060 0.10650 0.19350 -0.03800
C 	C 	0.86340 0.50890 0.36110 0.35000
C 	C 	0.83930 0.57400 0.30400 -0.01200
C 	C 	0.89350 0.67940 0.30650 -0.02600
C 	C 	0.49110 0.35450 0.36110 0.35300
C 	C 	0.42600 0.26530 0.30400 -0.03200
C 	C 	0.32060 0.21410 0.30650 -0.03700
C 	C 	0.64550 0.13660 0.36110 0.35600
C 	C 	0.73470 0.16070 0.30400 -0.03200
C 	C 	0.78590 0.10650 0.30650 -0.03300
C 	C 	0.13660 0.49110 0.36110 0.35400
C 	C 	0.16070 0.42600 0.30400 -0.03900
C 	C 	0.10650 0.32060 0.30650 -0.03800
C 	C 	0.50890 0.64550 0.36110 0.35500
C 	C 	0.57400 0.73470 0.30400 -0.02000
C 	C 	0.67940 0.78590 0.30650 -0.02600
C 	C 	0.35450 0.86340 0.36110 0.34900
C 	C 	0.26530 0.83930 0.30400 -0.01800
C 	C 	0.21410 0.89350 0.30650 -0.03200
C 	C 	0.86570 0.73140 0.75000 -0.01100
C 	C 	0.86570 0.13430 0.75000 -0.02100
C 	C 	0.26860 0.13430 0.75000 -0.03100
C 	C 	0.13430 0.26860 0.75000 -0.03100
C 	C 	0.13430 0.86570 0.75000 -0.02100
C 	C 	0.73140 0.86570 0.75000 -0.01100
C 	C 	0.13430 0.26860 0.25000 -0.05300
C 	C 	0.13430 0.86570 0.25000 -0.04200
C 	C 	0.73140 0.86570 0.25000 -0.03200
C 	C 	0.86570 0.73140 0.25000 -0.03200
C 	C 	0.86570 0.13430 0.25000 -0.04200
C 	C 	0.26860 0.13430 0.25000 -0.05300
N 	N 	0.76128 0.52256 0.75000 -0.16800
N 	N 	0.76128 0.23872 0.75000 -0.16800
N 	N 	0.47744 0.23872 0.75000 -0.16800
N 	N 	0.23872 0.47744 0.75000 -0.16800
N 	N 	0.23872 0.76128 0.75000 -0.16800
N 	N 	0.52256 0.76128 0.75000 -0.16800
N 	N 	0.23872 0.47744 0.25000 -0.16400
N 	N 	0.23872 0.76128 0.25000 -0.16400
N 	N 	0.52256 0.76128 0.25000 -0.16400
N 	N 	0.76128 0.52256 0.25000 -0.16400
N 	N 	0.76128 0.23872 0.25000 -0.16400
N 	N 	0.47744 0.23872 0.25000 -0.16400
O 	O 	0.61152 0.41384 0.85706 -0.36900
O 	O 	0.61350 0.55330 0.90718 -0.35300
O 	O 	0.80232 0.38848 0.85706 -0.35800
O 	O 	0.93980 0.38650 0.90718 -0.31900
O 	O 	0.58616 0.19768 0.85706 -0.37900
O 	O 	0.44670 0.06020 0.90718 -0.38300
O 	O 	0.38848 0.58616 0.85706 -0.37100
O 	O 	0.38650 0.44670 0.90718 -0.35900
O 	O 	0.19768 0.61152 0.85706 -0.37800
O 	O 	0.06020 0.61350 0.90718 -0.38000
O 	O 	0.41384 0.80232 0.85706 -0.35700
O 	O 	0.55330 0.93980 0.90718 -0.31700
O 	O 	0.19768 0.58616 0.64294 -0.41100
O 	O 	0.06020 0.44670 0.59282 -0.44800
O 	O 	0.41384 0.61152 0.64294 -0.40000
O 	O 	0.55330 0.61350 0.59282 -0.41700
O 	O 	0.38848 0.80232 0.64294 -0.38900
O 	O 	0.38650 0.93980 0.59282 -0.38200
O 	O 	0.80232 0.41384 0.64294 -0.38800
O 	O 	0.93980 0.55330 0.59282 -0.37900
O 	O 	0.58616 0.38848 0.64294 -0.40200
O 	O 	0.44670 0.38650 0.59282 -0.42400
O 	O 	0.61152 0.19768 0.64294 -0.41000
O 	O 	0.61350 0.06020 0.59282 -0.44400
O 	O 	0.38848 0.58616 0.14294 -0.42400
O 	O 	0.38650 0.44670 0.09282 -0.46200
O 	O 	0.19768 0.61152 0.14294 -0.43200
O 	O 	0.06020 0.61350 0.09282 -0.48200
O 	O 	0.41384 0.80232 0.14294 -0.41000
O 	O 	0.55330 0.93980 0.09282 -0.41600
O 	O 	0.61152 0.41384 0.14294 -0.42200
O 	O 	0.61350 0.55330 0.09282 -0.45500
O 	O 	0.80232 0.38848 0.14294 -0.41100
O 	O 	0.93980 0.38650 0.09282 -0.41900
O 	O 	0.58616 0.19768 0.14294 -0.43300
O 	O 	0.44670 0.06020 0.09282 -0.48600
O 	O 	0.80232 0.41384 0.35706 -0.38600
O 	O 	0.93980 0.55330 0.40718 -0.37900
O 	O 	0.58616 0.38848 0.35706 -0.40000
O 	O 	0.44670 0.38650 0.40718 -0.42400
O 	O 	0.61152 0.19768 0.35706 -0.40800
O 	O 	0.61350 0.06020 0.40718 -0.44500
O 	O 	0.19768 0.58616 0.35706 -0.40900
O 	O 	0.06020 0.44670 0.40718 -0.44800
O 	O 	0.41384 0.61152 0.35706 -0.39900
O 	O 	0.55330 0.61350 0.40718 -0.41700
O 	O 	0.38848 0.80232 0.35706 -0.38700
O 	O 	0.38650 0.93980 0.40718 -0.38200
