data_crystal

_cell_length_a 15.27640
_cell_length_b 15.43180
_cell_length_c 15.43180
_cell_angle_alpha 120.00000
_cell_angle_beta  90.00000
_cell_angle_gamma 90.00000

_symmetry_space_group_name_	'P 1'
_symmetry_space_group_name_H-M	'P 1'

loop_
_symmetry_equiv_pos_as_xyz
  x,y,z

loop_
_atom_site_label
_atom_site_type_symbol
_atom_site_fract_x
_atom_site_fract_y
_atom_site_fract_z
_atom_site_charge
Nd	Nd	0.75000 0.33333 0.66666 2.22800
Nd	Nd	0.75000 0.66667 0.33334 2.22800
Nd	Nd	0.25000 0.66667 0.33334 2.20100
Nd	Nd	0.25000 0.33333 0.66666 2.20100
Co	Co	-0.00000 0.50000 0.50000 1.09500
Co	Co	-0.00000 0.00000 0.50000 1.05900
Co	Co	-0.00000 0.50000 -0.00000 1.05900
Co	Co	0.50000 0.00000 0.50000 1.12500
Co	Co	0.50000 0.50000 0.50000 1.16200
Co	Co	0.50000 0.50000 -0.00000 1.12500
H 	H 	0.84440 0.71290 0.76590 0.07700
H 	H 	0.84440 0.05300 0.28710 0.04700
H 	H 	0.84440 0.23410 0.94700 0.08500
H 	H 	0.84440 0.28710 0.23410 0.06200
H 	H 	0.84440 0.94700 0.71290 0.09200
H 	H 	0.84440 0.76590 0.05300 0.05400
H 	H 	0.65560 0.94700 0.23410 0.06500
H 	H 	0.65560 0.76590 0.71290 0.05700
H 	H 	0.65560 0.28710 0.05300 0.02600
H 	H 	0.65560 0.05300 0.76590 0.03400
H 	H 	0.65560 0.23410 0.28710 0.04100
H 	H 	0.65560 0.71290 0.94700 0.07300
H 	H 	0.15560 0.28710 0.23410 0.01900
H 	H 	0.15560 0.94700 0.71290 0.05200
H 	H 	0.15560 0.76590 0.05300 0.01200
H 	H 	0.15560 0.71290 0.76590 0.03600
H 	H 	0.15560 0.05300 0.28710 0.00400
H 	H 	0.15560 0.23410 0.94700 0.04400
H 	H 	0.34440 0.05300 0.76590 0.03100
H 	H 	0.34440 0.23410 0.28710 0.03800
H 	H 	0.34440 0.71290 0.94700 0.07000
H 	H 	0.34440 0.94700 0.23410 0.06300
H 	H 	0.34440 0.76590 0.71290 0.05400
H 	H 	0.34440 0.28710 0.05300 0.02200
H 	H 	0.75000 0.80000 0.90000 0.06800
H 	H 	0.75000 0.10000 0.20000 0.01800
H 	H 	0.75000 0.10000 0.90000 0.04300
H 	H 	0.75000 0.20000 0.10000 0.01800
H 	H 	0.75000 0.90000 0.80000 0.06900
H 	H 	0.75000 0.90000 0.10000 0.04300
H 	H 	0.25000 0.20000 0.10000 0.01100
H 	H 	0.25000 0.90000 0.80000 0.06300
H 	H 	0.25000 0.90000 0.10000 0.03700
H 	H 	0.25000 0.80000 0.90000 0.06300
H 	H 	0.25000 0.10000 0.20000 0.01100
H 	H 	0.25000 0.10000 0.90000 0.03700
C 	C 	0.86120 0.51150 0.64650 0.36100
C 	C 	0.80340 0.57540 0.73500 -0.01400
C 	C 	0.80600 0.67900 0.78540 -0.02500
C 	C 	0.86120 0.13500 0.48850 0.36100
C 	C 	0.80340 0.15960 0.42460 -0.03200
C 	C 	0.80600 0.10640 0.32100 -0.03600
C 	C 	0.86120 0.35350 0.86500 0.35500
C 	C 	0.80340 0.26500 0.84040 -0.01200
C 	C 	0.80600 0.21460 0.89360 -0.03000
C 	C 	0.86120 0.48850 0.35350 0.35900
C 	C 	0.80340 0.42460 0.26500 -0.02500
C 	C 	0.80600 0.32100 0.21460 -0.03500
C 	C 	0.86120 0.86500 0.51150 0.35600
C 	C 	0.80340 0.84040 0.57540 -0.00700
C 	C 	0.80600 0.89360 0.67900 -0.02400
C 	C 	0.86120 0.64650 0.13500 0.36200
C 	C 	0.80340 0.73500 0.15960 -0.02600
C 	C 	0.80600 0.78540 0.10640 -0.03100
C 	C 	0.63880 0.86500 0.35350 0.36000
C 	C 	0.69660 0.84040 0.26500 -0.02600
C 	C 	0.69400 0.89360 0.21460 -0.02900
C 	C 	0.63880 0.64650 0.51150 0.36700
C 	C 	0.69660 0.73500 0.57540 -0.02800
C 	C 	0.69400 0.78540 0.67900 -0.02300
C 	C 	0.63880 0.48850 0.13500 0.36600
C 	C 	0.69660 0.42460 0.15960 -0.04600
C 	C 	0.69400 0.32100 0.10640 -0.03400
C 	C 	0.63880 0.13500 0.64650 0.36700
C 	C 	0.69660 0.15960 0.73500 -0.04100
C 	C 	0.69400 0.10640 0.78540 -0.02900
C 	C 	0.63880 0.35350 0.48850 0.36400
C 	C 	0.69660 0.26500 0.42460 -0.03900
C 	C 	0.69400 0.21460 0.32100 -0.03400
C 	C 	0.63880 0.51150 0.86500 0.36100
C 	C 	0.69660 0.57540 0.84040 -0.02000
C 	C 	0.69400 0.67900 0.89360 -0.02400
C 	C 	0.13880 0.48850 0.35350 0.36500
C 	C 	0.19660 0.42460 0.26500 -0.05800
C 	C 	0.19400 0.32100 0.21460 -0.02600
C 	C 	0.13880 0.86500 0.51150 0.36200
C 	C 	0.19660 0.84040 0.57540 -0.03900
C 	C 	0.19400 0.89360 0.67900 -0.01600
C 	C 	0.13880 0.64650 0.13500 0.36800
C 	C 	0.19660 0.73500 0.15960 -0.05900
C 	C 	0.19400 0.78540 0.10640 -0.02100
C 	C 	0.13880 0.51150 0.64650 0.36700
C 	C 	0.19660 0.57540 0.73500 -0.04700
C 	C 	0.19400 0.67900 0.78540 -0.01500
C 	C 	0.13880 0.13500 0.48850 0.36700
C 	C 	0.19660 0.15960 0.42460 -0.06500
C 	C 	0.19400 0.10640 0.32100 -0.02700
C 	C 	0.13880 0.35350 0.86500 0.36100
C 	C 	0.19660 0.26500 0.84040 -0.04400
C 	C 	0.19400 0.21460 0.89360 -0.02100
C 	C 	0.36120 0.13500 0.64650 0.36800
C 	C 	0.30340 0.15960 0.73500 -0.04800
C 	C 	0.30600 0.10640 0.78540 -0.02200
C 	C 	0.36120 0.35350 0.48850 0.36500
C 	C 	0.30340 0.26500 0.42460 -0.04700
C 	C 	0.30600 0.21460 0.32100 -0.02600
C 	C 	0.36120 0.51150 0.86500 0.36200
C 	C 	0.30340 0.57540 0.84040 -0.02800
C 	C 	0.30600 0.67900 0.89360 -0.01600
C 	C 	0.36120 0.86500 0.35350 0.36100
C 	C 	0.30340 0.84040 0.26500 -0.03300
C 	C 	0.30600 0.89360 0.21460 -0.02100
C 	C 	0.36120 0.64650 0.51150 0.36800
C 	C 	0.30340 0.73500 0.57540 -0.03600
C 	C 	0.30600 0.78540 0.67900 -0.01600
C 	C 	0.36120 0.48850 0.13500 0.36700
C 	C 	0.30340 0.42460 0.15960 -0.05400
C 	C 	0.30600 0.32100 0.10640 -0.02700
C 	C 	0.75000 0.73040 0.86520 -0.02300
C 	C 	0.75000 0.13480 0.26960 -0.04400
C 	C 	0.75000 0.13480 0.86520 -0.03300
C 	C 	0.75000 0.26960 0.13480 -0.04400
C 	C 	0.75000 0.86520 0.73040 -0.02400
C 	C 	0.75000 0.86520 0.13480 -0.03300
C 	C 	0.25000 0.26960 0.13480 -0.06600
C 	C 	0.25000 0.86520 0.73040 -0.04500
C 	C 	0.25000 0.86520 0.13480 -0.05500
C 	C 	0.25000 0.73040 0.86520 -0.04500
C 	C 	0.25000 0.13480 0.26960 -0.06600
C 	C 	0.25000 0.13480 0.86520 -0.05500
N 	N 	0.75000 0.52490 0.76245 -0.20500
N 	N 	0.75000 0.23755 0.47510 -0.20500
N 	N 	0.75000 0.23755 0.76245 -0.20500
N 	N 	0.75000 0.47510 0.23755 -0.20500
N 	N 	0.75000 0.76245 0.52490 -0.20500
N 	N 	0.75000 0.76245 0.23755 -0.20500
N 	N 	0.25000 0.47510 0.23755 -0.20100
N 	N 	0.25000 0.76245 0.52490 -0.20100
N 	N 	0.25000 0.76245 0.23755 -0.20100
N 	N 	0.25000 0.52490 0.76245 -0.20100
N 	N 	0.25000 0.23755 0.47510 -0.20100
N 	N 	0.25000 0.23755 0.76245 -0.20100
O 	O 	0.85850 0.41740 0.61340 -0.44700
O 	O 	0.90600 0.55460 0.61260 -0.36100
O 	O 	0.85850 0.19600 0.58260 -0.45700
O 	O 	0.90600 0.05800 0.44540 -0.39100
O 	O 	0.85850 0.38660 0.80400 -0.43600
O 	O 	0.90600 0.38740 0.94200 -0.32700
O 	O 	0.85850 0.58260 0.38660 -0.44900
O 	O 	0.90600 0.44540 0.38740 -0.36600
O 	O 	0.85850 0.80400 0.41740 -0.43500
O 	O 	0.90600 0.94200 0.55460 -0.32500
O 	O 	0.85850 0.61340 0.19600 -0.45600
O 	O 	0.90600 0.61260 0.05800 -0.38900
O 	O 	0.64150 0.80400 0.38660 -0.46800
O 	O 	0.59400 0.94200 0.38740 -0.38900
O 	O 	0.64150 0.61340 0.41740 -0.47900
O 	O 	0.59400 0.61260 0.55460 -0.42400
O 	O 	0.64150 0.58260 0.19600 -0.48900
O 	O 	0.59400 0.44540 0.05800 -0.45500
O 	O 	0.64150 0.19600 0.61340 -0.48800
O 	O 	0.59400 0.05800 0.61260 -0.45200
O 	O 	0.64150 0.38660 0.58260 -0.48100
O 	O 	0.59400 0.38740 0.44540 -0.43000
O 	O 	0.64150 0.41740 0.80400 -0.46700
O 	O 	0.59400 0.55460 0.94200 -0.38600
O 	O 	0.14150 0.58260 0.38660 -0.50200
O 	O 	0.09400 0.44540 0.38740 -0.46700
O 	O 	0.14150 0.80400 0.41740 -0.48800
O 	O 	0.09400 0.94200 0.55460 -0.42200
O 	O 	0.14150 0.61340 0.19600 -0.51000
O 	O 	0.09400 0.61260 0.05800 -0.48900
O 	O 	0.14150 0.41740 0.61340 -0.50000
O 	O 	0.09400 0.55460 0.61260 -0.46100
O 	O 	0.14150 0.19600 0.58260 -0.51100
O 	O 	0.09400 0.05800 0.44540 -0.49200
O 	O 	0.14150 0.38660 0.80400 -0.48900
O 	O 	0.09400 0.38740 0.94200 -0.42400
O 	O 	0.35850 0.19600 0.61340 -0.48500
O 	O 	0.40600 0.05800 0.61260 -0.45200
O 	O 	0.35850 0.38660 0.58260 -0.47800
O 	O 	0.40600 0.38740 0.44540 -0.43000
O 	O 	0.35850 0.41740 0.80400 -0.46400
O 	O 	0.40600 0.55460 0.94200 -0.38600
O 	O 	0.35850 0.80400 0.38660 -0.46500
O 	O 	0.40600 0.94200 0.38740 -0.38800
O 	O 	0.35850 0.61340 0.41740 -0.47600
O 	O 	0.40600 0.61260 0.55460 -0.42400
O 	O 	0.35850 0.58260 0.19600 -0.48600
O 	O 	0.40600 0.44540 0.05800 -0.45500
