data_crystal

_cell_length_a 11.88100
_cell_length_b 15.07000
_cell_length_c 18.33800
_cell_angle_alpha 66.01400
_cell_angle_beta  76.90100
_cell_angle_gamma 75.64600

_symmetry_space_group_name_	'P 1'
_symmetry_space_group_name_H-M	'P 1'

loop_
_symmetry_equiv_pos_as_xyz
  x,y,z

loop_
_atom_site_label
_atom_site_type_symbol
_atom_site_fract_x
_atom_site_fract_y
_atom_site_fract_z
_atom_site_charge
W 	W 	0.18530 0.70821 0.10479 0.91400
W 	W 	0.35890 0.27437 0.14709 0.97800
W 	W 	0.50790 0.48399 0.00422 1.06500
W 	W 	0.66800 0.44744 0.14693 1.14900
W 	W 	0.50840 0.24581 0.29402 0.96400
W 	W 	0.43320 0.50811 0.65354 1.34500
W 	W 	0.25640 0.75655 0.55322 1.02900
W 	W 	0.18240 0.52350 0.04653 1.04600
W 	W 	0.51010 0.67099 0.06159 0.85900
W 	W 	0.04200 0.52345 0.22965 1.03500
W 	W 	0.40240 0.75256 0.37142 0.98300
W 	W 	0.57440 0.50807 0.46982 0.86800
W 	W 	0.21330 0.27853 0.32832 0.86800
W 	W 	0.10670 0.78540 0.40580 1.30300
W 	W 	0.10520 0.36075 0.63766 1.04400
W 	W 	0.10740 0.54806 0.69519 1.29900
W 	W 	0.94720 0.58466 0.55203 1.21100
W 	W 	0.43100 0.32347 0.59497 1.03400
Ge	Ge	0.25960 0.55000 0.49820 1.46800
Ge	Ge	0.35610 0.48300 0.20170 1.58000
Cu	Cu	0.23890 0.61630 0.30800 0.94500
Cu	Cu	0.09740 0.44140 0.42680 0.89500
Cu	Cu	0.51880 0.58790 0.27190 0.91700
Cu	Cu	0.37930 0.41450 0.39170 0.92600
O 	O 	0.26800 0.33400 0.64200 -0.47100
O 	O 	0.66300 0.58900 0.08930 -0.47400
O 	O 	0.38500 0.49200 0.53600 -0.64700
O 	O 	0.24300 0.83100 0.34880 -0.46000
O 	O 	0.00200 0.70600 0.48790 -0.44300
O 	O 	0.35500 0.35800 0.23950 -0.63000
O 	O 	0.24700 0.22600 0.23500 -0.46300
O 	O 	0.35800 0.51500 0.27890 -0.78500
O 	O 	0.45600 0.36800 0.67700 -0.46600
O 	O 	0.01200 0.89500 0.35660 -0.39500
O 	O 	0.25400 0.67700 0.47040 -0.62100
O 	O 	0.24600 0.51700 0.41200 -0.69800
O 	O 	0.13000 0.71000 0.34810 -0.50000
O 	O 	0.27700 0.50700 0.69300 -0.50900
O 	O 	0.48600 0.21200 0.20390 -0.45100
O 	O 	0.22550 0.53930 0.15410 -0.61100
O 	O 	0.56800 0.37200 0.53700 -0.46800
O 	O 	-0.00000 0.55400 0.46000 -0.43600
O 	O 	0.22400 0.70200 0.19870 -0.45900
O 	O 	0.47600 0.35300 0.07200 -0.46600
O 	O 	0.66200 0.43500 0.04900 -0.48000
O 	O 	0.62600 0.47900 0.24400 -0.46300
O 	O 	0.03500 0.66500 0.16710 -0.41700
O 	O 	0.48400 0.51400 0.73200 -0.47100
O 	O 	0.40600 0.67560 0.31890 -0.54900
O 	O 	0.82200 0.41500 0.14400 -0.50400
O 	O 	0.14100 0.83300 0.48610 -0.41400
O 	O 	0.95100 0.45100 0.61500 -0.53900
O 	O 	0.46900 0.51600 0.12050 -0.64500
O 	O 	0.08800 0.41100 0.72500 -0.42900
O 	O 	0.35800 0.19280 0.35710 -0.40900
O 	O 	0.54000 0.60700 0.98000 -0.34700
O 	O 	0.52400 0.50600 0.38000 -0.52200
O 	O 	0.13030 0.52400 0.56960 -0.60900
O 	O 	0.16100 0.65600 0.02600 -0.47000
O 	O 	0.13200 0.34800 0.54420 -0.48100
O 	O 	0.10800 0.39750 0.26100 -0.53200
O 	O 	0.35000 0.71000 0.05490 -0.48000
O 	O 	0.08900 0.53800 0.30900 -0.53000
O 	O 	0.04500 0.51500 0.12400 -0.44900
O 	O 	0.06000 0.55700 0.79000 -0.42400
O 	O 	0.38900 0.32800 0.50700 -0.48000
O 	O 	0.50000 0.32200 0.34900 -0.46700
O 	O 	0.15300 0.67400 0.62630 -0.46800
O 	O 	0.35400 0.53340 0.99870 -0.35500
O 	O 	0.12800 0.53100 0.96000 -0.33300
O 	O 	0.55900 0.46800 0.91600 -0.41000
O 	O 	0.22800 0.34400 0.39570 -0.48700
O 	O 	0.49300 0.67010 0.16730 -0.47800
O 	O 	0.80300 0.62800 0.55020 -0.48300
O 	O 	0.24500 0.37700 0.10120 -0.50500
O 	O 	0.96700 0.60100 0.65000 -0.51700
O 	O 	0.37200 0.79500 0.46400 -0.47400
O 	O 	0.56800 0.52300 0.57800 -0.48200
O 	O 	0.51050 0.65660 0.43170 -0.50100
O 	O 	0.37500 0.63800 0.60360 -0.50800
O 	O 	0.60900 0.32700 0.20800 -0.47800
Cu	Cu	0.27550 0.90090 0.70400 0.88800
O 	O 	0.29200 0.94800 0.81440 -0.71800
O 	O 	0.58600 0.76500 0.64100 -0.30900
O 	O 	0.12300 0.89100 0.75300 -0.37500
O 	O 	0.44500 0.88300 0.65500 -0.36800
O 	O 	0.01600 0.76000 0.82700 -0.25900
N 	N 	0.30700 0.76700 0.78700 -0.08000
C 	C 	0.11900 0.79400 0.78800 0.27900
C 	C 	0.37900 0.84500 0.85800 0.16300
H 	H 	0.45460 0.83840 0.82570 -0.01700
H 	H 	0.38930 0.83850 0.91150 -0.02000
C 	C 	0.22400 0.71300 0.79730 -0.28600
H 	H 	0.21770 0.66080 0.85050 0.14800
H 	H 	0.23810 0.68430 0.75640 0.10300
C 	C 	0.30400 0.77600 0.86200 -0.21400
H 	H 	0.32880 0.71140 0.90110 0.13300
H 	H 	0.22300 0.79910 0.88110 0.13200
C 	C 	0.24300 0.98400 0.84100 0.90600
H 	H 	0.17650 0.95130 0.85600 -0.19700
H 	H 	0.22330 0.04330 0.79470 -0.24400
C 	C 	0.42300 0.72100 0.75500 -0.38600
H 	H 	0.46820 0.68560 0.79940 0.15700
H 	H 	0.40940 0.67250 0.73740 0.15000
C 	C 	0.49300 0.78100 0.69200 0.30500
K 	K 	0.67700 0.42700 0.80000 0.63100
O 	O 	0.02300 0.08500 0.28100 -0.37900
K 	K 	0.94270 0.60620 0.90010 0.64200
K 	K 	0.60220 0.73820 0.50820 0.64900
O 	O 	0.52900 0.94800 0.47200 -0.38700
H 	H 	0.53620 0.88050 0.50830 0.11100
H 	H 	0.46200 0.98640 0.49310 0.16700
K 	K 	0.01100 0.28850 0.19830 0.63300
K 	K 	0.92490 0.03280 0.25670 0.63400
O 	O 	0.79000 0.97600 0.34300 -0.36400
H 	H 	0.81620 0.90980 0.34260 0.10300
H 	H 	0.78070 0.03070 0.29220 -0.01300
