data_crystal

_cell_length_a 7.62160
_cell_length_b 9.83300
_cell_length_c 14.76200
_cell_angle_alpha 90.00000
_cell_angle_beta  98.19100
_cell_angle_gamma 90.00000

_symmetry_space_group_name_	'P 1'
_symmetry_space_group_name_H-M	'P 1'

loop_
_symmetry_equiv_pos_as_xyz
  x,y,z

loop_
_atom_site_label
_atom_site_type_symbol
_atom_site_fract_x
_atom_site_fract_y
_atom_site_fract_z
_atom_site_charge
Dy	Dy	0.64943 0.54507 0.36089 1.81100
Dy	Dy	0.85057 0.04507 0.13911 1.76400
Dy	Dy	0.35057 0.45493 0.63911 1.81100
Dy	Dy	0.14943 0.95493 0.86089 1.76400
H 	H 	0.79940 0.61030 0.86220 -0.02100
H 	H 	0.82710 0.61410 0.13570 -0.03300
H 	H 	0.61660 0.30110 0.98450 -0.00500
H 	H 	0.70060 0.11030 0.63780 -0.02000
H 	H 	0.67290 0.11410 0.36430 -0.03000
H 	H 	0.88340 0.80110 0.51550 -0.00200
H 	H 	0.20060 0.38970 0.13780 -0.02100
H 	H 	0.17290 0.38590 0.86430 -0.03300
H 	H 	0.38340 0.69890 0.01550 -0.00500
H 	H 	0.29940 0.88970 0.36220 -0.02000
H 	H 	0.32710 0.88590 0.63570 -0.03000
H 	H 	0.11660 0.19890 0.48450 -0.00200
C 	C 	0.77540 0.56910 0.91580 0.14200
C 	C 	0.82710 0.63560 0.99930 -0.23900
C 	C 	0.79700 0.57150 0.07940 0.17200
C 	C 	0.72040 0.44150 0.07410 -0.25300
C 	C 	0.66980 0.38640 0.98830 0.15300
C 	C 	0.91230 0.77310 0.00070 0.53400
C 	C 	0.69320 0.36240 0.15760 0.49800
C 	C 	0.45720 0.96920 0.03900 0.25100
C 	C 	0.72460 0.06910 0.58420 0.13600
C 	C 	0.67290 0.13560 0.50070 -0.24200
C 	C 	0.70300 0.07150 0.42060 0.16200
C 	C 	0.77960 0.94150 0.42590 -0.23400
C 	C 	0.83020 0.88640 0.51170 0.14300
C 	C 	0.58770 0.27310 0.49930 0.54500
C 	C 	0.80680 0.86240 0.34240 0.49300
C 	C 	0.04280 0.46920 0.46100 0.25200
C 	C 	0.22460 0.43090 0.08420 0.14200
C 	C 	0.17290 0.36440 0.00070 -0.23900
C 	C 	0.20300 0.42850 0.92060 0.17200
C 	C 	0.27960 0.55850 0.92590 -0.25300
C 	C 	0.33020 0.61360 0.01170 0.15300
C 	C 	0.08770 0.22690 0.99930 0.53400
C 	C 	0.30680 0.63760 0.84240 0.49800
C 	C 	0.54280 0.03080 0.96100 0.25100
C 	C 	0.27540 0.93090 0.41580 0.13600
C 	C 	0.32710 0.86440 0.49930 -0.24200
C 	C 	0.29700 0.92850 0.57940 0.16200
C 	C 	0.22040 0.05850 0.57410 -0.23400
C 	C 	0.16980 0.11360 0.48830 0.14300
C 	C 	0.41230 0.72690 0.50070 0.54500
C 	C 	0.19320 0.13760 0.65760 0.49300
C 	C 	0.95720 0.53080 0.53900 0.25200
N 	N 	0.69310 0.44890 0.91040 -0.17400
N 	N 	0.80690 0.94890 0.58960 -0.16800
N 	N 	0.30690 0.55110 0.08960 -0.17400
N 	N 	0.19310 0.05110 0.41040 -0.16800
O 	O 	0.98050 0.80830 0.93220 -0.53100
O 	O 	0.90660 0.84380 0.07070 -0.51900
O 	O 	0.69580 0.42190 0.23190 -0.52100
O 	O 	0.66680 0.23530 0.14730 -0.48800
O 	O 	0.55310 0.95290 0.11500 -0.37200
O 	O 	0.29570 0.93720 0.02040 -0.37100
O 	O 	0.51950 0.30830 0.56780 -0.54500
O 	O 	0.59340 0.34380 0.42930 -0.53100
O 	O 	0.80420 0.92190 0.26810 -0.51000
O 	O 	0.83320 0.73530 0.35270 -0.48700
O 	O 	0.94690 0.45290 0.38500 -0.38200
O 	O 	0.20430 0.43720 0.47960 -0.37800
O 	O 	0.01950 0.19170 0.06780 -0.53100
O 	O 	0.09340 0.15620 0.92930 -0.51900
O 	O 	0.30420 0.57810 0.76810 -0.52100
O 	O 	0.33320 0.76470 0.85270 -0.48800
O 	O 	0.44690 0.04710 0.88500 -0.37200
O 	O 	0.70430 0.06280 0.97960 -0.37100
O 	O 	0.48050 0.69170 0.43220 -0.54500
O 	O 	0.40660 0.65620 0.57070 -0.53100
O 	O 	0.19580 0.07810 0.73190 -0.51000
O 	O 	0.16680 0.26470 0.64730 -0.48700
O 	O 	0.05310 0.54710 0.61500 -0.38200
O 	O 	0.79570 0.56280 0.52040 -0.37800
