data_crystal

_cell_length_a 7.66680
_cell_length_b 9.87340
_cell_length_c 14.90500
_cell_angle_alpha 90.00000
_cell_angle_beta  98.36500
_cell_angle_gamma 90.00000

_symmetry_space_group_name_	'P 1'
_symmetry_space_group_name_H-M	'P 1'

loop_
_symmetry_equiv_pos_as_xyz
  x,y,z

loop_
_atom_site_label
_atom_site_type_symbol
_atom_site_fract_x
_atom_site_fract_y
_atom_site_fract_z
_atom_site_charge
Sm	Sm	0.85343 0.95571 0.13970 1.98600
Sm	Sm	0.64657 0.45571 0.36030 2.04300
Sm	Sm	0.14657 0.04429 0.86030 1.98700
Sm	Sm	0.35343 0.54429 0.63970 2.04400
H 	H 	0.61490 0.69830 0.98420 -0.01500
H 	H 	0.82540 0.38740 0.13460 -0.05100
H 	H 	0.79560 0.38940 0.86360 -0.03500
H 	H 	0.88510 0.19830 0.51580 -0.01100
H 	H 	0.67460 0.88740 0.36540 -0.04800
H 	H 	0.70440 0.88940 0.63640 -0.03400
H 	H 	0.38510 0.30170 0.01580 -0.01500
H 	H 	0.17460 0.61260 0.86540 -0.05100
H 	H 	0.20440 0.61060 0.13640 -0.03500
H 	H 	0.11490 0.80170 0.48420 -0.01100
H 	H 	0.32540 0.11260 0.63460 -0.04800
H 	H 	0.29560 0.11060 0.36360 -0.03400
C 	C 	0.66920 0.61380 0.98780 0.16300
C 	C 	0.72130 0.55860 0.07360 -0.27900
C 	C 	0.79610 0.43020 0.07890 0.19900
C 	C 	0.82610 0.36740 0.99950 -0.26500
C 	C 	0.77360 0.43170 0.91650 0.15400
C 	C 	0.69200 0.63680 0.15590 0.52200
C 	C 	0.91120 0.23050 0.00090 0.55900
C 	C 	0.45650 0.03130 0.03890 0.26500
C 	C 	0.83080 0.11380 0.51220 0.15200
C 	C 	0.77870 0.05860 0.42640 -0.25900
C 	C 	0.70390 0.93020 0.42110 0.18700
C 	C 	0.67390 0.86740 0.50050 -0.26700
C 	C 	0.72640 0.93170 0.58350 0.14700
C 	C 	0.80800 0.13680 0.34410 0.51600
C 	C 	0.58880 0.73050 0.49910 0.57000
C 	C 	0.04350 0.53130 0.46110 0.26500
C 	C 	0.33080 0.38620 0.01220 0.16300
C 	C 	0.27870 0.44140 0.92640 -0.27900
C 	C 	0.20390 0.56980 0.92110 0.19900
C 	C 	0.17390 0.63260 0.00050 -0.26500
C 	C 	0.22640 0.56830 0.08350 0.15400
C 	C 	0.30800 0.36320 0.84410 0.52200
C 	C 	0.08880 0.76950 0.99910 0.55900
C 	C 	0.54350 0.96870 0.96110 0.26500
C 	C 	0.16920 0.88620 0.48780 0.15200
C 	C 	0.22130 0.94140 0.57360 -0.25900
C 	C 	0.29610 0.06980 0.57890 0.18700
C 	C 	0.32610 0.13260 0.49950 -0.26700
C 	C 	0.27360 0.06830 0.41650 0.14700
C 	C 	0.19200 0.86320 0.65590 0.51600
C 	C 	0.41120 0.26950 0.50090 0.57000
C 	C 	0.95650 0.46870 0.53890 0.26500
N 	N 	0.69250 0.55250 0.91050 -0.18600
N 	N 	0.80750 0.05250 0.58950 -0.17900
N 	N 	0.30750 0.44750 0.08950 -0.18600
N 	N 	0.19250 0.94750 0.41050 -0.17900
O 	O 	0.66590 0.76340 0.14621 -0.52700
O 	O 	0.69620 0.57700 0.22951 -0.56500
O 	O 	0.97620 0.19490 0.93270 -0.56800
O 	O 	0.91070 0.16040 0.07100 -0.55900
O 	O 	0.55260 0.05030 0.11310 -0.40600
O 	O 	0.29680 0.06210 0.02050 -0.40700
O 	O 	0.83410 0.26340 0.35379 -0.52600
O 	O 	0.80380 0.07700 0.27049 -0.55200
O 	O 	0.52380 0.69490 0.56730 -0.58400
O 	O 	0.58930 0.66040 0.42900 -0.57300
O 	O 	0.94740 0.55030 0.38690 -0.41800
O 	O 	0.20320 0.56210 0.47950 -0.41500
O 	O 	0.33410 0.23660 0.85379 -0.52700
O 	O 	0.30380 0.42300 0.77049 -0.56500
O 	O 	0.02380 0.80510 0.06730 -0.56800
O 	O 	0.08930 0.83960 0.92900 -0.55900
O 	O 	0.44740 0.94970 0.88690 -0.40600
O 	O 	0.70320 0.93790 0.97950 -0.40700
O 	O 	0.16590 0.73660 0.64621 -0.52600
O 	O 	0.19620 0.92300 0.72951 -0.55200
O 	O 	0.47620 0.30510 0.43270 -0.58400
O 	O 	0.41070 0.33960 0.57100 -0.57300
O 	O 	0.05260 0.44970 0.61310 -0.41800
O 	O 	0.79680 0.43790 0.52050 -0.41500
