data_crystal

_cell_length_a 9.34100
_cell_length_b 8.89200
_cell_length_c 9.48000
_cell_angle_alpha 90.00000
_cell_angle_beta  117.60000
_cell_angle_gamma 90.00000

_symmetry_space_group_name_	'P 1'
_symmetry_space_group_name_H-M	'P 1'

loop_
_symmetry_equiv_pos_as_xyz
  x,y,z

loop_
_atom_site_label
_atom_site_type_symbol
_atom_site_fract_x
_atom_site_fract_y
_atom_site_fract_z
_atom_site_charge
P 	P 	0.83700 0.89970 0.06690 0.52000
P 	P 	0.13760 0.65860 0.46760 0.54800
O 	O 	0.00970 0.85460 0.11810 -0.35300
O 	O 	0.24220 0.73260 0.40340 -0.33500
O 	O 	0.74810 0.94430 0.89080 -0.31300
O 	O 	0.24450 0.54850 0.59450 -0.33400
O 	O 	0.98590 0.58760 0.33870 -0.36500
O 	O 	0.73750 0.77480 0.09270 -0.31500
O 	O 	0.84620 0.03900 0.17220 -0.15500
O 	O 	0.08010 0.78330 0.54990 -0.16500
P 	P 	0.66300 0.89970 0.43310 0.53300
P 	P 	0.36240 0.65860 0.03240 0.54200
O 	O 	0.49030 0.85460 0.38190 -0.35500
O 	O 	0.25780 0.73260 0.09660 -0.33700
O 	O 	0.75190 0.94430 0.60920 -0.32000
O 	O 	0.25550 0.54850 0.90550 -0.33300
O 	O 	0.51410 0.58760 0.16130 -0.36300
O 	O 	0.76250 0.77480 0.40730 -0.31500
O 	O 	0.65380 0.03900 0.32780 -0.16100
O 	O 	0.41990 0.78330 0.95010 -0.16100
P 	P 	0.16300 0.10030 0.93310 0.51900
P 	P 	0.86240 0.34140 0.53240 0.54700
O 	O 	0.99030 0.14540 0.88190 -0.35300
O 	O 	0.75780 0.26740 0.59660 -0.33500
O 	O 	0.25190 0.05570 0.10920 -0.31300
O 	O 	0.75550 0.45150 0.40550 -0.33400
O 	O 	0.01410 0.41240 0.66130 -0.36500
O 	O 	0.26250 0.22520 0.90730 -0.31500
O 	O 	0.15380 0.96100 0.82780 -0.15500
O 	O 	0.91990 0.21670 0.45010 -0.16500
P 	P 	0.33700 0.10030 0.56690 0.53300
P 	P 	0.63760 0.34140 0.96760 0.54200
O 	O 	0.50970 0.14540 0.61810 -0.35500
O 	O 	0.74220 0.26740 0.90340 -0.33700
O 	O 	0.24810 0.05570 0.39080 -0.32000
O 	O 	0.74450 0.45150 0.09450 -0.33300
O 	O 	0.48590 0.41240 0.83870 -0.36300
O 	O 	0.23750 0.22520 0.59270 -0.31500
O 	O 	0.34620 0.96100 0.67220 -0.16100
O 	O 	0.58010 0.21670 0.04990 -0.16100
Fe	Fe	0.25000 0.88180 0.25000 1.26700
Fe	Fe	0.75000 0.11820 0.75000 1.26700
Fe	Fe	0.75000 0.60420 0.25000 1.27100
Fe	Fe	0.25000 0.39580 0.75000 1.27100
