data_crystal

_cell_length_a 17.48780
_cell_length_b 16.51080
_cell_length_c 7.13820
_cell_angle_alpha 90.00000
_cell_angle_beta  99.02600
_cell_angle_gamma 90.00000

_symmetry_space_group_name_	'P 1'
_symmetry_space_group_name_H-M	'P 1'

loop_
_symmetry_equiv_pos_as_xyz
  x,y,z

loop_
_atom_site_label
_atom_site_type_symbol
_atom_site_fract_x
_atom_site_fract_y
_atom_site_fract_z
_atom_site_charge
Cu	Cu	0.78504 0.77292 0.99336 0.85100
N 	N 	0.77810 0.66580 0.14820 -0.25100
N 	N 	0.72210 0.36530 0.82460 -0.24200
N 	N 	0.87380 0.77320 0.84370 -0.25300
N 	N 	0.68000 0.77270 0.81010 -0.23700
C 	C 	0.83320 0.64120 0.26730 0.11600
H 	H 	0.88190 0.66270 0.26190 -0.03400
C 	C 	0.82720 0.58400 0.40760 -0.17000
H 	H 	0.87090 0.56940 0.49270 0.08100
C 	C 	0.75700 0.54890 0.42090 0.07300
C 	C 	0.69830 0.57450 0.28750 -0.16600
H 	H 	0.64910 0.55290 0.28490 0.08000
C 	C 	0.71030 0.63160 0.15680 0.09200
H 	H 	0.66810 0.64740 0.06830 -0.02100
C 	C 	0.74520 0.48660 0.56510 0.04400
C 	C 	0.69120 0.49370 0.68060 -0.14700
H 	H 	0.66090 0.54010 0.67530 0.07500
C 	C 	0.68100 0.43370 0.80390 0.08500
H 	H 	0.64270 0.44080 0.87930 -0.02000
C 	C 	0.77660 0.35720 0.70260 0.05900
H 	H 	0.80520 0.30960 0.70800 -0.01200
C 	C 	0.79030 0.41430 0.57770 -0.13400
H 	H 	0.82820 0.40680 0.50130 0.07400
C 	C 	0.88750 0.70620 0.75060 0.07600
H 	H 	0.86280 0.65860 0.77660 -0.02100
C 	C 	0.93700 0.70410 0.61690 -0.14600
H 	H 	0.94480 0.65590 0.55510 0.07100
C 	C 	0.97460 0.77370 0.57600 0.05800
C 	C 	0.96020 0.83970 0.67100 -0.16100
H 	H 	0.98420 0.88820 0.64850 0.07900
C 	C 	0.90970 0.83750 0.80370 0.09900
H 	H 	0.90150 0.88520 0.86710 -0.02800
C 	C 	0.66460 0.72230 0.66610 0.08500
H 	H 	0.70300 0.68570 0.64660 -0.02000
C 	C 	0.59620 0.71960 0.54290 -0.15000
H 	H 	0.58940 0.68230 0.44430 0.07800
C 	C 	0.53770 0.77270 0.56600 0.05400
C 	C 	0.55300 0.82710 0.71830 -0.14200
H 	H 	0.51560 0.86440 0.74030 0.07600
C 	C 	0.62220 0.82530 0.83280 0.07000
H 	H 	0.63080 0.86200 0.93270 -0.01100
Cu	Cu	0.28504 0.27292 0.99336 0.85100
N 	N 	0.27810 0.16580 0.14820 -0.24900
N 	N 	0.22210 0.86530 0.82460 -0.23900
N 	N 	0.37380 0.27320 0.84370 -0.25300
N 	N 	0.18000 0.27270 0.81010 -0.23800
C 	C 	0.33320 0.14120 0.26730 0.11000
H 	H 	0.38190 0.16270 0.26190 -0.03300
C 	C 	0.32720 0.08400 0.40760 -0.16300
H 	H 	0.37090 0.06940 0.49270 0.07600
C 	C 	0.25700 0.04890 0.42090 0.05800
C 	C 	0.19830 0.07450 0.28750 -0.15800
H 	H 	0.14910 0.05290 0.28490 0.07300
C 	C 	0.21030 0.13160 0.15680 0.08600
H 	H 	0.16810 0.14740 0.06830 -0.02000
C 	C 	0.24520 0.98660 0.56510 0.04900
C 	C 	0.19120 0.99370 0.68060 -0.12300
H 	H 	0.16090 0.04010 0.67530 0.05900
C 	C 	0.18100 0.93370 0.80390 0.07400
H 	H 	0.14270 0.94080 0.87930 -0.01400
C 	C 	0.27660 0.85720 0.70260 0.05900
H 	H 	0.30520 0.80960 0.70800 -0.01200
C 	C 	0.29030 0.91430 0.57770 -0.13400
H 	H 	0.32820 0.90680 0.50130 0.07600
C 	C 	0.38750 0.20620 0.75060 0.07600
H 	H 	0.36280 0.15860 0.77660 -0.02200
C 	C 	0.43700 0.20410 0.61690 -0.14600
H 	H 	0.44480 0.15590 0.55510 0.07000
C 	C 	0.47460 0.27370 0.57600 0.05800
C 	C 	0.46020 0.33970 0.67100 -0.16100
H 	H 	0.48420 0.38820 0.64850 0.07700
C 	C 	0.40970 0.33750 0.80370 0.09900
H 	H 	0.40150 0.38520 0.86710 -0.02900
C 	C 	0.16460 0.22230 0.66610 0.08400
H 	H 	0.20300 0.18570 0.64660 -0.02000
C 	C 	0.09620 0.21960 0.54290 -0.15000
H 	H 	0.08940 0.18230 0.44430 0.07700
C 	C 	0.03770 0.27270 0.56600 0.05300
C 	C 	0.05300 0.32710 0.71830 -0.14200
H 	H 	0.01560 0.36440 0.74030 0.07400
C 	C 	0.12220 0.32530 0.83280 0.06900
H 	H 	0.13080 0.36200 0.93270 -0.01200
Cu	Cu	0.21496 0.77292 0.00664 0.85100
N 	N 	0.22190 0.66580 0.85180 -0.25100
N 	N 	0.27790 0.36530 0.17540 -0.24200
N 	N 	0.12620 0.77320 0.15630 -0.25300
N 	N 	0.32000 0.77270 0.18990 -0.23700
C 	C 	0.16680 0.64120 0.73270 0.11600
H 	H 	0.11810 0.66270 0.73810 -0.03400
C 	C 	0.17280 0.58400 0.59240 -0.17000
H 	H 	0.12910 0.56940 0.50730 0.08100
C 	C 	0.24300 0.54890 0.57910 0.07300
C 	C 	0.30170 0.57450 0.71250 -0.16600
H 	H 	0.35090 0.55290 0.71510 0.08000
C 	C 	0.28970 0.63160 0.84320 0.09200
H 	H 	0.33190 0.64740 0.93170 -0.02100
C 	C 	0.25480 0.48660 0.43490 0.04400
C 	C 	0.30880 0.49370 0.31940 -0.14700
H 	H 	0.33910 0.54010 0.32470 0.07500
C 	C 	0.31900 0.43370 0.19610 0.08500
H 	H 	0.35730 0.44080 0.12070 -0.02000
C 	C 	0.22340 0.35720 0.29740 0.05900
H 	H 	0.19480 0.30960 0.29200 -0.01200
C 	C 	0.20970 0.41430 0.42230 -0.13400
H 	H 	0.17180 0.40680 0.49870 0.07400
C 	C 	0.11250 0.70620 0.24940 0.07600
H 	H 	0.13720 0.65860 0.22340 -0.02100
C 	C 	0.06300 0.70410 0.38310 -0.14600
H 	H 	0.05520 0.65590 0.44490 0.07100
C 	C 	0.02540 0.77370 0.42400 0.05800
C 	C 	0.03980 0.83970 0.32900 -0.16100
H 	H 	0.01580 0.88820 0.35150 0.07900
C 	C 	0.09030 0.83750 0.19630 0.09900
H 	H 	0.09850 0.88520 0.13290 -0.02800
C 	C 	0.33540 0.72230 0.33390 0.08500
H 	H 	0.29700 0.68570 0.35340 -0.02000
C 	C 	0.40380 0.71960 0.45710 -0.15000
H 	H 	0.41060 0.68230 0.55570 0.07800
C 	C 	0.46230 0.77270 0.43400 0.05400
C 	C 	0.44700 0.82710 0.28170 -0.14200
H 	H 	0.48440 0.86440 0.25970 0.07600
C 	C 	0.37780 0.82530 0.16720 0.07000
H 	H 	0.36920 0.86200 0.06730 -0.01100
Cu	Cu	0.71496 0.27292 0.00664 0.85100
N 	N 	0.72190 0.16580 0.85180 -0.24900
N 	N 	0.77790 0.86530 0.17540 -0.23900
N 	N 	0.62620 0.27320 0.15630 -0.25300
N 	N 	0.82000 0.27270 0.18990 -0.23800
C 	C 	0.66680 0.14120 0.73270 0.11000
H 	H 	0.61810 0.16270 0.73810 -0.03300
C 	C 	0.67280 0.08400 0.59240 -0.16300
H 	H 	0.62910 0.06940 0.50730 0.07600
C 	C 	0.74300 0.04890 0.57910 0.05800
C 	C 	0.80170 0.07450 0.71250 -0.15800
H 	H 	0.85090 0.05290 0.71510 0.07300
C 	C 	0.78970 0.13160 0.84320 0.08600
H 	H 	0.83190 0.14740 0.93170 -0.02000
C 	C 	0.75480 0.98660 0.43490 0.04900
C 	C 	0.80880 0.99370 0.31940 -0.12300
H 	H 	0.83910 0.04010 0.32470 0.05900
C 	C 	0.81900 0.93370 0.19610 0.07400
H 	H 	0.85730 0.94080 0.12070 -0.01400
C 	C 	0.72340 0.85720 0.29740 0.05900
H 	H 	0.69480 0.80960 0.29200 -0.01200
C 	C 	0.70970 0.91430 0.42230 -0.13400
H 	H 	0.67180 0.90680 0.49870 0.07600
C 	C 	0.61250 0.20620 0.24940 0.07600
H 	H 	0.63720 0.15860 0.22340 -0.02200
C 	C 	0.56300 0.20410 0.38310 -0.14600
H 	H 	0.55520 0.15590 0.44490 0.07000
C 	C 	0.52540 0.27370 0.42400 0.05800
C 	C 	0.53980 0.33970 0.32900 -0.16100
H 	H 	0.51580 0.38820 0.35150 0.07700
C 	C 	0.59030 0.33750 0.19630 0.09900
H 	H 	0.59850 0.38520 0.13290 -0.02900
C 	C 	0.83540 0.22230 0.33390 0.08400
H 	H 	0.79700 0.18570 0.35340 -0.02000
C 	C 	0.90380 0.21960 0.45710 -0.15000
H 	H 	0.91060 0.18230 0.55570 0.07700
C 	C 	0.96230 0.27270 0.43400 0.05300
C 	C 	0.94700 0.32710 0.28170 -0.14200
H 	H 	0.98440 0.36440 0.25970 0.07400
C 	C 	0.87780 0.32530 0.16720 0.06900
H 	H 	0.86920 0.36200 0.06730 -0.01200
