data_crystal

_cell_length_a 9.78930
_cell_length_b 10.36410
_cell_length_c 10.66490
_cell_angle_alpha 111.80100
_cell_angle_beta  100.49800
_cell_angle_gamma 109.25700

_symmetry_space_group_name_	'P 1'
_symmetry_space_group_name_H-M	'P 1'

loop_
_symmetry_equiv_pos_as_xyz
  x,y,z

loop_
_atom_site_label
_atom_site_type_symbol
_atom_site_fract_x
_atom_site_fract_y
_atom_site_fract_z
_atom_site_charge
Zn	Zn	0.59102 0.46809 0.79701 1.21600
O 	O 	0.55340 0.70600 0.72000 -0.35800
O 	O 	0.54910 0.64470 0.89900 -0.47000
O 	O 	0.32460 0.34600 0.56060 -0.37200
O 	O 	0.40590 0.26850 0.71400 -0.46000
O 	O 	0.69190 0.45960 0.65300 -0.48300
O 	O 	0.90880 0.64700 0.82850 -0.31800
N 	N 	0.70090 0.44430 0.96490 -0.19500
H 	H 	0.62970 0.39850 0.99100 0.10100
C 	C 	0.54250 0.72970 0.83840 0.34600
C 	C 	0.51990 0.86950 0.92310 -0.06800
C 	C 	0.47780 0.94890 0.85460 -0.02100
H 	H 	0.46320 0.91470 0.75720 0.04700
C 	C 	0.54250 0.92210 0.07000 -0.03100
H 	H 	0.57110 0.87030 0.11680 0.05400
C 	C 	0.30340 0.25600 0.61210 0.33700
C 	C 	0.14610 0.12130 0.55290 -0.06900
C 	C 	0.01880 0.12720 0.47900 -0.02600
H 	H 	0.03110 0.21260 0.46400 0.05600
C 	C 	0.12690 0.99300 0.57310 -0.02200
H 	H 	0.21210 0.98730 0.62180 0.04800
C 	C 	0.83760 0.54840 0.70290 0.32700
C 	C 	0.92090 0.52250 0.59650 -0.06700
C 	C 	0.84120 0.41760 0.45160 -0.02400
H 	H 	0.73450 0.36230 0.41870 0.05200
C 	C 	0.08060 0.60480 0.64380 -0.02800
H 	H 	0.13500 0.67550 0.74050 0.04900
C 	C 	0.77480 0.34150 0.91740 -0.40700
H 	H 	0.70190 0.24780 0.83320 0.13600
H 	H 	0.80920 0.31800 0.99290 0.16500
H 	H 	0.86160 0.39170 0.89520 0.14200
C 	C 	0.80950 0.59050 0.09440 -0.41500
H 	H 	0.75820 0.65510 0.12340 0.14700
H 	H 	0.89610 0.64240 0.07300 0.15300
H 	H 	0.84480 0.56890 0.17110 0.15900
Zn	Zn	0.40898 0.53191 0.20299 1.21700
O 	O 	0.44660 0.29400 0.28000 -0.35700
O 	O 	0.45090 0.35530 0.10100 -0.46900
O 	O 	0.67540 0.65400 0.43940 -0.37100
O 	O 	0.59410 0.73150 0.28600 -0.45900
O 	O 	0.30810 0.54040 0.34700 -0.48300
O 	O 	0.09120 0.35300 0.17150 -0.31800
N 	N 	0.29910 0.55570 0.03510 -0.19500
H 	H 	0.37030 0.60150 0.00900 0.10100
C 	C 	0.45750 0.27030 0.16160 0.34600
C 	C 	0.48010 0.13050 0.07690 -0.06800
C 	C 	0.52220 0.05110 0.14540 -0.02100
H 	H 	0.53680 0.08530 0.24280 0.04700
C 	C 	0.45750 0.07790 0.93000 -0.03100
H 	H 	0.42890 0.12970 0.88320 0.05400
C 	C 	0.69660 0.74400 0.38790 0.33700
C 	C 	0.85390 0.87870 0.44710 -0.06900
C 	C 	0.98120 0.87280 0.52100 -0.02600
H 	H 	0.96890 0.78740 0.53600 0.05600
C 	C 	0.87310 0.00700 0.42690 -0.02200
H 	H 	0.78790 0.01270 0.37820 0.04800
C 	C 	0.16240 0.45160 0.29710 0.32700
C 	C 	0.07910 0.47750 0.40350 -0.06700
C 	C 	0.15880 0.58240 0.54840 -0.02400
H 	H 	0.26550 0.63770 0.58130 0.05200
C 	C 	0.91940 0.39520 0.35620 -0.02800
H 	H 	0.86500 0.32450 0.25950 0.04900
C 	C 	0.22520 0.65850 0.08260 -0.40700
H 	H 	0.29810 0.75220 0.16680 0.13600
H 	H 	0.19080 0.68200 0.00710 0.16500
H 	H 	0.13840 0.60830 0.10480 0.14200
C 	C 	0.19050 0.40950 0.90560 -0.41500
H 	H 	0.24180 0.34490 0.87660 0.14700
H 	H 	0.10390 0.35760 0.92700 0.15300
H 	H 	0.15520 0.43110 0.82890 0.15900
Na	Na	0.50000 0.50000 0.50000 0.59300
