data_crystal

_cell_length_a 33.18200
_cell_length_b 10.29600
_cell_length_c 27.81400
_cell_angle_alpha 90.00000
_cell_angle_beta  107.23800
_cell_angle_gamma 90.00000

_symmetry_space_group_name_	'P 1'
_symmetry_space_group_name_H-M	'P 1'

loop_
_symmetry_equiv_pos_as_xyz
  x,y,z

loop_
_atom_site_label
_atom_site_type_symbol
_atom_site_fract_x
_atom_site_fract_y
_atom_site_fract_z
_atom_site_charge
Tb	Tb	0.55538 0.10622 0.00947 1.91200
O 	O 	0.12006 0.64930 0.07696 -0.43200
O 	O 	0.12437 0.49150 0.02684 -0.43100
O 	O 	0.44338 0.95090 0.42876 -0.49600
O 	O 	0.49648 0.80750 0.44841 -0.51000
O 	O 	0.47439 0.07560 0.03539 -0.56800
O 	O 	0.52464 0.22030 0.06367 -0.48100
C 	C 	0.14046 0.56170 0.06430 0.34800
C 	C 	0.18552 0.54200 0.09373 -0.12800
C 	C 	0.20706 0.64410 0.12294 0.04200
H 	H 	0.19290 0.72050 0.12540 0.01100
C 	C 	0.24977 0.63190 0.14844 -0.12500
H 	H 	0.26420 0.70030 0.16800 0.06500
C 	C 	0.27096 0.51770 0.14472 0.05000
C 	C 	0.24943 0.41560 0.11551 -0.12600
H 	H 	0.26360 0.33910 0.11300 0.06300
C 	C 	0.20671 0.42770 0.09001 0.04500
H 	H 	0.19230 0.35940 0.07050 0.01000
C 	C 	0.31884 0.51150 0.16921 0.02100
C 	C 	0.33748 0.57550 0.21432 -0.09000
H 	H 	0.32060 0.62210 0.22960 0.05400
C 	C 	0.38087 0.57100 0.23700 0.00900
C 	C 	0.40547 0.50190 0.21288 -0.08200
H 	H 	0.43460 0.49890 0.22740 0.05400
C 	C 	0.38753 0.43720 0.16743 0.00700
C 	C 	0.34408 0.44270 0.14625 -0.08900
H 	H 	0.33160 0.39950 0.11610 0.05300
C 	C 	0.40082 0.63900 0.28543 0.08100
C 	C 	0.38274 0.74900 0.29880 -0.16600
H 	H 	0.35710 0.77840 0.27770 0.08200
C 	C 	0.40185 0.81610 0.34250 0.09400
H 	H 	0.38900 0.88980 0.35060 0.00600
C 	C 	0.44003 0.77430 0.37443 -0.20800
C 	C 	0.45839 0.66580 0.36154 0.09300
H 	H 	0.48420 0.63720 0.38240 -0.00400
C 	C 	0.43895 0.59840 0.31789 -0.17100
H 	H 	0.45180 0.52420 0.31020 0.08300
C 	C 	0.46159 0.85040 0.42111 0.47400
C 	C 	0.41435 0.36740 0.14175 0.09000
C 	C 	0.45439 0.41230 0.14380 -0.17400
H 	H 	0.46510 0.48600 0.16260 0.08500
C 	C 	0.47840 0.34880 0.11831 0.11200
H 	H 	0.50510 0.38020 0.12010 -0.00700
C 	C 	0.46332 0.23890 0.09018 -0.22400
C 	C 	0.42385 0.19330 0.08810 0.11800
H 	H 	0.41330 0.11960 0.06920 -0.03100
C 	C 	0.39964 0.25600 0.11390 -0.18200
H 	H 	0.37320 0.22310 0.11260 0.08500
C 	C 	0.48928 0.17420 0.06131 0.47500
O 	O 	0.57482 0.32950 0.00366 -0.48700
S 	S 	0.57011 0.44580 0.03530 0.20700
C 	C 	0.60440 0.57350 0.03280 -1.11300
H 	H 	0.63310 0.54520 0.04670 0.29000
H 	H 	0.59910 0.64580 0.05190 0.33700
H 	H 	0.59970 0.59940 0.99840 0.25500
S 	S 	0.60840 0.41870 0.03290 0.40600
C 	C 	0.61340 0.45100 0.09650 -0.74800
H 	H 	0.61740 0.37090 0.11500 0.25700
H 	H 	0.58820 0.49300 0.09900 0.24400
H 	H 	0.63720 0.50670 0.11020 0.23300
C 	C 	0.60090 0.56910 0.00220 0.03000
H 	H 	0.59850 0.55680 0.96730 -0.07700
H 	H 	0.62450 0.62460 0.01740 0.10700
H 	H 	0.57550 0.60850 0.00520 0.12800
H 	H 	0.53180 0.42670 0.02070 0.05600
H 	H 	0.52710 0.57550 0.02970 0.07200
H 	H 	0.52710 0.52560 0.97640 0.07900
C 	C 	0.51870 0.50600 0.00580 -0.18600
Tb	Tb	0.05538 0.60622 0.00947 1.91400
O 	O 	0.62006 0.14930 0.07696 -0.43000
O 	O 	0.62437 0.99150 0.02684 -0.42800
O 	O 	0.94338 0.45090 0.42876 -0.49500
O 	O 	0.99648 0.30750 0.44841 -0.50900
O 	O 	0.97439 0.57560 0.03539 -0.56700
O 	O 	0.02464 0.72030 0.06367 -0.48100
C 	C 	0.64046 0.06170 0.06430 0.34800
C 	C 	0.68552 0.04200 0.09373 -0.12700
C 	C 	0.70706 0.14410 0.12294 0.04300
H 	H 	0.69290 0.22050 0.12540 0.01200
C 	C 	0.74977 0.13190 0.14844 -0.12300
H 	H 	0.76420 0.20030 0.16800 0.06600
C 	C 	0.77096 0.01770 0.14472 0.04900
C 	C 	0.74943 0.91560 0.11551 -0.12400
H 	H 	0.76360 0.83910 0.11300 0.06400
C 	C 	0.70671 0.92770 0.09001 0.04600
H 	H 	0.69230 0.85940 0.07050 0.01000
C 	C 	0.81884 0.01150 0.16921 0.02100
C 	C 	0.83748 0.07550 0.21432 -0.09100
H 	H 	0.82060 0.12210 0.22960 0.05500
C 	C 	0.88087 0.07100 0.23700 0.01100
C 	C 	0.90547 0.00190 0.21288 -0.08600
H 	H 	0.93460 0.99890 0.22740 0.05600
C 	C 	0.88753 0.93720 0.16743 0.00900
C 	C 	0.84408 0.94270 0.14625 -0.08900
H 	H 	0.83160 0.89950 0.11610 0.05300
C 	C 	0.90082 0.13900 0.28543 0.07900
C 	C 	0.88274 0.24900 0.29880 -0.16500
H 	H 	0.85710 0.27840 0.27770 0.08200
C 	C 	0.90185 0.31610 0.34250 0.09400
H 	H 	0.88900 0.38980 0.35060 0.00600
C 	C 	0.94003 0.27430 0.37443 -0.20700
C 	C 	0.95839 0.16580 0.36154 0.09200
H 	H 	0.98420 0.13720 0.38240 -0.00400
C 	C 	0.93895 0.09840 0.31789 -0.17000
H 	H 	0.95180 0.02420 0.31020 0.08200
C 	C 	0.96159 0.35040 0.42111 0.47400
C 	C 	0.91435 0.86740 0.14175 0.08900
C 	C 	0.95439 0.91230 0.14380 -0.17400
H 	H 	0.96510 0.98600 0.16260 0.08500
C 	C 	0.97840 0.84880 0.11831 0.11100
H 	H 	0.00510 0.88020 0.12010 -0.00700
C 	C 	0.96332 0.73890 0.09018 -0.22400
C 	C 	0.92385 0.69330 0.08810 0.11700
H 	H 	0.91330 0.61960 0.06920 -0.03100
C 	C 	0.89964 0.75600 0.11390 -0.18100
H 	H 	0.87320 0.72310 0.11260 0.08500
C 	C 	0.98928 0.67420 0.06131 0.47600
O 	O 	0.07482 0.82950 0.00366 -0.48700
S 	S 	0.07011 0.94580 0.03530 0.20800
C 	C 	0.10440 0.07350 0.03280 -1.12000
H 	H 	0.13310 0.04520 0.04670 0.29100
H 	H 	0.09910 0.14580 0.05190 0.33800
H 	H 	0.09970 0.09940 0.99840 0.25600
S 	S 	0.10840 0.91870 0.03290 0.40700
C 	C 	0.11340 0.95100 0.09650 -0.74600
H 	H 	0.11740 0.87090 0.11500 0.25700
H 	H 	0.08820 0.99300 0.09900 0.24300
H 	H 	0.13720 0.00670 0.11020 0.23100
C 	C 	0.10090 0.06910 0.00220 0.03200
H 	H 	0.09850 0.05680 0.96730 -0.07700
H 	H 	0.12450 0.12460 0.01740 0.10600
H 	H 	0.07550 0.10850 0.00520 0.12800
H 	H 	0.03180 0.92670 0.02070 0.05700
H 	H 	0.02710 0.07550 0.02970 0.07200
H 	H 	0.02710 0.02560 0.97640 0.08000
C 	C 	0.01870 0.00600 0.00580 -0.18800
Tb	Tb	0.44462 0.10622 0.49053 1.91300
O 	O 	0.87994 0.64930 0.42304 -0.43100
O 	O 	0.87563 0.49150 0.47316 -0.43000
O 	O 	0.55662 0.95090 0.07124 -0.49500
O 	O 	0.50352 0.80750 0.05159 -0.50900
O 	O 	0.52561 0.07560 0.46461 -0.56700
O 	O 	0.47536 0.22030 0.43633 -0.48000
C 	C 	0.85954 0.56170 0.43570 0.34900
C 	C 	0.81448 0.54200 0.40627 -0.12700
C 	C 	0.79294 0.64410 0.37706 0.04300
H 	H 	0.80710 0.72050 0.37460 0.01200
C 	C 	0.75023 0.63190 0.35156 -0.12400
H 	H 	0.73580 0.70030 0.33200 0.06600
C 	C 	0.72904 0.51770 0.35528 0.05100
C 	C 	0.75057 0.41560 0.38449 -0.12600
H 	H 	0.73640 0.33910 0.38700 0.06400
C 	C 	0.79329 0.42770 0.40999 0.04500
H 	H 	0.80770 0.35940 0.42950 0.01000
C 	C 	0.68116 0.51150 0.33079 0.02100
C 	C 	0.66252 0.57550 0.28568 -0.09000
H 	H 	0.67940 0.62210 0.27040 0.05400
C 	C 	0.61913 0.57100 0.26300 0.00900
C 	C 	0.59453 0.50190 0.28712 -0.08200
H 	H 	0.56540 0.49890 0.27260 0.05400
C 	C 	0.61247 0.43720 0.33257 0.00700
C 	C 	0.65592 0.44270 0.35375 -0.08900
H 	H 	0.66840 0.39950 0.38390 0.05300
C 	C 	0.59918 0.63900 0.21457 0.08100
C 	C 	0.61726 0.74900 0.20120 -0.16600
H 	H 	0.64290 0.77840 0.22230 0.08200
C 	C 	0.59815 0.81610 0.15750 0.09400
H 	H 	0.61100 0.88980 0.14940 0.00600
C 	C 	0.55997 0.77430 0.12557 -0.20700
C 	C 	0.54161 0.66580 0.13846 0.09300
H 	H 	0.51580 0.63720 0.11760 -0.00400
C 	C 	0.56105 0.59840 0.18211 -0.17100
H 	H 	0.54820 0.52420 0.18980 0.08300
C 	C 	0.53841 0.85040 0.07889 0.47400
C 	C 	0.58565 0.36740 0.35825 0.09000
C 	C 	0.54561 0.41230 0.35620 -0.17400
H 	H 	0.53490 0.48600 0.33740 0.08500
C 	C 	0.52160 0.34880 0.38169 0.11200
H 	H 	0.49490 0.38020 0.37990 -0.00700
C 	C 	0.53668 0.23890 0.40982 -0.22400
C 	C 	0.57615 0.19330 0.41190 0.11800
H 	H 	0.58670 0.11960 0.43080 -0.03100
C 	C 	0.60036 0.25600 0.38610 -0.18200
H 	H 	0.62680 0.22310 0.38740 0.08500
C 	C 	0.51072 0.17420 0.43869 0.47500
O 	O 	0.42518 0.32950 0.49634 -0.48700
S 	S 	0.42989 0.44580 0.46470 0.20700
C 	C 	0.39560 0.57350 0.46720 -1.11300
H 	H 	0.36690 0.54520 0.45330 0.28900
H 	H 	0.40090 0.64580 0.44810 0.33700
H 	H 	0.40030 0.59940 0.50160 0.25500
S 	S 	0.39160 0.41870 0.46710 0.40600
C 	C 	0.38660 0.45100 0.40350 -0.74800
H 	H 	0.38260 0.37090 0.38500 0.25700
H 	H 	0.41180 0.49300 0.40100 0.24400
H 	H 	0.36280 0.50670 0.38980 0.23200
C 	C 	0.39910 0.56910 0.49780 0.03000
H 	H 	0.40150 0.55680 0.53270 -0.07700
H 	H 	0.37550 0.62460 0.48260 0.10600
H 	H 	0.42450 0.60850 0.49480 0.12800
H 	H 	0.46820 0.42670 0.47930 0.05700
H 	H 	0.47290 0.57550 0.47030 0.07200
H 	H 	0.47290 0.52560 0.52360 0.07900
C 	C 	0.48130 0.50600 0.49420 -0.18600
Tb	Tb	0.94462 0.60622 0.49053 1.91300
O 	O 	0.37994 0.14930 0.42304 -0.43100
O 	O 	0.37563 0.99150 0.47316 -0.42900
O 	O 	0.05662 0.45090 0.07124 -0.49500
O 	O 	0.00352 0.30750 0.05159 -0.51000
O 	O 	0.02561 0.57560 0.46461 -0.56700
O 	O 	0.97536 0.72030 0.43633 -0.48000
C 	C 	0.35954 0.06170 0.43570 0.34900
C 	C 	0.31448 0.04200 0.40627 -0.12700
C 	C 	0.29294 0.14410 0.37706 0.04300
H 	H 	0.30710 0.22050 0.37460 0.01200
C 	C 	0.25023 0.13190 0.35156 -0.12400
H 	H 	0.23580 0.20030 0.33200 0.06600
C 	C 	0.22904 0.01770 0.35528 0.05000
C 	C 	0.25057 0.91560 0.38449 -0.12400
H 	H 	0.23640 0.83910 0.38700 0.06400
C 	C 	0.29329 0.92770 0.40999 0.04500
H 	H 	0.30770 0.85940 0.42950 0.01000
C 	C 	0.18116 0.01150 0.33079 0.02100
C 	C 	0.16252 0.07550 0.28568 -0.09100
H 	H 	0.17940 0.12210 0.27040 0.05500
C 	C 	0.11913 0.07100 0.26300 0.01100
C 	C 	0.09453 0.00190 0.28712 -0.08600
H 	H 	0.06540 0.99890 0.27260 0.05600
C 	C 	0.11247 0.93720 0.33257 0.00900
C 	C 	0.15592 0.94270 0.35375 -0.08900
H 	H 	0.16840 0.89950 0.38390 0.05300
C 	C 	0.09918 0.13900 0.21457 0.08000
C 	C 	0.11726 0.24900 0.20120 -0.16500
H 	H 	0.14290 0.27840 0.22230 0.08200
C 	C 	0.09815 0.31610 0.15750 0.09400
H 	H 	0.11100 0.38980 0.14940 0.00600
C 	C 	0.05997 0.27430 0.12557 -0.20700
C 	C 	0.04161 0.16580 0.13846 0.09200
H 	H 	0.01580 0.13720 0.11760 -0.00500
C 	C 	0.06105 0.09840 0.18211 -0.17000
H 	H 	0.04820 0.02420 0.18980 0.08200
C 	C 	0.03841 0.35040 0.07889 0.47400
C 	C 	0.08565 0.86740 0.35825 0.08900
C 	C 	0.04561 0.91230 0.35620 -0.17300
H 	H 	0.03490 0.98600 0.33740 0.08500
C 	C 	0.02160 0.84880 0.38169 0.11100
H 	H 	0.99490 0.88020 0.37990 -0.00700
C 	C 	0.03668 0.73890 0.40982 -0.22400
C 	C 	0.07615 0.69330 0.41190 0.11700
H 	H 	0.08670 0.61960 0.43080 -0.03100
C 	C 	0.10036 0.75600 0.38610 -0.18100
H 	H 	0.12680 0.72310 0.38740 0.08500
C 	C 	0.01072 0.67420 0.43869 0.47500
O 	O 	0.92518 0.82950 0.49634 -0.48700
S 	S 	0.92989 0.94580 0.46470 0.20700
C 	C 	0.89560 0.07350 0.46720 -1.11300
H 	H 	0.86690 0.04520 0.45330 0.28900
H 	H 	0.90090 0.14580 0.44810 0.33700
H 	H 	0.90030 0.09940 0.50160 0.25500
S 	S 	0.89160 0.91870 0.46710 0.40500
C 	C 	0.88660 0.95100 0.40350 -0.74700
H 	H 	0.88260 0.87090 0.38500 0.25700
H 	H 	0.91180 0.99300 0.40100 0.24300
H 	H 	0.86280 0.00670 0.38980 0.23200
C 	C 	0.89910 0.06910 0.49780 0.03000
H 	H 	0.90150 0.05680 0.53270 -0.07700
H 	H 	0.87550 0.12460 0.48260 0.10600
H 	H 	0.92450 0.10850 0.49480 0.12800
H 	H 	0.96820 0.92670 0.47930 0.05700
H 	H 	0.97290 0.07550 0.47030 0.07200
H 	H 	0.97290 0.02560 0.52360 0.07900
C 	C 	0.98130 0.00600 0.49420 -0.18600
Tb	Tb	0.44462 0.89378 0.99053 1.91300
O 	O 	0.87994 0.35070 0.92304 -0.43100
O 	O 	0.87563 0.50850 0.97316 -0.43000
O 	O 	0.55662 0.04910 0.57124 -0.49500
O 	O 	0.50352 0.19250 0.55159 -0.50900
O 	O 	0.52561 0.92440 0.96461 -0.56700
O 	O 	0.47536 0.77970 0.93633 -0.48000
C 	C 	0.85954 0.43830 0.93570 0.34900
C 	C 	0.81448 0.45800 0.90627 -0.12700
C 	C 	0.79294 0.35590 0.87706 0.04300
H 	H 	0.80710 0.27950 0.87460 0.01200
C 	C 	0.75023 0.36810 0.85156 -0.12400
H 	H 	0.73580 0.29970 0.83200 0.06600
C 	C 	0.72904 0.48230 0.85528 0.05100
C 	C 	0.75057 0.58440 0.88449 -0.12500
H 	H 	0.73640 0.66090 0.88700 0.06400
C 	C 	0.79329 0.57230 0.90999 0.04500
H 	H 	0.80770 0.64060 0.92950 0.01000
C 	C 	0.68116 0.48850 0.83079 0.02100
C 	C 	0.66252 0.42450 0.78568 -0.09000
H 	H 	0.67940 0.37790 0.77040 0.05400
C 	C 	0.61913 0.42900 0.76300 0.00900
C 	C 	0.59453 0.49810 0.78712 -0.08200
H 	H 	0.56540 0.50110 0.77260 0.05400
C 	C 	0.61247 0.56280 0.83257 0.00700
C 	C 	0.65592 0.55730 0.85375 -0.08900
H 	H 	0.66840 0.60050 0.88390 0.05300
C 	C 	0.59918 0.36100 0.71457 0.08100
C 	C 	0.61726 0.25100 0.70120 -0.16600
H 	H 	0.64290 0.22160 0.72230 0.08200
C 	C 	0.59815 0.18390 0.65750 0.09400
H 	H 	0.61100 0.11020 0.64940 0.00600
C 	C 	0.55997 0.22570 0.62557 -0.20800
C 	C 	0.54161 0.33420 0.63846 0.09300
H 	H 	0.51580 0.36280 0.61760 -0.00400
C 	C 	0.56105 0.40160 0.68211 -0.17100
H 	H 	0.54820 0.47580 0.68980 0.08300
C 	C 	0.53841 0.14960 0.57889 0.47400
C 	C 	0.58565 0.63260 0.85825 0.09000
C 	C 	0.54561 0.58770 0.85620 -0.17400
H 	H 	0.53490 0.51400 0.83740 0.08500
C 	C 	0.52160 0.65120 0.88169 0.11200
H 	H 	0.49490 0.61980 0.87990 -0.00700
C 	C 	0.53668 0.76110 0.90982 -0.22400
C 	C 	0.57615 0.80670 0.91190 0.11800
H 	H 	0.58670 0.88040 0.93080 -0.03100
C 	C 	0.60036 0.74400 0.88610 -0.18200
H 	H 	0.62680 0.77690 0.88740 0.08500
C 	C 	0.51072 0.82580 0.93869 0.47500
O 	O 	0.42518 0.67050 0.99634 -0.48700
S 	S 	0.42989 0.55420 0.96470 0.20700
C 	C 	0.39560 0.42650 0.96720 -1.11300
H 	H 	0.36690 0.45480 0.95330 0.29000
H 	H 	0.40090 0.35420 0.94810 0.33700
H 	H 	0.40030 0.40060 0.00160 0.25500
S 	S 	0.39160 0.58130 0.96710 0.40600
C 	C 	0.38660 0.54900 0.90350 -0.74800
H 	H 	0.38260 0.62910 0.88500 0.25700
H 	H 	0.41180 0.50700 0.90100 0.24400
H 	H 	0.36280 0.49330 0.88980 0.23300
C 	C 	0.39910 0.43090 0.99780 0.03000
H 	H 	0.40150 0.44320 0.03270 -0.07700
H 	H 	0.37550 0.37540 0.98260 0.10700
H 	H 	0.42450 0.39150 0.99480 0.12800
H 	H 	0.46820 0.57330 0.97930 0.05600
H 	H 	0.47290 0.42450 0.97030 0.07200
H 	H 	0.47290 0.47440 0.02360 0.07900
C 	C 	0.48130 0.49400 0.99420 -0.18600
Tb	Tb	0.94462 0.39378 0.99053 1.91400
O 	O 	0.37994 0.85070 0.92304 -0.43000
O 	O 	0.37563 0.00850 0.97316 -0.42800
O 	O 	0.05662 0.54910 0.57124 -0.49500
O 	O 	0.00352 0.69250 0.55159 -0.50900
O 	O 	0.02561 0.42440 0.96461 -0.56700
O 	O 	0.97536 0.27970 0.93633 -0.48100
C 	C 	0.35954 0.93830 0.93570 0.34800
C 	C 	0.31448 0.95800 0.90627 -0.12700
C 	C 	0.29294 0.85590 0.87706 0.04300
H 	H 	0.30710 0.77950 0.87460 0.01200
C 	C 	0.25023 0.86810 0.85156 -0.12300
H 	H 	0.23580 0.79970 0.83200 0.06600
C 	C 	0.22904 0.98230 0.85528 0.04900
C 	C 	0.25057 0.08440 0.88449 -0.12400
H 	H 	0.23640 0.16090 0.88700 0.06400
C 	C 	0.29329 0.07230 0.90999 0.04600
H 	H 	0.30770 0.14060 0.92950 0.01000
C 	C 	0.18116 0.98850 0.83079 0.02100
C 	C 	0.16252 0.92450 0.78568 -0.09100
H 	H 	0.17940 0.87790 0.77040 0.05500
C 	C 	0.11913 0.92900 0.76300 0.01100
C 	C 	0.09453 0.99810 0.78712 -0.08600
H 	H 	0.06540 0.00110 0.77260 0.05600
C 	C 	0.11247 0.06280 0.83257 0.00900
C 	C 	0.15592 0.05730 0.85375 -0.08900
H 	H 	0.16840 0.10050 0.88390 0.05300
C 	C 	0.09918 0.86100 0.71457 0.07900
C 	C 	0.11726 0.75100 0.70120 -0.16500
H 	H 	0.14290 0.72160 0.72230 0.08200
C 	C 	0.09815 0.68390 0.65750 0.09400
H 	H 	0.11100 0.61020 0.64940 0.00600
C 	C 	0.05997 0.72570 0.62557 -0.20700
C 	C 	0.04161 0.83420 0.63846 0.09200
H 	H 	0.01580 0.86280 0.61760 -0.00400
C 	C 	0.06105 0.90160 0.68211 -0.17000
H 	H 	0.04820 0.97580 0.68980 0.08200
C 	C 	0.03841 0.64960 0.57889 0.47400
C 	C 	0.08565 0.13260 0.85825 0.08900
C 	C 	0.04561 0.08770 0.85620 -0.17400
H 	H 	0.03490 0.01400 0.83740 0.08500
C 	C 	0.02160 0.15120 0.88169 0.11100
H 	H 	0.99490 0.11980 0.87990 -0.00700
C 	C 	0.03668 0.26110 0.90982 -0.22400
C 	C 	0.07615 0.30670 0.91190 0.11700
H 	H 	0.08670 0.38040 0.93080 -0.03100
C 	C 	0.10036 0.24400 0.88610 -0.18100
H 	H 	0.12680 0.27690 0.88740 0.08500
C 	C 	0.01072 0.32580 0.93869 0.47600
O 	O 	0.92518 0.17050 0.99634 -0.48700
S 	S 	0.92989 0.05420 0.96470 0.20800
C 	C 	0.89560 0.92650 0.96720 -1.12000
H 	H 	0.86690 0.95480 0.95330 0.29100
H 	H 	0.90090 0.85420 0.94810 0.33800
H 	H 	0.90030 0.90060 0.00160 0.25600
S 	S 	0.89160 0.08130 0.96710 0.40700
C 	C 	0.88660 0.04900 0.90350 -0.74600
H 	H 	0.88260 0.12910 0.88500 0.25700
H 	H 	0.91180 0.00700 0.90100 0.24300
H 	H 	0.86280 0.99330 0.88980 0.23100
C 	C 	0.89910 0.93090 0.99780 0.03200
H 	H 	0.90150 0.94320 0.03270 -0.07700
H 	H 	0.87550 0.87540 0.98260 0.10600
H 	H 	0.92450 0.89150 0.99480 0.12800
H 	H 	0.96820 0.07330 0.97930 0.05700
H 	H 	0.97290 0.92450 0.97030 0.07200
H 	H 	0.97290 0.97440 0.02360 0.08000
C 	C 	0.98130 0.99400 0.99420 -0.18800
Tb	Tb	0.55538 0.89378 0.50947 1.91300
O 	O 	0.12006 0.35070 0.57696 -0.43100
O 	O 	0.12437 0.50850 0.52684 -0.43000
O 	O 	0.44338 0.04910 0.92876 -0.49500
O 	O 	0.49648 0.19250 0.94841 -0.50900
O 	O 	0.47439 0.92440 0.53539 -0.56700
O 	O 	0.52464 0.77970 0.56367 -0.48000
C 	C 	0.14046 0.43830 0.56430 0.34900
C 	C 	0.18552 0.45800 0.59373 -0.12700
C 	C 	0.20706 0.35590 0.62294 0.04300
H 	H 	0.19290 0.27950 0.62540 0.01200
C 	C 	0.24977 0.36810 0.64844 -0.12400
H 	H 	0.26420 0.29970 0.66800 0.06600
C 	C 	0.27096 0.48230 0.64472 0.05100
C 	C 	0.24943 0.58440 0.61551 -0.12600
H 	H 	0.26360 0.66090 0.61300 0.06400
C 	C 	0.20671 0.57230 0.59001 0.04500
H 	H 	0.19230 0.64060 0.57050 0.01000
C 	C 	0.31884 0.48850 0.66921 0.02100
C 	C 	0.33748 0.42450 0.71432 -0.09000
H 	H 	0.32060 0.37790 0.72960 0.05400
C 	C 	0.38087 0.42900 0.73700 0.00900
C 	C 	0.40547 0.49810 0.71288 -0.08200
H 	H 	0.43460 0.50110 0.72740 0.05400
C 	C 	0.38753 0.56280 0.66743 0.00700
C 	C 	0.34408 0.55730 0.64625 -0.08900
H 	H 	0.33160 0.60050 0.61610 0.05300
C 	C 	0.40082 0.36100 0.78543 0.08100
C 	C 	0.38274 0.25100 0.79880 -0.16600
H 	H 	0.35710 0.22160 0.77770 0.08200
C 	C 	0.40185 0.18390 0.84250 0.09400
H 	H 	0.38900 0.11020 0.85060 0.00600
C 	C 	0.44003 0.22570 0.87443 -0.20700
C 	C 	0.45839 0.33420 0.86154 0.09300
H 	H 	0.48420 0.36280 0.88240 -0.00400
C 	C 	0.43895 0.40160 0.81789 -0.17100
H 	H 	0.45180 0.47580 0.81020 0.08300
C 	C 	0.46159 0.14960 0.92111 0.47400
C 	C 	0.41435 0.63260 0.64175 0.09000
C 	C 	0.45439 0.58770 0.64380 -0.17400
H 	H 	0.46510 0.51400 0.66260 0.08500
C 	C 	0.47840 0.65120 0.61831 0.11200
H 	H 	0.50510 0.61980 0.62010 -0.00700
C 	C 	0.46332 0.76110 0.59018 -0.22400
C 	C 	0.42385 0.80670 0.58810 0.11800
H 	H 	0.41330 0.88040 0.56920 -0.03100
C 	C 	0.39964 0.74400 0.61390 -0.18200
H 	H 	0.37320 0.77690 0.61260 0.08500
C 	C 	0.48928 0.82580 0.56131 0.47500
O 	O 	0.57482 0.67050 0.50366 -0.48700
S 	S 	0.57011 0.55420 0.53530 0.20700
C 	C 	0.60440 0.42650 0.53280 -1.11300
H 	H 	0.63310 0.45480 0.54670 0.28900
H 	H 	0.59910 0.35420 0.55190 0.33700
H 	H 	0.59970 0.40060 0.49840 0.25500
S 	S 	0.60840 0.58130 0.53290 0.40600
C 	C 	0.61340 0.54900 0.59650 -0.74800
H 	H 	0.61740 0.62910 0.61500 0.25700
H 	H 	0.58820 0.50700 0.59900 0.24400
H 	H 	0.63720 0.49330 0.61020 0.23200
C 	C 	0.60090 0.43090 0.50220 0.03000
H 	H 	0.59850 0.44320 0.46730 -0.07700
H 	H 	0.62450 0.37540 0.51740 0.10600
H 	H 	0.57550 0.39150 0.50520 0.12800
H 	H 	0.53180 0.57330 0.52070 0.05700
H 	H 	0.52710 0.42450 0.52970 0.07200
H 	H 	0.52710 0.47440 0.47640 0.07900
C 	C 	0.51870 0.49400 0.50580 -0.18600
Tb	Tb	0.05538 0.39378 0.50947 1.91300
O 	O 	0.62006 0.85070 0.57696 -0.43100
O 	O 	0.62437 0.00850 0.52684 -0.42900
O 	O 	0.94338 0.54910 0.92876 -0.49500
O 	O 	0.99648 0.69250 0.94841 -0.51000
O 	O 	0.97439 0.42440 0.53539 -0.56700
O 	O 	0.02464 0.27970 0.56367 -0.48000
C 	C 	0.64046 0.93830 0.56430 0.34900
C 	C 	0.68552 0.95800 0.59373 -0.12700
C 	C 	0.70706 0.85590 0.62294 0.04300
H 	H 	0.69290 0.77950 0.62540 0.01200
C 	C 	0.74977 0.86810 0.64844 -0.12400
H 	H 	0.76420 0.79970 0.66800 0.06600
C 	C 	0.77096 0.98230 0.64472 0.05000
C 	C 	0.74943 0.08440 0.61551 -0.12400
H 	H 	0.76360 0.16090 0.61300 0.06400
C 	C 	0.70671 0.07230 0.59001 0.04500
H 	H 	0.69230 0.14060 0.57050 0.01000
C 	C 	0.81884 0.98850 0.66921 0.02100
C 	C 	0.83748 0.92450 0.71432 -0.09100
H 	H 	0.82060 0.87790 0.72960 0.05500
C 	C 	0.88087 0.92900 0.73700 0.01100
C 	C 	0.90547 0.99810 0.71288 -0.08600
H 	H 	0.93460 0.00110 0.72740 0.05600
C 	C 	0.88753 0.06280 0.66743 0.00900
C 	C 	0.84408 0.05730 0.64625 -0.08900
H 	H 	0.83160 0.10050 0.61610 0.05300
C 	C 	0.90082 0.86100 0.78543 0.08000
C 	C 	0.88274 0.75100 0.79880 -0.16500
H 	H 	0.85710 0.72160 0.77770 0.08200
C 	C 	0.90185 0.68390 0.84250 0.09400
H 	H 	0.88900 0.61020 0.85060 0.00600
C 	C 	0.94003 0.72570 0.87443 -0.20700
C 	C 	0.95839 0.83420 0.86154 0.09200
H 	H 	0.98420 0.86280 0.88240 -0.00500
C 	C 	0.93895 0.90160 0.81789 -0.17000
H 	H 	0.95180 0.97580 0.81020 0.08200
C 	C 	0.96159 0.64960 0.92111 0.47400
C 	C 	0.91435 0.13260 0.64175 0.08900
C 	C 	0.95439 0.08770 0.64380 -0.17300
H 	H 	0.96510 0.01400 0.66260 0.08500
C 	C 	0.97840 0.15120 0.61831 0.11100
H 	H 	0.00510 0.11980 0.62010 -0.00700
C 	C 	0.96332 0.26110 0.59018 -0.22400
C 	C 	0.92385 0.30670 0.58810 0.11700
H 	H 	0.91330 0.38040 0.56920 -0.03100
C 	C 	0.89964 0.24400 0.61390 -0.18100
H 	H 	0.87320 0.27690 0.61260 0.08500
C 	C 	0.98928 0.32580 0.56131 0.47500
O 	O 	0.07482 0.17050 0.50366 -0.48700
S 	S 	0.07011 0.05420 0.53530 0.20700
C 	C 	0.10440 0.92650 0.53280 -1.11300
H 	H 	0.13310 0.95480 0.54670 0.28900
H 	H 	0.09910 0.85420 0.55190 0.33700
H 	H 	0.09970 0.90060 0.49840 0.25500
S 	S 	0.10840 0.08130 0.53290 0.40500
C 	C 	0.11340 0.04900 0.59650 -0.74700
H 	H 	0.11740 0.12910 0.61500 0.25700
H 	H 	0.08820 0.00700 0.59900 0.24300
H 	H 	0.13720 0.99330 0.61020 0.23200
C 	C 	0.10090 0.93090 0.50220 0.03000
H 	H 	0.09850 0.94320 0.46730 -0.07700
H 	H 	0.12450 0.87540 0.51740 0.10600
H 	H 	0.07550 0.89150 0.50520 0.12800
H 	H 	0.03180 0.07330 0.52070 0.05700
H 	H 	0.02710 0.92450 0.52970 0.07200
H 	H 	0.02710 0.97440 0.47640 0.07900
C 	C 	0.01870 0.99400 0.50580 -0.18600
