data_crystal

_cell_length_a 33.22600
_cell_length_b 10.37200
_cell_length_c 27.77600
_cell_angle_alpha 90.00000
_cell_angle_beta  107.06100
_cell_angle_gamma 90.00000

_symmetry_space_group_name_	'P 1'
_symmetry_space_group_name_H-M	'P 1'

loop_
_symmetry_equiv_pos_as_xyz
  x,y,z

loop_
_atom_site_label
_atom_site_type_symbol
_atom_site_fract_x
_atom_site_fract_y
_atom_site_fract_z
_atom_site_charge
Gd	Gd	0.55563 0.10506 0.00931 1.61100
O 	O 	0.12027 0.64620 0.07913 -0.39900
O 	O 	0.12574 0.49740 0.02601 -0.41000
O 	O 	0.44253 0.94550 0.42982 -0.44400
O 	O 	0.49621 0.80490 0.44910 -0.44900
O 	O 	0.47569 0.07500 0.03662 -0.50400
O 	O 	0.52577 0.21820 0.06531 -0.43400
C 	C 	0.14146 0.56410 0.06465 0.33600
C 	C 	0.18707 0.54260 0.09458 -0.12700
C 	C 	0.20816 0.64130 0.12569 0.04000
H 	H 	0.19370 0.71530 0.12980 0.00700
C 	C 	0.25086 0.62950 0.15067 -0.12500
H 	H 	0.26500 0.69560 0.17150 0.06400
C 	C 	0.27248 0.51900 0.14453 0.04900
C 	C 	0.25139 0.42020 0.11341 -0.12900
H 	H 	0.26590 0.34620 0.10930 0.06000
C 	C 	0.20869 0.43200 0.08844 0.04400
H 	H 	0.19460 0.36590 0.06760 -0.00200
C 	C 	0.31926 0.51180 0.16897 0.02100
C 	C 	0.33799 0.57410 0.21456 -0.09400
H 	H 	0.32120 0.62040 0.22990 0.05400
C 	C 	0.38106 0.56870 0.23753 0.01500
C 	C 	0.40587 0.50050 0.21355 -0.08700
H 	H 	0.43480 0.49670 0.22840 0.05700
C 	C 	0.38812 0.43770 0.16770 0.01200
C 	C 	0.34466 0.44360 0.14642 -0.09100
H 	H 	0.33240 0.40060 0.11630 0.04700
C 	C 	0.40090 0.63580 0.28623 0.06700
C 	C 	0.38245 0.74280 0.30030 -0.14900
H 	H 	0.35670 0.77150 0.27950 0.07500
C 	C 	0.40113 0.80880 0.34448 0.07000
H 	H 	0.38760 0.87960 0.35320 0.01200
C 	C 	0.43971 0.77000 0.37563 -0.17900
C 	C 	0.45831 0.66340 0.36242 0.06800
H 	H 	0.48410 0.63510 0.38330 0.00700
C 	C 	0.43912 0.59710 0.31826 -0.15300
H 	H 	0.45230 0.52480 0.31010 0.07600
C 	C 	0.46104 0.84630 0.42220 0.42500
C 	C 	0.41500 0.36690 0.14230 0.07700
C 	C 	0.45499 0.41130 0.14443 -0.16000
H 	H 	0.46560 0.48490 0.16300 0.08200
C 	C 	0.47918 0.34690 0.11920 0.09100
H 	H 	0.50580 0.37780 0.12090 -0.00200
C 	C 	0.46428 0.23730 0.09152 -0.21100
C 	C 	0.42473 0.19280 0.08937 0.07400
H 	H 	0.41430 0.11920 0.07070 -0.02200
C 	C 	0.40032 0.25620 0.11467 -0.17700
H 	H 	0.37380 0.22430 0.11310 0.07700
C 	C 	0.49038 0.17250 0.06282 0.43100
O 	O 	0.57566 0.32820 0.00410 -0.53800
S 	S 	0.57133 0.44530 0.03507 0.52100
C 	C 	0.60250 0.57080 0.02080 -1.85200
H 	H 	0.63170 0.54920 0.03400 0.46000
H 	H 	0.59700 0.64990 0.03570 0.40000
H 	H 	0.59550 0.58110 0.98490 1.01200
S 	S 	0.61240 0.40730 0.03060 0.59300
C 	C 	0.61010 0.44110 0.09260 -1.11400
H 	H 	0.61470 0.36310 0.11210 0.36900
H 	H 	0.58300 0.47580 0.09100 0.31400
H 	H 	0.63160 0.50270 0.10830 0.34800
C 	C 	0.59170 0.55110 0.99750 -0.91200
H 	H 	0.58840 0.53970 0.96230 -0.21300
H 	H 	0.61060 0.62140 0.01020 0.57900
H 	H 	0.56480 0.56970 0.00220 0.44500
C 	C 	0.51880 0.50340 0.00600 -0.18300
H 	H 	0.53060 0.43920 0.03100 -0.01200
H 	H 	0.52750 0.58750 0.01950 0.02600
H 	H 	0.52830 0.48910 0.97700 0.05400
Gd	Gd	0.05563 0.60506 0.00931 1.61200
O 	O 	0.62027 0.14620 0.07913 -0.39900
O 	O 	0.62574 0.99740 0.02601 -0.40800
O 	O 	0.94253 0.44550 0.42982 -0.44400
O 	O 	0.99621 0.30490 0.44910 -0.44900
O 	O 	0.97569 0.57500 0.03662 -0.50400
O 	O 	0.02577 0.71820 0.06531 -0.43500
C 	C 	0.64146 0.06410 0.06465 0.33400
C 	C 	0.68707 0.04260 0.09458 -0.12800
C 	C 	0.70816 0.14130 0.12569 0.04000
H 	H 	0.69370 0.21530 0.12980 0.00700
C 	C 	0.75086 0.12950 0.15067 -0.12500
H 	H 	0.76500 0.19560 0.17150 0.06400
C 	C 	0.77248 0.01900 0.14453 0.04700
C 	C 	0.75139 0.92020 0.11341 -0.12700
H 	H 	0.76590 0.84620 0.10930 0.06000
C 	C 	0.70869 0.93200 0.08844 0.04500
H 	H 	0.69460 0.86590 0.06760 -0.00200
C 	C 	0.81926 0.01180 0.16897 0.02100
C 	C 	0.83799 0.07410 0.21456 -0.09500
H 	H 	0.82120 0.12040 0.22990 0.05400
C 	C 	0.88106 0.06870 0.23753 0.01800
C 	C 	0.90587 0.00050 0.21355 -0.09300
H 	H 	0.93480 0.99670 0.22840 0.06000
C 	C 	0.88812 0.93770 0.16770 0.01500
C 	C 	0.84466 0.94360 0.14642 -0.09100
H 	H 	0.83240 0.90060 0.11630 0.04700
C 	C 	0.90090 0.13580 0.28623 0.06600
C 	C 	0.88245 0.24280 0.30030 -0.14800
H 	H 	0.85670 0.27150 0.27950 0.07400
C 	C 	0.90113 0.30880 0.34448 0.07000
H 	H 	0.88760 0.37960 0.35320 0.01300
C 	C 	0.93971 0.27000 0.37563 -0.17800
C 	C 	0.95831 0.16340 0.36242 0.06800
H 	H 	0.98410 0.13510 0.38330 0.00700
C 	C 	0.93912 0.09710 0.31826 -0.15200
H 	H 	0.95230 0.02480 0.31010 0.07500
C 	C 	0.96104 0.34630 0.42220 0.42400
C 	C 	0.91500 0.86690 0.14230 0.07600
C 	C 	0.95499 0.91130 0.14443 -0.15900
H 	H 	0.96560 0.98490 0.16300 0.08300
C 	C 	0.97918 0.84690 0.11920 0.09200
H 	H 	0.00580 0.87780 0.12090 -0.00200
C 	C 	0.96428 0.73730 0.09152 -0.21100
C 	C 	0.92473 0.69280 0.08937 0.07400
H 	H 	0.91430 0.61920 0.07070 -0.02100
C 	C 	0.90032 0.75620 0.11467 -0.17600
H 	H 	0.87380 0.72430 0.11310 0.07700
C 	C 	0.99038 0.67250 0.06282 0.43200
O 	O 	0.07566 0.82820 0.00410 -0.53700
S 	S 	0.07133 0.94530 0.03507 0.52100
C 	C 	0.10250 0.07080 0.02080 -1.84800
H 	H 	0.13170 0.04920 0.03400 0.45900
H 	H 	0.09700 0.14990 0.03570 0.40000
H 	H 	0.09550 0.08110 0.98490 1.01400
S 	S 	0.11240 0.90730 0.03060 0.59200
C 	C 	0.11010 0.94110 0.09260 -1.11100
H 	H 	0.11470 0.86310 0.11210 0.36800
H 	H 	0.08300 0.97580 0.09100 0.31400
H 	H 	0.13160 0.00270 0.10830 0.34700
C 	C 	0.09170 0.05110 0.99750 -0.91300
H 	H 	0.08840 0.03970 0.96230 -0.21300
H 	H 	0.11060 0.12140 0.01020 0.57700
H 	H 	0.06480 0.06970 0.00220 0.44400
C 	C 	0.01880 0.00340 0.00600 -0.18500
H 	H 	0.03060 0.93920 0.03100 -0.01100
H 	H 	0.02750 0.08750 0.01950 0.02600
H 	H 	0.02830 0.98910 0.97700 0.05500
Gd	Gd	0.44437 0.10506 0.49069 1.61100
O 	O 	0.87973 0.64620 0.42087 -0.40000
O 	O 	0.87426 0.49740 0.47399 -0.41000
O 	O 	0.55747 0.94550 0.07018 -0.44300
O 	O 	0.50379 0.80490 0.05090 -0.44800
O 	O 	0.52431 0.07500 0.46338 -0.50400
O 	O 	0.47423 0.21820 0.43469 -0.43400
C 	C 	0.85854 0.56410 0.43535 0.33600
C 	C 	0.81293 0.54260 0.40542 -0.12700
C 	C 	0.79184 0.64130 0.37431 0.04000
H 	H 	0.80630 0.71530 0.37020 0.00700
C 	C 	0.74914 0.62950 0.34933 -0.12500
H 	H 	0.73500 0.69560 0.32850 0.06400
C 	C 	0.72752 0.51900 0.35547 0.04900
C 	C 	0.74861 0.42020 0.38659 -0.12900
H 	H 	0.73410 0.34620 0.39070 0.06000
C 	C 	0.79131 0.43200 0.41156 0.04400
H 	H 	0.80540 0.36590 0.43240 -0.00200
C 	C 	0.68074 0.51180 0.33103 0.02100
C 	C 	0.66201 0.57410 0.28544 -0.09400
H 	H 	0.67880 0.62040 0.27010 0.05400
C 	C 	0.61894 0.56870 0.26247 0.01500
C 	C 	0.59413 0.50050 0.28645 -0.08700
H 	H 	0.56520 0.49670 0.27160 0.05700
C 	C 	0.61188 0.43770 0.33230 0.01200
C 	C 	0.65534 0.44360 0.35358 -0.09100
H 	H 	0.66760 0.40060 0.38370 0.04700
C 	C 	0.59910 0.63580 0.21377 0.06700
C 	C 	0.61755 0.74280 0.19970 -0.14900
H 	H 	0.64330 0.77150 0.22050 0.07500
C 	C 	0.59887 0.80880 0.15552 0.07000
H 	H 	0.61240 0.87960 0.14680 0.01300
C 	C 	0.56029 0.77000 0.12437 -0.17900
C 	C 	0.54169 0.66340 0.13758 0.06800
H 	H 	0.51590 0.63510 0.11670 0.00700
C 	C 	0.56088 0.59710 0.18174 -0.15300
H 	H 	0.54770 0.52480 0.18990 0.07600
C 	C 	0.53896 0.84630 0.07780 0.42400
C 	C 	0.58500 0.36690 0.35770 0.07600
C 	C 	0.54501 0.41130 0.35557 -0.16000
H 	H 	0.53440 0.48490 0.33700 0.08200
C 	C 	0.52082 0.34690 0.38080 0.09100
H 	H 	0.49420 0.37780 0.37910 -0.00200
C 	C 	0.53572 0.23730 0.40848 -0.21100
C 	C 	0.57527 0.19280 0.41063 0.07400
H 	H 	0.58570 0.11920 0.42930 -0.02200
C 	C 	0.59968 0.25620 0.38533 -0.17700
H 	H 	0.62620 0.22430 0.38690 0.07700
C 	C 	0.50962 0.17250 0.43718 0.43100
O 	O 	0.42434 0.32820 0.49590 -0.53800
S 	S 	0.42867 0.44530 0.46493 0.52100
C 	C 	0.39750 0.57080 0.47920 -1.85100
H 	H 	0.36830 0.54920 0.46600 0.45900
H 	H 	0.40300 0.64990 0.46430 0.40000
H 	H 	0.40450 0.58110 0.51510 1.01200
S 	S 	0.38760 0.40730 0.46940 0.59200
C 	C 	0.38990 0.44110 0.40740 -1.11300
H 	H 	0.38530 0.36310 0.38790 0.36900
H 	H 	0.41700 0.47580 0.40900 0.31400
H 	H 	0.36840 0.50270 0.39170 0.34800
C 	C 	0.40830 0.55110 0.50250 -0.91100
H 	H 	0.41160 0.53970 0.53770 -0.21300
H 	H 	0.38940 0.62140 0.48980 0.57900
H 	H 	0.43520 0.56970 0.49780 0.44400
C 	C 	0.48120 0.50340 0.49400 -0.18300
H 	H 	0.46940 0.43920 0.46900 -0.01200
H 	H 	0.47250 0.58750 0.48050 0.02600
H 	H 	0.47170 0.48910 0.52300 0.05400
Gd	Gd	0.94437 0.60506 0.49069 1.61100
O 	O 	0.37973 0.14620 0.42087 -0.40000
O 	O 	0.37426 0.99740 0.47399 -0.40900
O 	O 	0.05747 0.44550 0.07018 -0.44400
O 	O 	0.00379 0.30490 0.05090 -0.44900
O 	O 	0.02431 0.57500 0.46338 -0.50400
O 	O 	0.97423 0.71820 0.43469 -0.43400
C 	C 	0.35854 0.06410 0.43535 0.33500
C 	C 	0.31293 0.04260 0.40542 -0.12800
C 	C 	0.29184 0.14130 0.37431 0.04000
H 	H 	0.30630 0.21530 0.37020 0.00700
C 	C 	0.24914 0.12950 0.34933 -0.12500
H 	H 	0.23500 0.19560 0.32850 0.06400
C 	C 	0.22752 0.01900 0.35547 0.04800
C 	C 	0.24861 0.92020 0.38659 -0.12700
H 	H 	0.23410 0.84620 0.39070 0.06000
C 	C 	0.29131 0.93200 0.41156 0.04400
H 	H 	0.30540 0.86590 0.43240 -0.00200
C 	C 	0.18074 0.01180 0.33103 0.02100
C 	C 	0.16201 0.07410 0.28544 -0.09500
H 	H 	0.17880 0.12040 0.27010 0.05400
C 	C 	0.11894 0.06870 0.26247 0.01700
C 	C 	0.09413 0.00050 0.28645 -0.09200
H 	H 	0.06520 0.99670 0.27160 0.06000
C 	C 	0.11188 0.93770 0.33230 0.01400
C 	C 	0.15534 0.94360 0.35358 -0.09100
H 	H 	0.16760 0.90060 0.38370 0.04700
C 	C 	0.09910 0.13580 0.21377 0.06600
C 	C 	0.11755 0.24280 0.19970 -0.14800
H 	H 	0.14330 0.27150 0.22050 0.07400
C 	C 	0.09887 0.30880 0.15552 0.07000
H 	H 	0.11240 0.37960 0.14680 0.01300
C 	C 	0.06029 0.27000 0.12437 -0.17900
C 	C 	0.04169 0.16340 0.13758 0.06800
H 	H 	0.01590 0.13510 0.11670 0.00700
C 	C 	0.06088 0.09710 0.18174 -0.15200
H 	H 	0.04770 0.02480 0.18990 0.07500
C 	C 	0.03896 0.34630 0.07780 0.42500
C 	C 	0.08500 0.86690 0.35770 0.07500
C 	C 	0.04501 0.91130 0.35557 -0.15900
H 	H 	0.03440 0.98490 0.33700 0.08200
C 	C 	0.02082 0.84690 0.38080 0.09000
H 	H 	0.99420 0.87780 0.37910 -0.00100
C 	C 	0.03572 0.73730 0.40848 -0.21100
C 	C 	0.07527 0.69280 0.41063 0.07300
H 	H 	0.08570 0.61920 0.42930 -0.02100
C 	C 	0.09968 0.75620 0.38533 -0.17600
H 	H 	0.12620 0.72430 0.38690 0.07600
C 	C 	0.00962 0.67250 0.43718 0.43100
O 	O 	0.92434 0.82820 0.49590 -0.53700
S 	S 	0.92867 0.94530 0.46493 0.52100
C 	C 	0.89750 0.07080 0.47920 -1.85000
H 	H 	0.86830 0.04920 0.46600 0.45900
H 	H 	0.90300 0.14990 0.46430 0.40000
H 	H 	0.90450 0.08110 0.51510 1.01200
S 	S 	0.88760 0.90730 0.46940 0.59200
C 	C 	0.88990 0.94110 0.40740 -1.11200
H 	H 	0.88530 0.86310 0.38790 0.36800
H 	H 	0.91700 0.97580 0.40900 0.31400
H 	H 	0.86840 0.00270 0.39170 0.34800
C 	C 	0.90830 0.05110 0.50250 -0.91100
H 	H 	0.91160 0.03970 0.53770 -0.21200
H 	H 	0.88940 0.12140 0.48980 0.57800
H 	H 	0.93520 0.06970 0.49780 0.44400
C 	C 	0.98120 0.00340 0.49400 -0.18300
H 	H 	0.96940 0.93920 0.46900 -0.01200
H 	H 	0.97250 0.08750 0.48050 0.02600
H 	H 	0.97170 0.98910 0.52300 0.05400
Gd	Gd	0.44437 0.89493 0.99069 1.61000
O 	O 	0.87973 0.35380 0.92087 -0.40000
O 	O 	0.87426 0.50260 0.97399 -0.41000
O 	O 	0.55747 0.05450 0.57018 -0.44400
O 	O 	0.50379 0.19510 0.55090 -0.44900
O 	O 	0.52431 0.92500 0.96338 -0.50400
O 	O 	0.47423 0.78180 0.93469 -0.43400
C 	C 	0.85854 0.43590 0.93535 0.33600
C 	C 	0.81293 0.45740 0.90542 -0.12700
C 	C 	0.79184 0.35870 0.87431 0.04000
H 	H 	0.80630 0.28470 0.87020 0.00700
C 	C 	0.74914 0.37050 0.84933 -0.12500
H 	H 	0.73500 0.30440 0.82850 0.06400
C 	C 	0.72752 0.48100 0.85547 0.04900
C 	C 	0.74861 0.57980 0.88659 -0.12900
H 	H 	0.73410 0.65380 0.89070 0.06000
C 	C 	0.79131 0.56800 0.91156 0.04400
H 	H 	0.80540 0.63410 0.93240 -0.00200
C 	C 	0.68074 0.48820 0.83103 0.02100
C 	C 	0.66201 0.42590 0.78544 -0.09400
H 	H 	0.67880 0.37960 0.77010 0.05400
C 	C 	0.61894 0.43130 0.76247 0.01500
C 	C 	0.59413 0.49950 0.78645 -0.08700
H 	H 	0.56520 0.50330 0.77160 0.05700
C 	C 	0.61188 0.56230 0.83230 0.01200
C 	C 	0.65534 0.55640 0.85358 -0.09100
H 	H 	0.66760 0.59940 0.88370 0.04700
C 	C 	0.59910 0.36420 0.71377 0.06700
C 	C 	0.61755 0.25720 0.69970 -0.14900
H 	H 	0.64330 0.22850 0.72050 0.07500
C 	C 	0.59887 0.19120 0.65552 0.07000
H 	H 	0.61240 0.12040 0.64680 0.01200
C 	C 	0.56029 0.23000 0.62437 -0.17900
C 	C 	0.54169 0.33660 0.63758 0.06800
H 	H 	0.51590 0.36490 0.61670 0.00700
C 	C 	0.56088 0.40290 0.68174 -0.15300
H 	H 	0.54770 0.47520 0.68990 0.07600
C 	C 	0.53896 0.15370 0.57780 0.42500
C 	C 	0.58500 0.63310 0.85770 0.07700
C 	C 	0.54501 0.58870 0.85557 -0.16000
H 	H 	0.53440 0.51510 0.83700 0.08200
C 	C 	0.52082 0.65310 0.88080 0.09100
H 	H 	0.49420 0.62220 0.87910 -0.00200
C 	C 	0.53572 0.76270 0.90848 -0.21100
C 	C 	0.57527 0.80720 0.91063 0.07400
H 	H 	0.58570 0.88080 0.92930 -0.02200
C 	C 	0.59968 0.74380 0.88533 -0.17700
H 	H 	0.62620 0.77570 0.88690 0.07700
C 	C 	0.50962 0.82750 0.93718 0.43100
O 	O 	0.42434 0.67180 0.99590 -0.53800
S 	S 	0.42867 0.55470 0.96493 0.52100
C 	C 	0.39750 0.42920 0.97920 -1.85200
H 	H 	0.36830 0.45080 0.96600 0.46000
H 	H 	0.40300 0.35010 0.96430 0.40000
H 	H 	0.40450 0.41890 0.01510 1.01200
S 	S 	0.38760 0.59270 0.96940 0.59300
C 	C 	0.38990 0.55890 0.90740 -1.11400
H 	H 	0.38530 0.63690 0.88790 0.36900
H 	H 	0.41700 0.52420 0.90900 0.31400
H 	H 	0.36840 0.49730 0.89170 0.34800
C 	C 	0.40830 0.44890 0.00250 -0.91200
H 	H 	0.41160 0.46030 0.03770 -0.21300
H 	H 	0.38940 0.37860 0.98980 0.57900
H 	H 	0.43520 0.43030 0.99780 0.44500
C 	C 	0.48120 0.49660 0.99400 -0.18300
H 	H 	0.46940 0.56080 0.96900 -0.01200
H 	H 	0.47250 0.41250 0.98050 0.02600
H 	H 	0.47170 0.51090 0.02300 0.05400
Gd	Gd	0.94437 0.39494 0.99069 1.61200
O 	O 	0.37973 0.85380 0.92087 -0.39900
O 	O 	0.37426 0.00260 0.97399 -0.40800
O 	O 	0.05747 0.55450 0.57018 -0.44400
O 	O 	0.00379 0.69510 0.55090 -0.44900
O 	O 	0.02431 0.42500 0.96338 -0.50400
O 	O 	0.97423 0.28180 0.93469 -0.43500
C 	C 	0.35854 0.93590 0.93535 0.33400
C 	C 	0.31293 0.95740 0.90542 -0.12800
C 	C 	0.29184 0.85870 0.87431 0.04000
H 	H 	0.30630 0.78470 0.87020 0.00700
C 	C 	0.24914 0.87050 0.84933 -0.12500
H 	H 	0.23500 0.80440 0.82850 0.06400
C 	C 	0.22752 0.98100 0.85547 0.04700
C 	C 	0.24861 0.07980 0.88659 -0.12700
H 	H 	0.23410 0.15380 0.89070 0.06000
C 	C 	0.29131 0.06800 0.91156 0.04500
H 	H 	0.30540 0.13410 0.93240 -0.00200
C 	C 	0.18074 0.98820 0.83103 0.02100
C 	C 	0.16201 0.92590 0.78544 -0.09500
H 	H 	0.17880 0.87960 0.77010 0.05400
C 	C 	0.11894 0.93130 0.76247 0.01800
C 	C 	0.09413 0.99950 0.78645 -0.09300
H 	H 	0.06520 0.00330 0.77160 0.06000
C 	C 	0.11188 0.06230 0.83230 0.01500
C 	C 	0.15534 0.05640 0.85358 -0.09100
H 	H 	0.16760 0.09940 0.88370 0.04700
C 	C 	0.09910 0.86420 0.71377 0.06600
C 	C 	0.11755 0.75720 0.69970 -0.14800
H 	H 	0.14330 0.72850 0.72050 0.07400
C 	C 	0.09887 0.69120 0.65552 0.07000
H 	H 	0.11240 0.62040 0.64680 0.01300
C 	C 	0.06029 0.73000 0.62437 -0.17800
C 	C 	0.04169 0.83660 0.63758 0.06800
H 	H 	0.01590 0.86490 0.61670 0.00700
C 	C 	0.06088 0.90290 0.68174 -0.15200
H 	H 	0.04770 0.97520 0.68990 0.07500
C 	C 	0.03896 0.65370 0.57780 0.42400
C 	C 	0.08500 0.13310 0.85770 0.07600
C 	C 	0.04501 0.08870 0.85557 -0.16000
H 	H 	0.03440 0.01510 0.83700 0.08300
C 	C 	0.02082 0.15310 0.88080 0.09200
H 	H 	0.99420 0.12220 0.87910 -0.00200
C 	C 	0.03572 0.26270 0.90848 -0.21100
C 	C 	0.07527 0.30720 0.91063 0.07400
H 	H 	0.08570 0.38080 0.92930 -0.02100
C 	C 	0.09968 0.24380 0.88533 -0.17600
H 	H 	0.12620 0.27570 0.88690 0.07700
C 	C 	0.00962 0.32750 0.93718 0.43200
O 	O 	0.92434 0.17180 0.99590 -0.53700
S 	S 	0.92867 0.05470 0.96493 0.52100
C 	C 	0.89750 0.92920 0.97920 -1.84800
H 	H 	0.86830 0.95080 0.96600 0.45900
H 	H 	0.90300 0.85010 0.96430 0.40000
H 	H 	0.90450 0.91890 0.01510 1.01400
S 	S 	0.88760 0.09270 0.96940 0.59200
C 	C 	0.88990 0.05890 0.90740 -1.11100
H 	H 	0.88530 0.13690 0.88790 0.36800
H 	H 	0.91700 0.02420 0.90900 0.31400
H 	H 	0.86840 0.99730 0.89170 0.34700
C 	C 	0.90830 0.94890 0.00250 -0.91300
H 	H 	0.91160 0.96030 0.03770 -0.21300
H 	H 	0.88940 0.87860 0.98980 0.57700
H 	H 	0.93520 0.93030 0.99780 0.44400
C 	C 	0.98120 0.99660 0.99400 -0.18500
H 	H 	0.96940 0.06080 0.96900 -0.01100
H 	H 	0.97250 0.91250 0.98050 0.02600
H 	H 	0.97170 0.01090 0.02300 0.05500
Gd	Gd	0.55563 0.89493 0.50931 1.61100
O 	O 	0.12027 0.35380 0.57913 -0.40000
O 	O 	0.12574 0.50260 0.52601 -0.41000
O 	O 	0.44253 0.05450 0.92982 -0.44300
O 	O 	0.49621 0.19510 0.94910 -0.44800
O 	O 	0.47569 0.92500 0.53662 -0.50400
O 	O 	0.52577 0.78180 0.56531 -0.43400
C 	C 	0.14146 0.43590 0.56465 0.33600
C 	C 	0.18707 0.45740 0.59458 -0.12700
C 	C 	0.20816 0.35870 0.62569 0.04000
H 	H 	0.19370 0.28470 0.62980 0.00700
C 	C 	0.25086 0.37050 0.65067 -0.12500
H 	H 	0.26500 0.30440 0.67150 0.06400
C 	C 	0.27248 0.48100 0.64453 0.04900
C 	C 	0.25139 0.57980 0.61341 -0.12900
H 	H 	0.26590 0.65380 0.60930 0.06000
C 	C 	0.20869 0.56800 0.58844 0.04400
H 	H 	0.19460 0.63410 0.56760 -0.00200
C 	C 	0.31926 0.48820 0.66897 0.02100
C 	C 	0.33799 0.42590 0.71456 -0.09400
H 	H 	0.32120 0.37960 0.72990 0.05400
C 	C 	0.38106 0.43130 0.73753 0.01500
C 	C 	0.40587 0.49950 0.71355 -0.08700
H 	H 	0.43480 0.50330 0.72840 0.05700
C 	C 	0.38812 0.56230 0.66770 0.01200
C 	C 	0.34466 0.55640 0.64642 -0.09100
H 	H 	0.33240 0.59940 0.61630 0.04700
C 	C 	0.40090 0.36420 0.78623 0.06700
C 	C 	0.38245 0.25720 0.80030 -0.14900
H 	H 	0.35670 0.22850 0.77950 0.07500
C 	C 	0.40113 0.19120 0.84448 0.07000
H 	H 	0.38760 0.12040 0.85320 0.01300
C 	C 	0.43971 0.23000 0.87563 -0.17900
C 	C 	0.45831 0.33660 0.86242 0.06800
H 	H 	0.48410 0.36490 0.88330 0.00700
C 	C 	0.43912 0.40290 0.81826 -0.15300
H 	H 	0.45230 0.47520 0.81010 0.07600
C 	C 	0.46104 0.15370 0.92220 0.42400
C 	C 	0.41500 0.63310 0.64230 0.07600
C 	C 	0.45499 0.58870 0.64443 -0.16000
H 	H 	0.46560 0.51510 0.66300 0.08200
C 	C 	0.47918 0.65310 0.61920 0.09100
H 	H 	0.50580 0.62220 0.62090 -0.00200
C 	C 	0.46428 0.76270 0.59152 -0.21100
C 	C 	0.42473 0.80720 0.58937 0.07400
H 	H 	0.41430 0.88080 0.57070 -0.02200
C 	C 	0.40032 0.74380 0.61467 -0.17700
H 	H 	0.37380 0.77570 0.61310 0.07700
C 	C 	0.49038 0.82750 0.56282 0.43100
O 	O 	0.57566 0.67180 0.50410 -0.53800
S 	S 	0.57133 0.55470 0.53507 0.52100
C 	C 	0.60250 0.42920 0.52080 -1.85100
H 	H 	0.63170 0.45080 0.53400 0.45900
H 	H 	0.59700 0.35010 0.53570 0.40000
H 	H 	0.59550 0.41890 0.48490 1.01200
S 	S 	0.61240 0.59270 0.53060 0.59200
C 	C 	0.61010 0.55890 0.59260 -1.11300
H 	H 	0.61470 0.63690 0.61210 0.36900
H 	H 	0.58300 0.52420 0.59100 0.31400
H 	H 	0.63160 0.49730 0.60830 0.34800
C 	C 	0.59170 0.44890 0.49750 -0.91100
H 	H 	0.58840 0.46030 0.46230 -0.21300
H 	H 	0.61060 0.37860 0.51020 0.57900
H 	H 	0.56480 0.43030 0.50220 0.44400
C 	C 	0.51880 0.49660 0.50600 -0.18300
H 	H 	0.53060 0.56080 0.53100 -0.01200
H 	H 	0.52750 0.41250 0.51950 0.02600
H 	H 	0.52830 0.51090 0.47700 0.05400
Gd	Gd	0.05563 0.39494 0.50931 1.61100
O 	O 	0.62027 0.85380 0.57913 -0.40000
O 	O 	0.62574 0.00260 0.52601 -0.40900
O 	O 	0.94253 0.55450 0.92982 -0.44400
O 	O 	0.99621 0.69510 0.94910 -0.44900
O 	O 	0.97569 0.42500 0.53662 -0.50400
O 	O 	0.02577 0.28180 0.56531 -0.43400
C 	C 	0.64146 0.93590 0.56465 0.33500
C 	C 	0.68707 0.95740 0.59458 -0.12800
C 	C 	0.70816 0.85870 0.62569 0.04000
H 	H 	0.69370 0.78470 0.62980 0.00700
C 	C 	0.75086 0.87050 0.65067 -0.12500
H 	H 	0.76500 0.80440 0.67150 0.06400
C 	C 	0.77248 0.98100 0.64453 0.04800
C 	C 	0.75139 0.07980 0.61341 -0.12700
H 	H 	0.76590 0.15380 0.60930 0.06000
C 	C 	0.70869 0.06800 0.58844 0.04400
H 	H 	0.69460 0.13410 0.56760 -0.00200
C 	C 	0.81926 0.98820 0.66897 0.02100
C 	C 	0.83799 0.92590 0.71456 -0.09500
H 	H 	0.82120 0.87960 0.72990 0.05400
C 	C 	0.88106 0.93130 0.73753 0.01700
C 	C 	0.90587 0.99950 0.71355 -0.09200
H 	H 	0.93480 0.00330 0.72840 0.05900
C 	C 	0.88812 0.06230 0.66770 0.01400
C 	C 	0.84466 0.05640 0.64642 -0.09100
H 	H 	0.83240 0.09940 0.61630 0.04700
C 	C 	0.90090 0.86420 0.78623 0.06600
C 	C 	0.88245 0.75720 0.80030 -0.14800
H 	H 	0.85670 0.72850 0.77950 0.07400
C 	C 	0.90113 0.69120 0.84448 0.07000
H 	H 	0.88760 0.62040 0.85320 0.01300
C 	C 	0.93971 0.73000 0.87563 -0.17900
C 	C 	0.95831 0.83660 0.86242 0.06800
H 	H 	0.98410 0.86490 0.88330 0.00700
C 	C 	0.93912 0.90290 0.81826 -0.15200
H 	H 	0.95230 0.97520 0.81010 0.07500
C 	C 	0.96104 0.65370 0.92220 0.42500
C 	C 	0.91500 0.13310 0.64230 0.07500
C 	C 	0.95499 0.08870 0.64443 -0.15900
H 	H 	0.96560 0.01510 0.66300 0.08200
C 	C 	0.97918 0.15310 0.61920 0.09000
H 	H 	0.00580 0.12220 0.62090 -0.00100
C 	C 	0.96428 0.26270 0.59152 -0.21100
C 	C 	0.92473 0.30720 0.58937 0.07300
H 	H 	0.91430 0.38080 0.57070 -0.02100
C 	C 	0.90032 0.24380 0.61467 -0.17600
H 	H 	0.87380 0.27570 0.61310 0.07600
C 	C 	0.99038 0.32750 0.56282 0.43100
O 	O 	0.07566 0.17180 0.50410 -0.53700
S 	S 	0.07133 0.05470 0.53507 0.52100
C 	C 	0.10250 0.92920 0.52080 -1.85000
H 	H 	0.13170 0.95080 0.53400 0.45900
H 	H 	0.09700 0.85010 0.53570 0.40000
H 	H 	0.09550 0.91890 0.48490 1.01200
S 	S 	0.11240 0.09270 0.53060 0.59200
C 	C 	0.11010 0.05890 0.59260 -1.11200
H 	H 	0.11470 0.13690 0.61210 0.36800
H 	H 	0.08300 0.02420 0.59100 0.31400
H 	H 	0.13160 0.99730 0.60830 0.34800
C 	C 	0.09170 0.94890 0.49750 -0.91100
H 	H 	0.08840 0.96030 0.46230 -0.21200
H 	H 	0.11060 0.87860 0.51020 0.57800
H 	H 	0.06480 0.93030 0.50220 0.44400
C 	C 	0.01880 0.99660 0.50600 -0.18300
H 	H 	0.03060 0.06080 0.53100 -0.01200
H 	H 	0.02750 0.91250 0.51950 0.02600
H 	H 	0.02830 0.01090 0.47700 0.05400
