data_crystal

_cell_length_a 33.23200
_cell_length_b 10.34600
_cell_length_c 27.85200
_cell_angle_alpha 90.00000
_cell_angle_beta  106.87200
_cell_angle_gamma 90.00000

_symmetry_space_group_name_	'P 1'
_symmetry_space_group_name_H-M	'P 1'

loop_
_symmetry_equiv_pos_as_xyz
  x,y,z

loop_
_atom_site_label
_atom_site_type_symbol
_atom_site_fract_x
_atom_site_fract_y
_atom_site_fract_z
_atom_site_charge
Eu	Eu	0.55547 0.10532 0.00907 1.97300
O 	O 	0.12080 0.64500 0.07810 -0.42800
O 	O 	0.12590 0.49280 0.02650 -0.43600
O 	O 	0.44300 0.94530 0.43020 -0.50200
O 	O 	0.49635 0.80420 0.44840 -0.51900
O 	O 	0.47590 0.07710 0.03630 -0.57500
O 	O 	0.52580 0.22230 0.06520 -0.49000
C 	C 	0.14110 0.56170 0.06350 0.35100
C 	C 	0.18621 0.53890 0.09410 -0.11900
C 	C 	0.20720 0.63840 0.12490 0.03700
H 	H 	0.19280 0.71320 0.12840 0.01800
C 	C 	0.24970 0.62630 0.15030 -0.12200
H 	H 	0.26370 0.69290 0.17080 0.06600
C 	C 	0.27124 0.51460 0.14490 0.05300
C 	C 	0.25030 0.41510 0.11420 -0.12300
H 	H 	0.26470 0.34030 0.11060 0.06400
C 	C 	0.20780 0.42720 0.08880 0.04000
H 	H 	0.19370 0.36060 0.06830 0.01400
C 	C 	0.31850 0.51120 0.17000 0.01200
C 	C 	0.33780 0.57340 0.21550 -0.08200
H 	H 	0.32150 0.62290 0.23070 0.05200
C 	C 	0.38130 0.56250 0.23880 0.00400
C 	C 	0.40530 0.50070 0.21370 -0.07000
H 	H 	0.43440 0.50120 0.22770 0.04900
C 	C 	0.38850 0.43620 0.16760 -0.01300
C 	C 	0.34410 0.44100 0.14670 -0.07500
H 	H 	0.33170 0.39690 0.11700 0.04800
C 	C 	0.40080 0.63690 0.28630 0.08300
C 	C 	0.38220 0.74160 0.29910 -0.16100
H 	H 	0.35650 0.76920 0.27800 0.08100
C 	C 	0.40090 0.81120 0.34390 0.08500
H 	H 	0.38730 0.88250 0.35240 0.01000
C 	C 	0.43950 0.77180 0.37490 -0.19800
C 	C 	0.45840 0.66530 0.36180 0.08500
H 	H 	0.48460 0.63920 0.38220 -0.00200
C 	C 	0.43900 0.59520 0.31820 -0.16500
H 	H 	0.45160 0.52070 0.31060 0.08200
C 	C 	0.46180 0.84660 0.42150 0.47400
C 	C 	0.41510 0.36680 0.14200 0.12000
C 	C 	0.45420 0.41150 0.14380 -0.20500
H 	H 	0.46430 0.48610 0.16190 0.09500
C 	C 	0.47850 0.34850 0.11950 0.13000
H 	H 	0.50520 0.38020 0.12180 -0.01300
C 	C 	0.46430 0.23780 0.09120 -0.23400
C 	C 	0.42530 0.19330 0.09000 0.13600
H 	H 	0.41520 0.11850 0.07210 -0.04100
C 	C 	0.40020 0.25850 0.11520 -0.20900
H 	H 	0.37360 0.22750 0.11350 0.09500
C 	C 	0.49130 0.17460 0.06300 0.47800
O 	O 	0.57550 0.33000 0.00410 -0.47000
S 	S 	0.57180 0.44680 0.03440 0.26000
C 	C 	0.60420 0.57600 0.02500 -0.94600
H 	H 	0.63320 0.55200 0.03850 0.25900
H 	H 	0.59860 0.65170 0.04180 0.30500
H 	H 	0.59820 0.59280 0.98980 0.12400
S 	S 	0.61290 0.40730 0.03120 0.23600
C 	C 	0.61570 0.46000 0.09260 -0.66200
H 	H 	0.61980 0.38650 0.11470 0.23100
H 	H 	0.59000 0.50280 0.09220 0.21000
H 	H 	0.63890 0.51850 0.10430 0.21100
C 	C 	0.60000 0.54400 0.99130 0.14700
H 	H 	0.59830 0.51860 0.95760 -0.06600
H 	H 	0.62130 0.60870 0.00250 0.09400
H 	H 	0.57340 0.57780 0.99220 0.08700
C 	C 	0.51910 0.49700 0.00620 -0.19900
H 	H 	0.52830 0.42120 0.02610 0.06200
H 	H 	0.53050 0.57250 0.02560 0.07100
H 	H 	0.52860 0.49410 0.97690 0.08100
Eu	Eu	0.05547 0.60532 0.00907 1.97700
O 	O 	0.62080 0.14500 0.07810 -0.42700
O 	O 	0.62590 0.99280 0.02650 -0.43200
O 	O 	0.94300 0.44530 0.43020 -0.50200
O 	O 	0.99635 0.30420 0.44840 -0.51800
O 	O 	0.97590 0.57710 0.03630 -0.57400
O 	O 	0.02580 0.72230 0.06520 -0.48900
C 	C 	0.64110 0.06170 0.06350 0.35000
C 	C 	0.68621 0.03890 0.09410 -0.11900
C 	C 	0.70720 0.13840 0.12490 0.03800
H 	H 	0.69280 0.21320 0.12840 0.01800
C 	C 	0.74970 0.12630 0.15030 -0.12100
H 	H 	0.76370 0.19290 0.17080 0.06600
C 	C 	0.77124 0.01460 0.14490 0.05100
C 	C 	0.75030 0.91510 0.11420 -0.12100
H 	H 	0.76470 0.84030 0.11060 0.06400
C 	C 	0.70780 0.92720 0.08880 0.04200
H 	H 	0.69370 0.86060 0.06830 0.01400
C 	C 	0.81850 0.01120 0.17000 0.01100
C 	C 	0.83780 0.07340 0.21550 -0.08200
H 	H 	0.82150 0.12290 0.23070 0.05200
C 	C 	0.88130 0.06250 0.23880 0.00400
C 	C 	0.90530 0.00070 0.21370 -0.07300
H 	H 	0.93440 0.00120 0.22770 0.05000
C 	C 	0.88850 0.93620 0.16760 -0.01100
C 	C 	0.84410 0.94100 0.14670 -0.07300
H 	H 	0.83170 0.89690 0.11700 0.04700
C 	C 	0.90080 0.13690 0.28630 0.08200
C 	C 	0.88220 0.24160 0.29910 -0.16000
H 	H 	0.85650 0.26920 0.27800 0.08100
C 	C 	0.90090 0.31120 0.34390 0.08500
H 	H 	0.88730 0.38250 0.35240 0.01000
C 	C 	0.93950 0.27180 0.37490 -0.19800
C 	C 	0.95840 0.16530 0.36180 0.08500
H 	H 	0.98460 0.13920 0.38220 -0.00200
C 	C 	0.93900 0.09520 0.31820 -0.16400
H 	H 	0.95160 0.02070 0.31060 0.08100
C 	C 	0.96180 0.34660 0.42150 0.47400
C 	C 	0.91510 0.86680 0.14200 0.11900
C 	C 	0.95420 0.91150 0.14380 -0.20500
H 	H 	0.96430 0.98610 0.16190 0.09500
C 	C 	0.97850 0.84850 0.11950 0.13000
H 	H 	0.00520 0.88020 0.12180 -0.01200
C 	C 	0.96430 0.73780 0.09120 -0.23400
C 	C 	0.92530 0.69330 0.09000 0.13600
H 	H 	0.91520 0.61850 0.07210 -0.04000
C 	C 	0.90020 0.75850 0.11520 -0.20900
H 	H 	0.87360 0.72750 0.11350 0.09500
C 	C 	0.99130 0.67460 0.06300 0.47900
O 	O 	0.07550 0.83000 0.00410 -0.47000
S 	S 	0.07180 0.94680 0.03440 0.26300
C 	C 	0.10420 0.07600 0.02500 -0.95300
H 	H 	0.13320 0.05200 0.03850 0.26100
H 	H 	0.09860 0.15170 0.04180 0.30700
H 	H 	0.09820 0.09280 0.98980 0.13000
S 	S 	0.11290 0.90730 0.03120 0.23600
C 	C 	0.11570 0.96000 0.09260 -0.65200
H 	H 	0.11980 0.88650 0.11470 0.22800
H 	H 	0.09000 0.00280 0.09220 0.20500
H 	H 	0.13890 0.01850 0.10430 0.20700
C 	C 	0.10000 0.04400 0.99130 0.14400
H 	H 	0.09830 0.01860 0.95760 -0.06500
H 	H 	0.12130 0.10870 0.00250 0.09300
H 	H 	0.07340 0.07780 0.99220 0.08800
C 	C 	0.01910 0.99700 0.00620 -0.19400
H 	H 	0.02830 0.92120 0.02610 0.06000
H 	H 	0.03050 0.07250 0.02560 0.06900
H 	H 	0.02860 0.99410 0.97690 0.07800
Eu	Eu	0.44453 0.10532 0.49093 1.97500
O 	O 	0.87920 0.64500 0.42190 -0.42700
O 	O 	0.87410 0.49280 0.47350 -0.43500
O 	O 	0.55700 0.94530 0.06980 -0.50000
O 	O 	0.50365 0.80420 0.05160 -0.51700
O 	O 	0.52410 0.07710 0.46370 -0.57400
O 	O 	0.47420 0.22230 0.43480 -0.48900
C 	C 	0.85890 0.56170 0.43650 0.35200
C 	C 	0.81379 0.53890 0.40590 -0.11800
C 	C 	0.79280 0.63840 0.37510 0.03800
H 	H 	0.80720 0.71320 0.37160 0.01800
C 	C 	0.75030 0.62630 0.34970 -0.12200
H 	H 	0.73630 0.69290 0.32920 0.06600
C 	C 	0.72876 0.51460 0.35510 0.05300
C 	C 	0.74970 0.41510 0.38580 -0.12300
H 	H 	0.73530 0.34030 0.38940 0.06400
C 	C 	0.79220 0.42720 0.41120 0.04000
H 	H 	0.80630 0.36060 0.43170 0.01400
C 	C 	0.68150 0.51120 0.33000 0.01200
C 	C 	0.66220 0.57340 0.28450 -0.08200
H 	H 	0.67850 0.62290 0.26930 0.05200
C 	C 	0.61870 0.56250 0.26120 0.00400
C 	C 	0.59470 0.50070 0.28630 -0.07000
H 	H 	0.56560 0.50120 0.27230 0.04900
C 	C 	0.61150 0.43620 0.33240 -0.01300
C 	C 	0.65590 0.44100 0.35330 -0.07500
H 	H 	0.66830 0.39690 0.38300 0.04800
C 	C 	0.59920 0.63690 0.21370 0.08300
C 	C 	0.61780 0.74160 0.20090 -0.16100
H 	H 	0.64350 0.76920 0.22200 0.08100
C 	C 	0.59910 0.81120 0.15610 0.08500
H 	H 	0.61270 0.88250 0.14760 0.01000
C 	C 	0.56050 0.77180 0.12510 -0.19800
C 	C 	0.54160 0.66530 0.13820 0.08500
H 	H 	0.51540 0.63920 0.11780 -0.00200
C 	C 	0.56100 0.59520 0.18180 -0.16400
H 	H 	0.54840 0.52070 0.18940 0.08100
C 	C 	0.53820 0.84660 0.07850 0.47400
C 	C 	0.58490 0.36680 0.35800 0.12000
C 	C 	0.54580 0.41150 0.35620 -0.20500
H 	H 	0.53570 0.48610 0.33810 0.09500
C 	C 	0.52150 0.34850 0.38050 0.13000
H 	H 	0.49480 0.38020 0.37820 -0.01300
C 	C 	0.53570 0.23780 0.40880 -0.23400
C 	C 	0.57470 0.19330 0.41000 0.13600
H 	H 	0.58480 0.11850 0.42790 -0.04000
C 	C 	0.59980 0.25850 0.38480 -0.20900
H 	H 	0.62640 0.22750 0.38650 0.09500
C 	C 	0.50870 0.17460 0.43700 0.47800
O 	O 	0.42450 0.33000 0.49590 -0.47000
S 	S 	0.42820 0.44680 0.46560 0.26100
C 	C 	0.39580 0.57600 0.47500 -0.94700
H 	H 	0.36680 0.55200 0.46150 0.25900
H 	H 	0.40140 0.65170 0.45820 0.30500
H 	H 	0.40180 0.59280 0.51020 0.12400
S 	S 	0.38710 0.40730 0.46880 0.23600
C 	C 	0.38430 0.46000 0.40740 -0.66200
H 	H 	0.38020 0.38650 0.38530 0.23100
H 	H 	0.41000 0.50280 0.40780 0.20900
H 	H 	0.36110 0.51850 0.39570 0.21100
C 	C 	0.40000 0.54400 0.50870 0.14800
H 	H 	0.40170 0.51860 0.54240 -0.06600
H 	H 	0.37870 0.60870 0.49750 0.09400
H 	H 	0.42660 0.57780 0.50780 0.08600
C 	C 	0.48090 0.49700 0.49380 -0.19900
H 	H 	0.47170 0.42120 0.47390 0.06200
H 	H 	0.46950 0.57250 0.47440 0.07100
H 	H 	0.47140 0.49410 0.52310 0.08100
Eu	Eu	0.94453 0.60532 0.49093 1.97600
O 	O 	0.37920 0.14500 0.42190 -0.42700
O 	O 	0.37410 0.99280 0.47350 -0.43400
O 	O 	0.05700 0.44530 0.06980 -0.50200
O 	O 	0.00365 0.30420 0.05160 -0.51800
O 	O 	0.02410 0.57710 0.46370 -0.57400
O 	O 	0.97420 0.72230 0.43480 -0.48900
C 	C 	0.35890 0.06170 0.43650 0.35200
C 	C 	0.31379 0.03890 0.40590 -0.11900
C 	C 	0.29280 0.13840 0.37510 0.03800
H 	H 	0.30720 0.21320 0.37160 0.01800
C 	C 	0.25030 0.12630 0.34970 -0.12200
H 	H 	0.23630 0.19290 0.32920 0.06600
C 	C 	0.22876 0.01460 0.35510 0.05100
C 	C 	0.24970 0.91510 0.38580 -0.12200
H 	H 	0.23530 0.84030 0.38940 0.06400
C 	C 	0.29220 0.92720 0.41120 0.04100
H 	H 	0.30630 0.86060 0.43170 0.01400
C 	C 	0.18150 0.01120 0.33000 0.01100
C 	C 	0.16220 0.07340 0.28450 -0.08200
H 	H 	0.17850 0.12290 0.26930 0.05200
C 	C 	0.11870 0.06250 0.26120 0.00400
C 	C 	0.09470 0.00070 0.28630 -0.07200
H 	H 	0.06560 0.00120 0.27230 0.05000
C 	C 	0.11150 0.93620 0.33240 -0.01100
C 	C 	0.15590 0.94100 0.35330 -0.07400
H 	H 	0.16830 0.89690 0.38300 0.04700
C 	C 	0.09920 0.13690 0.21370 0.08200
C 	C 	0.11780 0.24160 0.20090 -0.16100
H 	H 	0.14350 0.26920 0.22200 0.08100
C 	C 	0.09910 0.31120 0.15610 0.08500
H 	H 	0.11270 0.38250 0.14760 0.01000
C 	C 	0.06050 0.27180 0.12510 -0.19800
C 	C 	0.04160 0.16530 0.13820 0.08500
H 	H 	0.01540 0.13920 0.11780 -0.00200
C 	C 	0.06100 0.09520 0.18180 -0.16400
H 	H 	0.04840 0.02070 0.18940 0.08100
C 	C 	0.03820 0.34660 0.07850 0.47400
C 	C 	0.08490 0.86680 0.35800 0.11900
C 	C 	0.04580 0.91150 0.35620 -0.20400
H 	H 	0.03570 0.98610 0.33810 0.09500
C 	C 	0.02150 0.84850 0.38050 0.12900
H 	H 	0.99480 0.88020 0.37820 -0.01200
C 	C 	0.03570 0.73780 0.40880 -0.23400
C 	C 	0.07470 0.69330 0.41000 0.13600
H 	H 	0.08480 0.61850 0.42790 -0.04000
C 	C 	0.09980 0.75850 0.38480 -0.20800
H 	H 	0.12640 0.72750 0.38650 0.09500
C 	C 	0.00870 0.67460 0.43700 0.47800
O 	O 	0.92450 0.83000 0.49590 -0.47000
S 	S 	0.92820 0.94680 0.46560 0.26100
C 	C 	0.89580 0.07600 0.47500 -0.94600
H 	H 	0.86680 0.05200 0.46150 0.25900
H 	H 	0.90140 0.15170 0.45820 0.30500
H 	H 	0.90180 0.09280 0.51020 0.12500
S 	S 	0.88710 0.90730 0.46880 0.23500
C 	C 	0.88430 0.96000 0.40740 -0.65700
H 	H 	0.88020 0.88650 0.38530 0.23000
H 	H 	0.91000 0.00280 0.40780 0.20800
H 	H 	0.86110 0.01850 0.39570 0.20900
C 	C 	0.90000 0.04400 0.50870 0.14700
H 	H 	0.90170 0.01860 0.54240 -0.06600
H 	H 	0.87870 0.10870 0.49750 0.09400
H 	H 	0.92660 0.07780 0.50780 0.08700
C 	C 	0.98090 0.99700 0.49380 -0.19900
H 	H 	0.97170 0.92120 0.47390 0.06200
H 	H 	0.96950 0.07250 0.47440 0.07100
H 	H 	0.97140 0.99410 0.52310 0.08100
Eu	Eu	0.44453 0.89468 0.99093 1.97400
O 	O 	0.87920 0.35500 0.92190 -0.42700
O 	O 	0.87410 0.50720 0.97350 -0.43500
O 	O 	0.55700 0.05470 0.56980 -0.50100
O 	O 	0.50365 0.19580 0.55160 -0.51800
O 	O 	0.52410 0.92290 0.96370 -0.57400
O 	O 	0.47420 0.77770 0.93480 -0.48900
C 	C 	0.85890 0.43830 0.93650 0.35200
C 	C 	0.81379 0.46110 0.90590 -0.11800
C 	C 	0.79280 0.36160 0.87510 0.03800
H 	H 	0.80720 0.28680 0.87160 0.01800
C 	C 	0.75030 0.37370 0.84970 -0.12200
H 	H 	0.73630 0.30710 0.82920 0.06600
C 	C 	0.72876 0.48540 0.85510 0.05300
C 	C 	0.74970 0.58490 0.88580 -0.12300
H 	H 	0.73530 0.65970 0.88940 0.06400
C 	C 	0.79220 0.57280 0.91120 0.04000
H 	H 	0.80630 0.63940 0.93170 0.01400
C 	C 	0.68150 0.48880 0.83000 0.01200
C 	C 	0.66220 0.42660 0.78450 -0.08200
H 	H 	0.67850 0.37710 0.76930 0.05200
C 	C 	0.61870 0.43750 0.76120 0.00400
C 	C 	0.59470 0.49930 0.78630 -0.07000
H 	H 	0.56560 0.49880 0.77230 0.04900
C 	C 	0.61150 0.56380 0.83240 -0.01300
C 	C 	0.65590 0.55900 0.85330 -0.07500
H 	H 	0.66830 0.60310 0.88300 0.04800
C 	C 	0.59920 0.36310 0.71370 0.08300
C 	C 	0.61780 0.25840 0.70090 -0.16100
H 	H 	0.64350 0.23080 0.72200 0.08100
C 	C 	0.59910 0.18880 0.65610 0.08500
H 	H 	0.61270 0.11750 0.64760 0.01000
C 	C 	0.56050 0.22820 0.62510 -0.19800
C 	C 	0.54160 0.33470 0.63820 0.08500
H 	H 	0.51540 0.36080 0.61780 -0.00200
C 	C 	0.56100 0.40480 0.68180 -0.16500
H 	H 	0.54840 0.47930 0.68940 0.08200
C 	C 	0.53820 0.15340 0.57850 0.47400
C 	C 	0.58490 0.63320 0.85800 0.12000
C 	C 	0.54580 0.58850 0.85620 -0.20500
H 	H 	0.53570 0.51390 0.83810 0.09500
C 	C 	0.52150 0.65150 0.88050 0.13000
H 	H 	0.49480 0.61980 0.87820 -0.01300
C 	C 	0.53570 0.76220 0.90880 -0.23400
C 	C 	0.57470 0.80670 0.91000 0.13600
H 	H 	0.58480 0.88150 0.92790 -0.04100
C 	C 	0.59980 0.74150 0.88480 -0.20900
H 	H 	0.62640 0.77250 0.88650 0.09500
C 	C 	0.50870 0.82540 0.93700 0.47800
O 	O 	0.42450 0.67000 0.99590 -0.47000
S 	S 	0.42820 0.55320 0.96560 0.26000
C 	C 	0.39580 0.42400 0.97500 -0.94600
H 	H 	0.36680 0.44800 0.96150 0.25900
H 	H 	0.40140 0.34830 0.95820 0.30500
H 	H 	0.40180 0.40720 0.01020 0.12400
S 	S 	0.38710 0.59270 0.96880 0.23600
C 	C 	0.38430 0.54000 0.90740 -0.66200
H 	H 	0.38020 0.61350 0.88530 0.23100
H 	H 	0.41000 0.49720 0.90780 0.21000
H 	H 	0.36110 0.48150 0.89570 0.21100
C 	C 	0.40000 0.45600 0.00870 0.14700
H 	H 	0.40170 0.48140 0.04240 -0.06600
H 	H 	0.37870 0.39130 0.99750 0.09400
H 	H 	0.42660 0.42220 0.00780 0.08700
C 	C 	0.48090 0.50300 0.99380 -0.19900
H 	H 	0.47170 0.57880 0.97390 0.06200
H 	H 	0.46950 0.42750 0.97440 0.07100
H 	H 	0.47140 0.50590 0.02310 0.08100
Eu	Eu	0.94453 0.39468 0.99093 1.97700
O 	O 	0.37920 0.85500 0.92190 -0.42700
O 	O 	0.37410 0.00720 0.97350 -0.43200
O 	O 	0.05700 0.55470 0.56980 -0.50200
O 	O 	0.00365 0.69580 0.55160 -0.51800
O 	O 	0.02410 0.42290 0.96370 -0.57400
O 	O 	0.97420 0.27770 0.93480 -0.48900
C 	C 	0.35890 0.93830 0.93650 0.35000
C 	C 	0.31379 0.96110 0.90590 -0.11900
C 	C 	0.29280 0.86160 0.87510 0.03800
H 	H 	0.30720 0.78680 0.87160 0.01800
C 	C 	0.25030 0.87370 0.84970 -0.12100
H 	H 	0.23630 0.80710 0.82920 0.06600
C 	C 	0.22876 0.98540 0.85510 0.05100
C 	C 	0.24970 0.08490 0.88580 -0.12100
H 	H 	0.23530 0.15970 0.88940 0.06400
C 	C 	0.29220 0.07280 0.91120 0.04200
H 	H 	0.30630 0.13940 0.93170 0.01400
C 	C 	0.18150 0.98880 0.83000 0.01100
C 	C 	0.16220 0.92660 0.78450 -0.08200
H 	H 	0.17850 0.87710 0.76930 0.05200
C 	C 	0.11870 0.93750 0.76120 0.00400
C 	C 	0.09470 0.99930 0.78630 -0.07300
H 	H 	0.06560 0.99880 0.77230 0.05000
C 	C 	0.11150 0.06380 0.83240 -0.01100
C 	C 	0.15590 0.05900 0.85330 -0.07300
H 	H 	0.16830 0.10310 0.88300 0.04700
C 	C 	0.09920 0.86310 0.71370 0.08200
C 	C 	0.11780 0.75840 0.70090 -0.16000
H 	H 	0.14350 0.73080 0.72200 0.08100
C 	C 	0.09910 0.68880 0.65610 0.08500
H 	H 	0.11270 0.61750 0.64760 0.01000
C 	C 	0.06050 0.72820 0.62510 -0.19800
C 	C 	0.04160 0.83470 0.63820 0.08500
H 	H 	0.01540 0.86080 0.61780 -0.00200
C 	C 	0.06100 0.90480 0.68180 -0.16400
H 	H 	0.04840 0.97930 0.68940 0.08100
C 	C 	0.03820 0.65340 0.57850 0.47400
C 	C 	0.08490 0.13320 0.85800 0.11900
C 	C 	0.04580 0.08850 0.85620 -0.20500
H 	H 	0.03570 0.01390 0.83810 0.09500
C 	C 	0.02150 0.15150 0.88050 0.13000
H 	H 	0.99480 0.11980 0.87820 -0.01200
C 	C 	0.03570 0.26220 0.90880 -0.23400
C 	C 	0.07470 0.30670 0.91000 0.13600
H 	H 	0.08480 0.38150 0.92790 -0.04000
C 	C 	0.09980 0.24150 0.88480 -0.20900
H 	H 	0.12640 0.27250 0.88650 0.09500
C 	C 	0.00870 0.32540 0.93700 0.47900
O 	O 	0.92450 0.17000 0.99590 -0.47000
S 	S 	0.92820 0.05320 0.96560 0.26300
C 	C 	0.89580 0.92400 0.97500 -0.95300
H 	H 	0.86680 0.94800 0.96150 0.26100
H 	H 	0.90140 0.84830 0.95820 0.30700
H 	H 	0.90180 0.90720 0.01020 0.13000
S 	S 	0.88710 0.09270 0.96880 0.23600
C 	C 	0.88430 0.04000 0.90740 -0.65200
H 	H 	0.88020 0.11350 0.88530 0.22800
H 	H 	0.91000 0.99720 0.90780 0.20500
H 	H 	0.86110 0.98150 0.89570 0.20700
C 	C 	0.90000 0.95600 0.00870 0.14400
H 	H 	0.90170 0.98140 0.04240 -0.06500
H 	H 	0.87870 0.89130 0.99750 0.09300
H 	H 	0.92660 0.92220 0.00780 0.08800
C 	C 	0.98090 0.00300 0.99380 -0.19400
H 	H 	0.97170 0.07880 0.97390 0.06000
H 	H 	0.96950 0.92750 0.97440 0.06900
H 	H 	0.97140 0.00590 0.02310 0.07800
Eu	Eu	0.55547 0.89468 0.50907 1.97500
O 	O 	0.12080 0.35500 0.57810 -0.42700
O 	O 	0.12590 0.50720 0.52650 -0.43500
O 	O 	0.44300 0.05470 0.93020 -0.50000
O 	O 	0.49635 0.19580 0.94840 -0.51700
O 	O 	0.47590 0.92290 0.53630 -0.57400
O 	O 	0.52580 0.77770 0.56520 -0.48900
C 	C 	0.14110 0.43830 0.56350 0.35200
C 	C 	0.18621 0.46110 0.59410 -0.11800
C 	C 	0.20720 0.36160 0.62490 0.03800
H 	H 	0.19280 0.28680 0.62840 0.01800
C 	C 	0.24970 0.37370 0.65030 -0.12200
H 	H 	0.26370 0.30710 0.67080 0.06600
C 	C 	0.27124 0.48540 0.64490 0.05300
C 	C 	0.25030 0.58490 0.61420 -0.12300
H 	H 	0.26470 0.65970 0.61060 0.06400
C 	C 	0.20780 0.57280 0.58880 0.04000
H 	H 	0.19370 0.63940 0.56830 0.01400
C 	C 	0.31850 0.48880 0.67000 0.01200
C 	C 	0.33780 0.42660 0.71550 -0.08200
H 	H 	0.32150 0.37710 0.73070 0.05200
C 	C 	0.38130 0.43750 0.73880 0.00400
C 	C 	0.40530 0.49930 0.71370 -0.07000
H 	H 	0.43440 0.49880 0.72770 0.04900
C 	C 	0.38850 0.56380 0.66760 -0.01300
C 	C 	0.34410 0.55900 0.64670 -0.07500
H 	H 	0.33170 0.60310 0.61700 0.04800
C 	C 	0.40080 0.36310 0.78630 0.08300
C 	C 	0.38220 0.25840 0.79910 -0.16100
H 	H 	0.35650 0.23080 0.77800 0.08100
C 	C 	0.40090 0.18880 0.84390 0.08500
H 	H 	0.38730 0.11750 0.85240 0.01000
C 	C 	0.43950 0.22820 0.87490 -0.19800
C 	C 	0.45840 0.33470 0.86180 0.08500
H 	H 	0.48460 0.36080 0.88220 -0.00200
C 	C 	0.43900 0.40480 0.81820 -0.16400
H 	H 	0.45160 0.47930 0.81060 0.08100
C 	C 	0.46180 0.15340 0.92150 0.47400
C 	C 	0.41510 0.63320 0.64200 0.12000
C 	C 	0.45420 0.58850 0.64380 -0.20500
H 	H 	0.46430 0.51390 0.66190 0.09500
C 	C 	0.47850 0.65150 0.61950 0.13000
H 	H 	0.50520 0.61980 0.62180 -0.01300
C 	C 	0.46430 0.76220 0.59120 -0.23400
C 	C 	0.42530 0.80670 0.59000 0.13600
H 	H 	0.41520 0.88150 0.57210 -0.04000
C 	C 	0.40020 0.74150 0.61520 -0.20900
H 	H 	0.37360 0.77250 0.61350 0.09500
C 	C 	0.49130 0.82540 0.56300 0.47800
O 	O 	0.57550 0.67000 0.50410 -0.47000
S 	S 	0.57180 0.55320 0.53440 0.26100
C 	C 	0.60420 0.42400 0.52500 -0.94700
H 	H 	0.63320 0.44800 0.53850 0.25900
H 	H 	0.59860 0.34830 0.54180 0.30500
H 	H 	0.59820 0.40720 0.48980 0.12400
S 	S 	0.61290 0.59270 0.53120 0.23600
C 	C 	0.61570 0.54000 0.59260 -0.66200
H 	H 	0.61980 0.61350 0.61470 0.23100
H 	H 	0.59000 0.49720 0.59220 0.20900
H 	H 	0.63890 0.48150 0.60430 0.21100
C 	C 	0.60000 0.45600 0.49130 0.14800
H 	H 	0.59830 0.48140 0.45760 -0.06600
H 	H 	0.62130 0.39130 0.50250 0.09400
H 	H 	0.57340 0.42220 0.49220 0.08600
C 	C 	0.51910 0.50300 0.50620 -0.19900
H 	H 	0.52830 0.57880 0.52610 0.06200
H 	H 	0.53050 0.42750 0.52560 0.07100
H 	H 	0.52860 0.50590 0.47690 0.08100
Eu	Eu	0.05547 0.39468 0.50907 1.97600
O 	O 	0.62080 0.85500 0.57810 -0.42700
O 	O 	0.62590 0.00720 0.52650 -0.43400
O 	O 	0.94300 0.55470 0.93020 -0.50200
O 	O 	0.99635 0.69580 0.94840 -0.51800
O 	O 	0.97590 0.42290 0.53630 -0.57400
O 	O 	0.02580 0.27770 0.56520 -0.48900
C 	C 	0.64110 0.93830 0.56350 0.35200
C 	C 	0.68621 0.96110 0.59410 -0.11900
C 	C 	0.70720 0.86160 0.62490 0.03800
H 	H 	0.69280 0.78680 0.62840 0.01800
C 	C 	0.74970 0.87370 0.65030 -0.12200
H 	H 	0.76370 0.80710 0.67080 0.06600
C 	C 	0.77124 0.98540 0.64490 0.05100
C 	C 	0.75030 0.08490 0.61420 -0.12200
H 	H 	0.76470 0.15970 0.61060 0.06400
C 	C 	0.70780 0.07280 0.58880 0.04100
H 	H 	0.69370 0.13940 0.56830 0.01400
C 	C 	0.81850 0.98880 0.67000 0.01100
C 	C 	0.83780 0.92660 0.71550 -0.08200
H 	H 	0.82150 0.87710 0.73070 0.05200
C 	C 	0.88130 0.93750 0.73880 0.00400
C 	C 	0.90530 0.99930 0.71370 -0.07200
H 	H 	0.93440 0.99880 0.72770 0.05000
C 	C 	0.88850 0.06380 0.66760 -0.01100
C 	C 	0.84410 0.05900 0.64670 -0.07400
H 	H 	0.83170 0.10310 0.61700 0.04700
C 	C 	0.90080 0.86310 0.78630 0.08200
C 	C 	0.88220 0.75840 0.79910 -0.16100
H 	H 	0.85650 0.73080 0.77800 0.08100
C 	C 	0.90090 0.68880 0.84390 0.08500
H 	H 	0.88730 0.61750 0.85240 0.01000
C 	C 	0.93950 0.72820 0.87490 -0.19800
C 	C 	0.95840 0.83470 0.86180 0.08500
H 	H 	0.98460 0.86080 0.88220 -0.00200
C 	C 	0.93900 0.90480 0.81820 -0.16400
H 	H 	0.95160 0.97930 0.81060 0.08100
C 	C 	0.96180 0.65340 0.92150 0.47400
C 	C 	0.91510 0.13320 0.64200 0.11900
C 	C 	0.95420 0.08850 0.64380 -0.20400
H 	H 	0.96430 0.01390 0.66190 0.09500
C 	C 	0.97850 0.15150 0.61950 0.12900
H 	H 	0.00520 0.11980 0.62180 -0.01200
C 	C 	0.96430 0.26220 0.59120 -0.23400
C 	C 	0.92530 0.30670 0.59000 0.13600
H 	H 	0.91520 0.38150 0.57210 -0.04000
C 	C 	0.90020 0.24150 0.61520 -0.20800
H 	H 	0.87360 0.27250 0.61350 0.09500
C 	C 	0.99130 0.32540 0.56300 0.47800
O 	O 	0.07550 0.17000 0.50410 -0.47000
S 	S 	0.07180 0.05320 0.53440 0.26100
C 	C 	0.10420 0.92400 0.52500 -0.94600
H 	H 	0.13320 0.94800 0.53850 0.25900
H 	H 	0.09860 0.84830 0.54180 0.30500
H 	H 	0.09820 0.90720 0.48980 0.12500
S 	S 	0.11290 0.09270 0.53120 0.23500
C 	C 	0.11570 0.04000 0.59260 -0.65700
H 	H 	0.11980 0.11350 0.61470 0.23000
H 	H 	0.09000 0.99720 0.59220 0.20800
H 	H 	0.13890 0.98150 0.60430 0.20900
C 	C 	0.10000 0.95600 0.49130 0.14700
H 	H 	0.09830 0.98140 0.45760 -0.06600
H 	H 	0.12130 0.89130 0.50250 0.09400
H 	H 	0.07340 0.92220 0.49220 0.08700
C 	C 	0.01910 0.00300 0.50620 -0.19900
H 	H 	0.02830 0.07880 0.52610 0.06200
H 	H 	0.03050 0.92750 0.52560 0.07100
H 	H 	0.02860 0.00590 0.47690 0.08100
