data_crystal

_cell_length_a 19.19120
_cell_length_b 9.34700
_cell_length_c 9.63750
_cell_angle_alpha 90.00000
_cell_angle_beta  92.70900
_cell_angle_gamma 90.00000

_symmetry_space_group_name_	'P 1'
_symmetry_space_group_name_H-M	'P 1'

loop_
_symmetry_equiv_pos_as_xyz
  x,y,z

loop_
_atom_site_label
_atom_site_type_symbol
_atom_site_fract_x
_atom_site_fract_y
_atom_site_fract_z
_atom_site_charge
P 	P 	0.83340 0.15080 0.52890 0.75700
P 	P 	0.95200 0.84480 0.21650 0.61000
P 	P 	0.58080 0.90640 0.40050 0.72200
P 	P 	0.60500 0.15680 0.78020 0.68400
Al	Al	0.94410 0.91950 0.51920 2.39400
Al	Al	0.91830 0.15720 0.27250 2.39700
Al	Al	0.67460 0.15540 0.48910 2.39600
Al	Al	0.46600 0.13920 0.28530 2.38900
O 	O 	0.87060 0.01520 0.58000 -0.70900
O 	O 	0.83910 0.17820 0.37220 -0.68600
O 	O 	0.75750 0.14530 0.55900 -0.74900
O 	O 	0.86530 0.27560 0.61540 -0.61700
O 	O 	0.91490 0.81830 0.35330 -0.63300
O 	O 	0.91130 0.74520 0.11620 -0.57600
O 	O 	0.03090 0.82000 0.23570 -0.74400
O 	O 	0.93470 0.99900 0.16990 -0.67400
O 	O 	0.51330 0.98570 0.36410 -0.73800
O 	O 	0.57270 0.83310 0.54050 -0.64600
O 	O 	0.59000 0.78550 0.29300 -0.62300
O 	O 	0.65020 0.99040 0.41330 -0.73600
O 	O 	0.53880 0.22810 0.82710 -0.72900
O 	O 	0.62090 0.19600 0.62830 -0.75600
O 	O 	0.60160 0.99190 0.78950 -0.63000
O 	O 	0.67140 0.19990 0.87010 -0.69900
O 	O 	0.96920 0.08130 0.42080 -1.40600
P 	P 	0.16660 0.65080 0.97110 0.75400
P 	P 	0.04800 0.34480 0.28350 0.61500
P 	P 	0.41920 0.40640 0.09950 0.72100
P 	P 	0.39500 0.65680 0.71980 0.68200
Al	Al	0.05590 0.41950 0.98080 2.39400
Al	Al	0.08170 0.65720 0.22750 2.39700
Al	Al	0.32540 0.65540 0.01090 2.39600
Al	Al	0.53400 0.63920 0.21470 2.38900
O 	O 	0.12940 0.51520 0.92000 -0.71200
O 	O 	0.16090 0.67820 0.12780 -0.68300
O 	O 	0.24250 0.64530 0.94100 -0.75000
O 	O 	0.13470 0.77560 0.88460 -0.61800
O 	O 	0.08510 0.31830 0.14670 -0.63000
O 	O 	0.08870 0.24520 0.38380 -0.57600
O 	O 	0.96910 0.32000 0.26430 -0.75100
O 	O 	0.06530 0.49900 0.33010 -0.67000
O 	O 	0.48670 0.48570 0.13590 -0.73700
O 	O 	0.42730 0.33310 0.95950 -0.64400
O 	O 	0.41000 0.28550 0.20700 -0.62300
O 	O 	0.34980 0.49040 0.08670 -0.73300
O 	O 	0.46120 0.72810 0.67290 -0.73000
O 	O 	0.37910 0.69600 0.87170 -0.75600
O 	O 	0.39840 0.49190 0.71050 -0.62700
O 	O 	0.32860 0.69990 0.62990 -0.70000
O 	O 	0.03080 0.58130 0.07920 -1.40400
P 	P 	0.16660 0.84920 0.47110 0.75600
P 	P 	0.04800 0.15520 0.78350 0.60900
P 	P 	0.41920 0.09360 0.59950 0.72100
P 	P 	0.39500 0.84320 0.21980 0.68300
Al	Al	0.05590 0.08050 0.48080 2.39400
Al	Al	0.08170 0.84280 0.72750 2.39700
Al	Al	0.32540 0.84460 0.51090 2.39600
Al	Al	0.53400 0.86080 0.71470 2.38900
O 	O 	0.12940 0.98480 0.42000 -0.70900
O 	O 	0.16090 0.82180 0.62780 -0.68600
O 	O 	0.24250 0.85470 0.44100 -0.74900
O 	O 	0.13470 0.72440 0.38460 -0.61700
O 	O 	0.08510 0.18170 0.64670 -0.63300
O 	O 	0.08870 0.25480 0.88380 -0.57600
O 	O 	0.96910 0.18000 0.76430 -0.74400
O 	O 	0.06530 0.00100 0.83010 -0.67400
O 	O 	0.48670 0.01430 0.63590 -0.73800
O 	O 	0.42730 0.16690 0.45950 -0.64600
O 	O 	0.41000 0.21450 0.70700 -0.62300
O 	O 	0.34980 0.00960 0.58670 -0.73600
O 	O 	0.46120 0.77190 0.17290 -0.72900
O 	O 	0.37910 0.80400 0.37170 -0.75600
O 	O 	0.39840 0.00810 0.21050 -0.63000
O 	O 	0.32860 0.80010 0.12990 -0.69900
O 	O 	0.03080 0.91870 0.57920 -1.40600
P 	P 	0.83340 0.34920 0.02890 0.75400
P 	P 	0.95200 0.65520 0.71650 0.61500
P 	P 	0.58080 0.59360 0.90050 0.72100
P 	P 	0.60500 0.34320 0.28020 0.68200
Al	Al	0.94410 0.58050 0.01920 2.39400
Al	Al	0.91830 0.34280 0.77250 2.39700
Al	Al	0.67460 0.34460 0.98910 2.39600
Al	Al	0.46600 0.36080 0.78530 2.38900
O 	O 	0.87060 0.48480 0.08000 -0.71200
O 	O 	0.83910 0.32180 0.87220 -0.68300
O 	O 	0.75750 0.35470 0.05900 -0.75000
O 	O 	0.86530 0.22440 0.11540 -0.61800
O 	O 	0.91490 0.68170 0.85330 -0.63000
O 	O 	0.91130 0.75480 0.61620 -0.57600
O 	O 	0.03090 0.68000 0.73570 -0.75100
O 	O 	0.93470 0.50100 0.66990 -0.67000
O 	O 	0.51330 0.51430 0.86410 -0.73700
O 	O 	0.57270 0.66690 0.04050 -0.64400
O 	O 	0.59000 0.71450 0.79300 -0.62300
O 	O 	0.65020 0.50960 0.91330 -0.73300
O 	O 	0.53880 0.27190 0.32710 -0.73000
O 	O 	0.62090 0.30400 0.12830 -0.75600
O 	O 	0.60160 0.50810 0.28950 -0.62700
O 	O 	0.67140 0.30010 0.37010 -0.70000
O 	O 	0.96920 0.41870 0.92080 -1.40400
