data_crystal

_cell_length_a 19.24910
_cell_length_b 9.27500
_cell_length_c 9.70190
_cell_angle_alpha 90.00000
_cell_angle_beta  93.79300
_cell_angle_gamma 90.00000

_symmetry_space_group_name_	'P 1'
_symmetry_space_group_name_H-M	'P 1'

loop_
_symmetry_equiv_pos_as_xyz
  x,y,z

loop_
_atom_site_label
_atom_site_type_symbol
_atom_site_fract_x
_atom_site_fract_y
_atom_site_fract_z
_atom_site_charge
P 	P 	0.83650 0.15980 0.52270 0.75000
P 	P 	0.94810 0.84440 0.21750 0.64000
P 	P 	0.58030 0.89890 0.39720 0.74200
P 	P 	0.60080 0.15160 0.77890 0.77200
Al	Al	0.94230 0.92230 0.51170 2.39600
Al	Al	0.91950 0.15720 0.26690 2.39500
Al	Al	0.67160 0.15100 0.49040 2.39600
Al	Al	0.46130 0.14420 0.30290 2.39600
O 	O 	0.86890 0.01380 0.56610 -0.72900
O 	O 	0.84060 0.17950 0.36580 -0.68100
O 	O 	0.75930 0.14680 0.54080 -0.74000
O 	O 	0.87120 0.28480 0.60680 -0.66800
O 	O 	0.92100 0.80790 0.35880 -0.67500
O 	O 	0.91830 0.73580 0.11080 -0.61900
O 	O 	0.02710 0.82480 0.22540 -0.69000
O 	O 	0.93810 0.99730 0.15910 -0.63200
O 	O 	0.51740 0.99750 0.36690 -0.72600
O 	O 	0.58200 0.83200 0.54230 -0.72000
O 	O 	0.59300 0.78460 0.28690 -0.61500
O 	O 	0.64520 0.99630 0.39690 -0.72600
O 	O 	0.53750 0.24450 0.79800 -0.74500
O 	O 	0.62130 0.18150 0.62990 -0.78500
O 	O 	0.58540 0.99290 0.80960 -0.64500
O 	O 	0.65700 0.19240 0.89150 -0.72100
O 	O 	0.97100 0.07630 0.41070 -1.38300
P 	P 	0.16350 0.65980 0.97730 0.75000
P 	P 	0.05190 0.34440 0.28250 0.64700
P 	P 	0.41970 0.39890 0.10280 0.74400
P 	P 	0.39920 0.65160 0.72110 0.77200
Al	Al	0.05770 0.42230 0.98830 2.39800
Al	Al	0.08050 0.65720 0.23310 2.39600
Al	Al	0.32840 0.65100 0.00960 2.39700
Al	Al	0.53870 0.64420 0.19710 2.39700
O 	O 	0.13110 0.51380 0.93390 -0.73200
O 	O 	0.15940 0.67950 0.13420 -0.67900
O 	O 	0.24070 0.64680 0.95920 -0.74000
O 	O 	0.12880 0.78480 0.89320 -0.66800
O 	O 	0.07900 0.30790 0.14120 -0.67200
O 	O 	0.08170 0.23580 0.38920 -0.61900
O 	O 	0.97290 0.32480 0.27460 -0.69700
O 	O 	0.06190 0.49730 0.34090 -0.62700
O 	O 	0.48260 0.49750 0.13310 -0.72500
O 	O 	0.41800 0.33200 0.95770 -0.72000
O 	O 	0.40700 0.28460 0.21310 -0.61500
O 	O 	0.35480 0.49630 0.10310 -0.72300
O 	O 	0.46250 0.74450 0.70200 -0.74500
O 	O 	0.37870 0.68150 0.87010 -0.78500
O 	O 	0.41460 0.49290 0.69040 -0.64300
O 	O 	0.34300 0.69240 0.60850 -0.72200
O 	O 	0.02900 0.57630 0.08930 -1.38000
P 	P 	0.16350 0.84020 0.47730 0.75100
P 	P 	0.05190 0.15560 0.78250 0.64100
P 	P 	0.41970 0.10110 0.60280 0.74300
P 	P 	0.39920 0.84840 0.22110 0.77300
Al	Al	0.05770 0.07770 0.48830 2.39700
Al	Al	0.08050 0.84280 0.73310 2.39600
Al	Al	0.32840 0.84900 0.50960 2.39700
Al	Al	0.53870 0.85580 0.69710 2.39700
O 	O 	0.13110 0.98620 0.43390 -0.72900
O 	O 	0.15940 0.82050 0.63420 -0.68100
O 	O 	0.24070 0.85320 0.45920 -0.74000
O 	O 	0.12880 0.71520 0.39320 -0.66800
O 	O 	0.07900 0.19210 0.64120 -0.67500
O 	O 	0.08170 0.26420 0.88920 -0.61900
O 	O 	0.97290 0.17520 0.77460 -0.69000
O 	O 	0.06190 0.00270 0.84090 -0.63200
O 	O 	0.48260 0.00250 0.63310 -0.72600
O 	O 	0.41800 0.16800 0.45770 -0.72000
O 	O 	0.40700 0.21540 0.71310 -0.61500
O 	O 	0.35480 0.00370 0.60310 -0.72600
O 	O 	0.46250 0.75550 0.20200 -0.74500
O 	O 	0.37870 0.81850 0.37010 -0.78500
O 	O 	0.41460 0.00710 0.19040 -0.64500
O 	O 	0.34300 0.80760 0.10850 -0.72100
O 	O 	0.02900 0.92370 0.58930 -1.38300
P 	P 	0.83650 0.34020 0.02270 0.75000
P 	P 	0.94810 0.65560 0.71750 0.64700
P 	P 	0.58030 0.60110 0.89720 0.74400
P 	P 	0.60080 0.34840 0.27890 0.77200
Al	Al	0.94230 0.57770 0.01170 2.39800
Al	Al	0.91950 0.34280 0.76690 2.39600
Al	Al	0.67160 0.34900 0.99040 2.39700
Al	Al	0.46130 0.35580 0.80290 2.39700
O 	O 	0.86890 0.48620 0.06610 -0.73200
O 	O 	0.84060 0.32050 0.86580 -0.67900
O 	O 	0.75930 0.35320 0.04080 -0.74000
O 	O 	0.87120 0.21520 0.10680 -0.66800
O 	O 	0.92100 0.69210 0.85880 -0.67200
O 	O 	0.91830 0.76420 0.61080 -0.61900
O 	O 	0.02710 0.67520 0.72540 -0.69700
O 	O 	0.93810 0.50270 0.65910 -0.62700
O 	O 	0.51740 0.50250 0.86690 -0.72500
O 	O 	0.58200 0.66800 0.04230 -0.72000
O 	O 	0.59300 0.71540 0.78690 -0.61500
O 	O 	0.64520 0.50370 0.89690 -0.72300
O 	O 	0.53750 0.25550 0.29800 -0.74500
O 	O 	0.62130 0.31850 0.12990 -0.78500
O 	O 	0.58540 0.50710 0.30960 -0.64300
O 	O 	0.65700 0.30760 0.39150 -0.72200
O 	O 	0.97100 0.42370 0.91070 -1.38000
