data_crystal

_cell_length_a 7.24520
_cell_length_b 13.97060
_cell_length_c 16.37790
_cell_angle_alpha 73.53100
_cell_angle_beta  83.67800
_cell_angle_gamma 89.99800

_symmetry_space_group_name_	'P 1'
_symmetry_space_group_name_H-M	'P 1'

loop_
_symmetry_equiv_pos_as_xyz
  x,y,z

loop_
_atom_site_label
_atom_site_type_symbol
_atom_site_fract_x
_atom_site_fract_y
_atom_site_fract_z
_atom_site_charge
Pt	Pt	0.49309 0.23753 0.03257 0.27100
N 	N 	0.02230 0.09430 0.88160 -0.19200
N 	N 	0.18130 0.08370 0.02810 -0.29000
N 	N 	0.81160 0.39520 0.01990 -0.24900
N 	N 	0.19340 0.40300 0.00810 -0.28000
N 	N 	0.99250 0.48040 0.12590 -0.22400
N 	N 	0.79900 0.07940 0.03170 -0.25600
C 	C 	0.04500 0.06050 0.81240 -0.04400
H 	H 	0.05440 0.99210 0.82060 0.05800
C 	C 	0.05520 0.12290 0.72920 -0.08300
H 	H 	0.07380 0.09680 0.68270 0.04100
C 	C 	0.03690 0.22570 0.71640 0.05200
C 	C 	0.01720 0.26220 0.78710 -0.06200
H 	H 	0.00810 0.33040 0.78010 0.05100
C 	C 	0.01140 0.19570 0.86850 -0.07300
H 	H 	0.99970 0.22060 0.91580 0.14100
C 	C 	0.03340 0.28990 0.63070 -0.06900
C 	C 	0.02390 0.33610 0.55700 0.03100
C 	C 	0.29530 0.13900 0.03340 -0.07000
C 	C 	0.69390 0.33680 0.02660 -0.04400
C 	C 	0.30410 0.34270 0.01830 -0.06000
C 	C 	0.68420 0.13480 0.03760 -0.04900
C 	C 	0.15070 0.48460 0.16230 0.03000
H 	H 	0.26180 0.50110 0.12650 -0.03000
C 	C 	0.15640 0.46580 0.24980 -0.24000
H 	H 	0.26780 0.47180 0.27160 0.09200
C 	C 	0.99210 0.43770 0.30440 0.14400
C 	C 	0.82730 0.43320 0.26860 -0.17400
H 	H 	0.71520 0.41550 0.30350 0.08600
C 	C 	0.83300 0.45540 0.17960 0.09400
H 	H 	0.72240 0.45310 0.15620 -0.03200
C 	C 	0.99640 0.41010 0.39620 0.05300
C 	C 	0.01110 0.37920 0.47140 -0.12400
Pt	Pt	0.50691 0.76247 0.96743 0.32500
N 	N 	0.97770 0.90570 0.11840 -0.29300
N 	N 	0.81870 0.91630 0.97190 -0.17100
N 	N 	0.18840 0.60480 0.98010 -0.21300
N 	N 	0.80660 0.59700 0.99190 -0.18600
N 	N 	0.00750 0.51960 0.87410 -0.26100
N 	N 	0.20100 0.92060 0.96830 -0.19600
C 	C 	0.95500 0.93950 0.18760 0.23400
H 	H 	0.94560 0.00790 0.17940 -0.08700
C 	C 	0.94480 0.87710 0.27080 -0.26500
H 	H 	0.92620 0.90320 0.31730 0.14200
C 	C 	0.96310 0.77430 0.28360 0.18900
C 	C 	0.98280 0.73780 0.21290 -0.29500
H 	H 	0.99190 0.66960 0.21990 0.14300
C 	C 	0.98860 0.80430 0.13150 0.25900
H 	H 	0.00030 0.77940 0.08420 -0.17300
C 	C 	0.96660 0.71010 0.36930 -0.05600
C 	C 	0.97610 0.66390 0.44300 -0.01200
C 	C 	0.70470 0.86100 0.96660 0.03800
C 	C 	0.30610 0.66320 0.97340 0.01700
C 	C 	0.69590 0.65730 0.98170 0.03200
C 	C 	0.31580 0.86520 0.96240 0.02300
C 	C 	0.84930 0.51540 0.83770 0.13700
H 	H 	0.73820 0.49890 0.87350 0.00200
C 	C 	0.84360 0.53420 0.75020 -0.11000
H 	H 	0.73220 0.52820 0.72840 0.08700
C 	C 	0.00790 0.56230 0.69560 0.08600
C 	C 	0.17270 0.56680 0.73140 -0.16600
H 	H 	0.28480 0.58450 0.69650 0.09200
C 	C 	0.16700 0.54460 0.82040 0.08100
H 	H 	0.27760 0.54690 0.84380 0.00300
C 	C 	0.00360 0.58990 0.60380 -0.16700
C 	C 	0.98890 0.62080 0.52860 0.13200
Fe	Fe	-0.00000 0.50000 -0.00000 1.07800
Fe	Fe	-0.00000 0.00000 -0.00000 1.05200
