data_crystal

_cell_length_a 7.36350
_cell_length_b 14.11120
_cell_length_c 16.39060
_cell_angle_alpha 74.66300
_cell_angle_beta  82.34900
_cell_angle_gamma 89.87800

_symmetry_space_group_name_	'P 1'
_symmetry_space_group_name_H-M	'P 1'

loop_
_symmetry_equiv_pos_as_xyz
  x,y,z

loop_
_atom_site_label
_atom_site_type_symbol
_atom_site_fract_x
_atom_site_fract_y
_atom_site_fract_z
_atom_site_charge
Pt	Pt	0.49172 0.22837 0.03450 0.27300
N 	N 	0.02130 0.09424 0.88385 -0.19600
N 	N 	0.17890 0.08126 0.02915 -0.29100
N 	N 	0.79920 0.38447 0.02452 -0.23300
N 	N 	0.21080 0.39621 0.00416 -0.26300
N 	N 	0.99460 0.48017 0.13980 -0.21300
N 	N 	0.79860 0.07500 0.03587 -0.25700
C 	C 	0.04210 0.06127 0.81365 -0.03800
H 	H 	0.05280 0.99410 0.82020 0.05500
C 	C 	0.04850 0.12210 0.73235 -0.09000
H 	H 	0.06380 0.09610 0.68540 0.04300
C 	C 	0.03180 0.22250 0.72096 0.05900
C 	C 	0.01410 0.25680 0.79300 -0.07200
H 	H 	0.00510 0.32380 0.78780 0.05400
C 	C 	0.00970 0.19184 0.87254 -0.05800
H 	H 	0.99820 0.21640 0.92020 0.13100
C 	C 	0.02880 0.28630 0.63701 -0.07300
C 	C 	0.02100 0.33190 0.56528 0.03400
C 	C 	0.29420 0.13261 0.03515 -0.06800
C 	C 	0.68610 0.32595 0.02987 -0.05100
C 	C 	0.31320 0.33441 0.01620 -0.06600
C 	C 	0.68020 0.12674 0.04247 -0.05000
C 	C 	0.14540 0.49270 0.17307 0.04200
H 	H 	0.25230 0.51600 0.13600 -0.03700
C 	C 	0.15120 0.47290 0.25948 -0.24900
H 	H 	0.25940 0.48350 0.27970 0.09600
C 	C 	0.99400 0.43710 0.31613 0.15300
C 	C 	0.83620 0.42480 0.28215 -0.18600
H 	H 	0.72740 0.40170 0.31780 0.09100
C 	C 	0.84280 0.44740 0.19444 0.10400
H 	H 	0.73570 0.43930 0.17230 -0.03400
C 	C 	0.99840 0.40860 0.40690 0.04800
C 	C 	0.00840 0.37690 0.48072 -0.12100
Pt	Pt	0.50828 0.77163 0.96550 0.32700
N 	N 	0.97870 0.90576 0.11615 -0.30400
N 	N 	0.82110 0.91874 0.97085 -0.17400
N 	N 	0.20080 0.61553 0.97548 -0.19800
N 	N 	0.78920 0.60379 0.99584 -0.17200
N 	N 	0.00540 0.51983 0.86020 -0.25300
N 	N 	0.20140 0.92500 0.96413 -0.19800
C 	C 	0.95790 0.93873 0.18635 0.24700
H 	H 	0.94720 0.00590 0.17980 -0.09200
C 	C 	0.95150 0.87790 0.26765 -0.28700
H 	H 	0.93620 0.90390 0.31460 0.14800
C 	C 	0.96820 0.77750 0.27904 0.21100
C 	C 	0.98590 0.74320 0.20700 -0.32100
H 	H 	0.99490 0.67620 0.21220 0.15100
C 	C 	0.99030 0.80816 0.12746 0.28300
H 	H 	0.00180 0.78360 0.07980 -0.18100
C 	C 	0.97120 0.71370 0.36299 -0.06600
C 	C 	0.97900 0.66810 0.43472 -0.00900
C 	C 	0.70580 0.86739 0.96485 0.03800
C 	C 	0.31390 0.67405 0.97013 0.00700
C 	C 	0.68680 0.66559 0.98380 0.02300
C 	C 	0.31980 0.87326 0.95753 0.02300
C 	C 	0.85460 0.50730 0.82693 0.15000
H 	H 	0.74770 0.48400 0.86400 -0.00400
C 	C 	0.84880 0.52710 0.74052 -0.12900
H 	H 	0.74060 0.51650 0.72030 0.09400
C 	C 	0.00600 0.56290 0.68387 0.10300
C 	C 	0.16380 0.57520 0.71785 -0.18300
H 	H 	0.27260 0.59830 0.68220 0.09800
C 	C 	0.15720 0.55260 0.80556 0.09400
H 	H 	0.26430 0.56070 0.82770 -0.00600
C 	C 	0.00160 0.59140 0.59310 -0.17500
C 	C 	0.99160 0.62310 0.51928 0.13300
Fe	Fe	-0.00000 0.50000 -0.00000 1.02900
Fe	Fe	-0.00000 0.00000 -0.00000 1.05600
