data_crystal

_cell_length_a 7.24430
_cell_length_b 13.81270
_cell_length_c 15.47460
_cell_angle_alpha 80.35200
_cell_angle_beta  87.66900
_cell_angle_gamma 89.84200

_symmetry_space_group_name_	'P 1'
_symmetry_space_group_name_H-M	'P 1'

loop_
_symmetry_equiv_pos_as_xyz
  x,y,z

loop_
_atom_site_label
_atom_site_type_symbol
_atom_site_fract_x
_atom_site_fract_y
_atom_site_fract_z
_atom_site_charge
Pt	Pt	0.00288 0.26061 0.46287 0.29000
N 	N 	0.50820 0.58950 0.38400 -0.26100
N 	N 	0.69370 0.41890 0.46100 -0.24800
N 	N 	0.31100 0.09990 0.48990 -0.26000
N 	N 	0.68990 0.10050 0.48610 -0.25900
N 	N 	0.49670 0.99320 0.63000 -0.23900
N 	N 	0.31250 0.41850 0.46250 -0.24700
C 	C 	0.51470 0.55380 0.30680 0.10100
H 	H 	0.51820 0.48610 0.30910 -0.02000
C 	C 	0.51630 0.61220 0.22700 -0.18100
H 	H 	0.52020 0.58440 0.17620 0.09400
C 	C 	0.51210 0.71490 0.22140 0.13000
C 	C 	0.50750 0.75190 0.30020 -0.18500
H 	H 	0.50600 0.81940 0.29930 0.11900
C 	C 	0.50520 0.68900 0.37880 0.10200
H 	H 	0.50150 0.71520 0.43050 -0.01800
C 	C 	0.51100 0.77830 0.13750 -0.05500
C 	C 	0.50750 0.82610 0.06600 0.02600
C 	C 	0.50150 0.87630 0.98150 0.01800
C 	C 	0.80820 0.36320 0.45490 -0.01100
C 	C 	0.65520 0.98550 0.67380 0.10100
H 	H 	0.76690 0.99440 0.64160 -0.00300
C 	C 	0.65870 0.96500 0.76430 -0.16900
H 	H 	0.77070 0.96150 0.79200 0.10000
C 	C 	0.49350 0.94970 0.81360 0.12800
C 	C 	0.32980 0.96320 0.77000 -0.16600
H 	H 	0.21700 0.95790 0.80140 0.09900
C 	C 	0.33590 0.98510 0.67810 0.09700
H 	H 	0.22550 0.99430 0.64930 -0.00200
C 	C 	0.49710 0.91510 0.90660 -0.04600
C 	C 	0.19660 0.15800 0.47990 -0.02400
C 	C 	0.80550 0.15850 0.47720 -0.02400
C 	C 	0.19650 0.36280 0.45700 -0.01500
Pt	Pt	0.99712 0.73939 0.53713 0.29800
N 	N 	0.49180 0.41050 0.61600 -0.25700
N 	N 	0.30630 0.58110 0.53900 -0.24900
N 	N 	0.68900 0.90010 0.51010 -0.22500
N 	N 	0.31010 0.89950 0.51390 -0.22500
N 	N 	0.50330 0.00680 0.37000 -0.27000
N 	N 	0.68750 0.58150 0.53750 -0.24700
C 	C 	0.48530 0.44620 0.69320 0.09100
H 	H 	0.48180 0.51390 0.69090 -0.01800
C 	C 	0.48370 0.38780 0.77300 -0.17300
H 	H 	0.47980 0.41560 0.82380 0.08900
C 	C 	0.48790 0.28510 0.77860 0.10600
C 	C 	0.49250 0.24810 0.69980 -0.17300
H 	H 	0.49400 0.18060 0.70070 0.07300
C 	C 	0.49480 0.31100 0.62120 0.08300
H 	H 	0.49850 0.28480 0.56950 -0.02000
C 	C 	0.48900 0.22170 0.86250 -0.06900
C 	C 	0.49250 0.17390 0.93400 -0.01000
C 	C 	0.49850 0.12370 0.01850 -0.00100
C 	C 	0.19180 0.63680 0.54510 -0.00900
C 	C 	0.34480 0.01450 0.32620 0.08200
H 	H 	0.23310 0.00560 0.35840 -0.03300
C 	C 	0.34130 0.03500 0.23570 -0.18300
H 	H 	0.22930 0.03850 0.20800 0.08100
C 	C 	0.50650 0.05030 0.18640 0.11000
C 	C 	0.67020 0.03680 0.23000 -0.18000
H 	H 	0.78300 0.04210 0.19860 0.08000
C 	C 	0.66410 0.01490 0.32190 0.07700
H 	H 	0.77450 0.00570 0.35070 -0.03100
C 	C 	0.50290 0.08490 0.09340 -0.07700
C 	C 	0.80340 0.84200 0.52010 -0.00100
C 	C 	0.19450 0.84150 0.52280 0.00000
C 	C 	0.80350 0.63720 0.54300 -0.01300
Fe	Fe	0.50000 0.50000 0.50000 1.18100
Fe	Fe	0.50000 0.00000 0.50000 1.14100
