data_crystal

_cell_length_a 7.51740
_cell_length_b 14.36760
_cell_length_c 16.35000
_cell_angle_alpha 76.83100
_cell_angle_beta  84.28200
_cell_angle_gamma 89.96500

_symmetry_space_group_name_	'P 1'
_symmetry_space_group_name_H-M	'P 1'

loop_
_symmetry_equiv_pos_as_xyz
  x,y,z

loop_
_atom_site_label
_atom_site_type_symbol
_atom_site_fract_x
_atom_site_fract_y
_atom_site_fract_z
_atom_site_charge
Pt	Pt	0.49365 0.23890 0.03256 0.27000
N 	N 	0.02000 0.10040 0.87620 -0.20200
N 	N 	0.19100 0.08650 0.03530 -0.27400
N 	N 	0.79900 0.39070 0.02010 -0.23500
N 	N 	0.20400 0.39790 0.00700 -0.26300
N 	N 	0.99300 0.47600 0.13740 -0.20200
N 	N 	0.78800 0.08230 0.03870 -0.24500
C 	C 	0.04300 0.06570 0.80920 0.06700
H 	H 	0.05380 0.00020 0.81450 -0.03800
C 	C 	0.05300 0.12830 0.72790 -0.14000
H 	H 	0.07440 0.10340 0.68020 0.06300
C 	C 	0.03000 0.22850 0.71830 0.07200
C 	C 	0.01300 0.26170 0.79160 -0.08300
H 	H 	0.00570 0.32690 0.78900 0.05700
C 	C 	0.00600 0.19760 0.86820 -0.05500
H 	H 	0.99120 0.22090 0.91700 0.12300
C 	C 	0.03100 0.29300 0.63510 -0.07400
C 	C 	0.01600 0.33400 0.56340 0.02900
C 	C 	0.30100 0.14220 0.03750 -0.07700
C 	C 	0.68800 0.33640 0.02590 -0.04400
C 	C 	0.31000 0.34060 0.01810 -0.06200
C 	C 	0.68000 0.13830 0.04120 -0.05700
C 	C 	0.14800 0.48700 0.17190 0.00400
H 	H 	0.25250 0.50650 0.13650 -0.02200
C 	C 	0.15300 0.46800 0.26170 -0.20500
H 	H 	0.25800 0.47540 0.28540 0.08200
C 	C 	0.99000 0.43600 0.31320 0.12400
C 	C 	0.83700 0.43200 0.27730 -0.15800
H 	H 	0.72930 0.41690 0.31130 0.08000
C 	C 	0.83800 0.45100 0.18750 0.07400
H 	H 	0.73250 0.44710 0.16350 -0.02500
C 	C 	0.99500 0.40700 0.40450 0.05600
C 	C 	0.00600 0.38140 0.47770 -0.12200
Pt	Pt	0.50635 0.76110 0.96744 0.32600
N 	N 	0.98000 0.89960 0.12380 -0.25600
N 	N 	0.80900 0.91350 0.96470 -0.15700
N 	N 	0.20100 0.60930 0.97990 -0.20000
N 	N 	0.79600 0.60210 0.99300 -0.17600
N 	N 	0.00700 0.52400 0.86260 -0.24200
N 	N 	0.21200 0.91770 0.96130 -0.17900
C 	C 	0.95700 0.93430 0.19080 0.11400
H 	H 	0.94620 0.99980 0.18550 0.00100
C 	C 	0.94700 0.87170 0.27210 -0.18300
H 	H 	0.92560 0.89660 0.31980 0.11000
C 	C 	0.97000 0.77150 0.28170 0.14800
C 	C 	0.98700 0.73830 0.20840 -0.26600
H 	H 	0.99430 0.67310 0.21100 0.13100
C 	C 	0.99400 0.80240 0.13180 0.23600
H 	H 	0.00880 0.77910 0.08300 -0.16000
C 	C 	0.96900 0.70700 0.36490 -0.04100
C 	C 	0.98400 0.66600 0.43660 -0.01600
C 	C 	0.69900 0.85780 0.96250 0.03000
C 	C 	0.31200 0.66360 0.97410 0.01600
C 	C 	0.69000 0.65940 0.98190 0.02400
C 	C 	0.32000 0.86170 0.95880 0.02000
C 	C 	0.85200 0.51300 0.82810 0.11100
H 	H 	0.74750 0.49350 0.86350 0.00600
C 	C 	0.84700 0.53200 0.73830 -0.09300
H 	H 	0.74200 0.52460 0.71460 0.08100
C 	C 	0.01000 0.56400 0.68680 0.08400
C 	C 	0.16300 0.56800 0.72270 -0.15800
H 	H 	0.27070 0.58310 0.68870 0.09000
C 	C 	0.16200 0.54900 0.81250 0.07000
H 	H 	0.26750 0.55290 0.83650 0.00300
C 	C 	0.00500 0.59300 0.59550 -0.16300
C 	C 	0.99400 0.61860 0.52230 0.13000
Fe	Fe	-0.00000 0.50000 -0.00000 1.03500
Fe	Fe	-0.00000 0.00000 -0.00000 1.00600
