data_crystal

_cell_length_a 7.48720
_cell_length_b 14.30240
_cell_length_c 15.02030
_cell_angle_alpha 86.39300
_cell_angle_beta  84.50200
_cell_angle_gamma 89.93600

_symmetry_space_group_name_	'P 1'
_symmetry_space_group_name_H-M	'P 1'

loop_
_symmetry_equiv_pos_as_xyz
  x,y,z

loop_
_atom_site_label
_atom_site_type_symbol
_atom_site_fract_x
_atom_site_fract_y
_atom_site_fract_z
_atom_site_charge
Pt	Pt	0.00681 0.25891 0.46230 0.29600
N 	N 	0.51860 0.59410 0.37790 -0.21800
N 	N 	0.71660 0.41470 0.44360 -0.22300
N 	N 	0.48800 0.00070 0.64900 -0.28500
N 	N 	0.29530 0.10650 0.49690 -0.23500
N 	N 	0.70600 0.10540 0.48710 -0.23700
N 	N 	0.30630 0.41330 0.44840 -0.22700
C 	C 	0.53200 0.55270 0.29240 0.01200
C 	C 	0.53500 0.61340 0.21810 -0.01700
C 	C 	0.52500 0.71010 0.22100 0.01500
C 	C 	0.52400 0.74700 0.30350 -0.01700
C 	C 	0.51700 0.68680 0.37980 0.02400
C 	C 	0.52800 0.76600 0.14190 -0.00400
C 	C 	0.51400 0.81480 0.07090 0.01100
C 	C 	0.49700 0.86800 0.99640 0.00500
C 	C 	0.82250 0.35730 0.44560 -0.02200
C 	C 	0.63800 0.99080 0.68890 0.09100
C 	C 	0.63600 0.96620 0.78050 -0.03900
C 	C 	0.48700 0.95200 0.83100 0.04200
C 	C 	0.33700 0.95940 0.79580 -0.03200
C 	C 	0.33000 0.99150 0.70080 0.08500
C 	C 	0.49300 0.91100 0.92500 -0.00200
C 	C 	0.19260 0.16260 0.48390 -0.02400
C 	C 	0.81350 0.16250 0.47960 -0.02500
C 	C 	0.19790 0.35710 0.44850 -0.02000
Pt	Pt	0.99319 0.74109 0.53770 0.30200
N 	N 	0.48140 0.40590 0.62210 -0.21800
N 	N 	0.28340 0.58530 0.55640 -0.22200
N 	N 	0.51200 0.99930 0.35100 -0.14300
N 	N 	0.70470 0.89350 0.50310 -0.20900
N 	N 	0.29400 0.89460 0.51290 -0.21100
N 	N 	0.69370 0.58670 0.55160 -0.22600
C 	C 	0.46800 0.44730 0.70760 0.01200
C 	C 	0.46500 0.38660 0.78190 -0.02300
C 	C 	0.47500 0.28990 0.77900 0.01700
C 	C 	0.47600 0.25300 0.69650 -0.04600
C 	C 	0.48300 0.31320 0.62020 0.02400
C 	C 	0.47200 0.23400 0.85810 -0.02200
C 	C 	0.48600 0.18520 0.92910 -0.01400
C 	C 	0.50300 0.13200 0.00360 -0.00800
C 	C 	0.17750 0.64270 0.55440 -0.02000
C 	C 	0.36200 0.00920 0.31110 -0.03200
C 	C 	0.36400 0.03380 0.21950 -0.02200
C 	C 	0.51300 0.04800 0.16900 0.00300
C 	C 	0.66300 0.04060 0.20420 -0.02000
C 	C 	0.67000 0.00850 0.29920 -0.03200
C 	C 	0.50700 0.08900 0.07500 -0.02300
C 	C 	0.80740 0.83740 0.51610 -0.00800
C 	C 	0.18650 0.83750 0.52040 -0.00800
C 	C 	0.80210 0.64290 0.55150 -0.01800
Fe	Fe	0.50000 0.50000 0.50000 1.12200
Fe	Fe	0.50000 0.00000 0.50000 1.09100
