data_crystal

_cell_length_a 14.99270
_cell_length_b 17.23210
_cell_length_c 24.79800
_cell_angle_alpha 90.00000
_cell_angle_beta  90.00000
_cell_angle_gamma 90.00000

_symmetry_space_group_name_	'P 1'
_symmetry_space_group_name_H-M	'P 1'

loop_
_symmetry_equiv_pos_as_xyz
  x,y,z

loop_
_atom_site_label
_atom_site_type_symbol
_atom_site_fract_x
_atom_site_fract_y
_atom_site_fract_z
_atom_site_charge
O 	O 	0.85710 0.21670 0.44174 -0.39700
O 	O 	0.30920 0.03270 0.06131 -0.45200
O 	O 	0.24650 0.14850 0.05876 -0.46300
C 	C 	0.07560 0.02310 0.20663 0.15500
C 	C 	0.97610 0.06680 0.28504 0.08300
C 	C 	0.19320 0.06220 0.12290 -0.16100
C 	C 	0.14870 0.97730 0.19560 -0.20400
H 	H 	0.15920 0.93340 0.21650 0.10300
C 	C 	0.12350 0.10870 0.13500 0.11400
H 	H 	0.11570 0.15480 0.11610 0.00100
C 	C 	0.20690 0.99530 0.15390 0.08600
H 	H 	0.25500 0.96300 0.14660 0.01000
C 	C 	0.06330 0.08880 0.17500 -0.19000
H 	H 	0.01370 0.12010 0.18090 0.10400
O 	O 	0.97260 0.28840 0.41590 -0.25500
C 	C 	0.89810 0.05990 0.31630 -0.14700
H 	H 	0.85790 0.01990 0.30960 0.09000
C 	C 	0.88140 0.11320 0.35720 0.07500
H 	H 	0.83010 0.10860 0.37810 0.02200
C 	C 	0.25610 0.08320 0.07750 0.44100
C 	C 	0.94060 0.17280 0.36700 -0.15300
C 	C 	0.03180 0.12760 0.29480 -0.14600
H 	H 	0.08260 0.13400 0.27370 0.08900
C 	C 	0.01380 0.17940 0.33520 0.10500
H 	H 	0.05300 0.22040 0.34100 0.01900
C 	C 	0.91990 0.22940 0.41230 0.36500
O 	O 	0.14290 0.78330 0.44174 -0.39500
O 	O 	0.69080 0.96730 0.06131 -0.47000
O 	O 	0.75350 0.85150 0.05876 -0.47000
C 	C 	0.92440 0.97690 0.20663 0.07000
C 	C 	0.02390 0.93320 0.28504 0.12100
C 	C 	0.80680 0.93780 0.12290 -0.19500
C 	C 	0.85130 0.02270 0.19560 -0.14600
H 	H 	0.84080 0.06660 0.21650 0.08200
C 	C 	0.87650 0.89130 0.13500 0.10100
H 	H 	0.88430 0.84520 0.11610 -0.00200
C 	C 	0.79310 0.00470 0.15390 0.10700
H 	H 	0.74500 0.03700 0.14660 0.01100
C 	C 	0.93670 0.91120 0.17500 -0.16800
H 	H 	0.98630 0.87990 0.18090 0.08100
O 	O 	0.02740 0.71160 0.41590 -0.23900
C 	C 	0.10190 0.94010 0.31630 -0.15200
H 	H 	0.14210 0.98010 0.30960 0.08300
C 	C 	0.11860 0.88680 0.35720 0.06200
H 	H 	0.16990 0.89140 0.37810 0.02400
C 	C 	0.74390 0.91680 0.07750 0.44700
C 	C 	0.05940 0.82720 0.36700 -0.10600
C 	C 	0.96820 0.87240 0.29480 -0.18400
H 	H 	0.91740 0.86600 0.27370 0.09300
C 	C 	0.98620 0.82060 0.33520 0.05500
H 	H 	0.94700 0.77960 0.34100 0.02200
C 	C 	0.08010 0.77060 0.41230 0.35200
O 	O 	0.64290 0.71670 0.05826 -0.41900
O 	O 	0.19080 0.53270 0.43869 -0.44600
O 	O 	0.25350 0.64850 0.44124 -0.45300
C 	C 	0.42440 0.52310 0.29337 0.15600
C 	C 	0.52390 0.56680 0.21496 0.15100
C 	C 	0.30680 0.56220 0.37710 -0.18500
C 	C 	0.35130 0.47730 0.30440 -0.20400
H 	H 	0.34080 0.43340 0.28350 0.10500
C 	C 	0.37650 0.60870 0.36500 0.12700
H 	H 	0.38430 0.65480 0.38390 -0.00000
C 	C 	0.29310 0.49530 0.34610 0.11700
H 	H 	0.24500 0.46300 0.35340 0.00900
C 	C 	0.43670 0.58880 0.32500 -0.20600
H 	H 	0.48630 0.62010 0.31910 0.10500
O 	O 	0.52740 0.78840 0.08410 -0.26100
C 	C 	0.60190 0.55990 0.18370 -0.19000
H 	H 	0.64210 0.51990 0.19040 0.09600
C 	C 	0.61860 0.61320 0.14280 0.09700
H 	H 	0.66990 0.60860 0.12190 0.00400
C 	C 	0.24390 0.58320 0.42250 0.44900
C 	C 	0.55940 0.67280 0.13300 -0.16100
C 	C 	0.46820 0.62760 0.20520 -0.20800
H 	H 	0.41740 0.63400 0.22630 0.10500
C 	C 	0.48620 0.67940 0.16480 0.11300
H 	H 	0.44700 0.72040 0.15900 0.00500
C 	C 	0.58010 0.72940 0.08770 0.36800
O 	O 	0.35710 0.28330 0.05826 -0.41700
O 	O 	0.80920 0.46730 0.43869 -0.45200
O 	O 	0.74650 0.35150 0.44124 -0.45200
C 	C 	0.57560 0.47690 0.29337 0.15700
C 	C 	0.47610 0.43320 0.21496 0.15000
C 	C 	0.69320 0.43780 0.37710 -0.18800
C 	C 	0.64870 0.52270 0.30440 -0.20600
H 	H 	0.65920 0.56660 0.28350 0.10300
C 	C 	0.62350 0.39130 0.36500 0.12800
H 	H 	0.61570 0.34520 0.38390 0.00100
C 	C 	0.70690 0.50470 0.34610 0.11700
H 	H 	0.75500 0.53700 0.35340 0.00400
C 	C 	0.56330 0.41120 0.32500 -0.20700
H 	H 	0.51370 0.37990 0.31910 0.10700
O 	O 	0.47260 0.21160 0.08410 -0.25700
C 	C 	0.39810 0.44010 0.18370 -0.18800
H 	H 	0.35790 0.48010 0.19040 0.09700
C 	C 	0.38140 0.38680 0.14280 0.09600
H 	H 	0.33010 0.39140 0.12190 0.00700
C 	C 	0.75610 0.41680 0.42250 0.44900
C 	C 	0.44060 0.32720 0.13300 -0.15800
C 	C 	0.53180 0.37240 0.20520 -0.20600
H 	H 	0.58260 0.36600 0.22630 0.10400
C 	C 	0.51380 0.32060 0.16480 0.11100
H 	H 	0.55300 0.27960 0.15900 0.00700
C 	C 	0.41990 0.27060 0.08770 0.36700
O 	O 	0.14290 0.78330 0.55826 -0.39500
O 	O 	0.69080 0.96730 0.93869 -0.41800
O 	O 	0.75350 0.85150 0.94124 -0.41600
C 	C 	0.92440 0.97690 0.79337 0.06200
C 	C 	0.02390 0.93320 0.71496 0.11800
C 	C 	0.80680 0.93780 0.87710 -0.16700
C 	C 	0.85130 0.02270 0.80440 -0.13000
H 	H 	0.84080 0.06660 0.78350 0.08100
C 	C 	0.87650 0.89130 0.86500 0.08800
H 	H 	0.88430 0.84520 0.88390 0.02000
C 	C 	0.79310 0.00470 0.84610 0.09500
H 	H 	0.74500 0.03700 0.85340 0.02500
C 	C 	0.93670 0.91120 0.82500 -0.15000
H 	H 	0.98630 0.87990 0.81910 0.08200
O 	O 	0.02740 0.71160 0.58410 -0.23800
C 	C 	0.10190 0.94010 0.68370 -0.14900
H 	H 	0.14210 0.98010 0.69040 0.08200
C 	C 	0.11860 0.88680 0.64280 0.06000
H 	H 	0.16990 0.89140 0.62190 0.02500
C 	C 	0.74390 0.91680 0.92250 0.43600
C 	C 	0.05940 0.82720 0.63300 -0.10300
C 	C 	0.96820 0.87240 0.70520 -0.18000
H 	H 	0.91740 0.86600 0.72630 0.09300
C 	C 	0.98620 0.82060 0.66480 0.05300
H 	H 	0.94700 0.77960 0.65900 0.02400
C 	C 	0.08010 0.77060 0.58770 0.35200
O 	O 	0.85710 0.21670 0.55826 -0.39800
O 	O 	0.30920 0.03270 0.93869 -0.40100
O 	O 	0.24650 0.14850 0.94124 -0.41000
C 	C 	0.07560 0.02310 0.79337 0.14600
C 	C 	0.97610 0.06680 0.71496 0.07900
C 	C 	0.19320 0.06220 0.87710 -0.13400
C 	C 	0.14870 0.97730 0.80440 -0.18900
H 	H 	0.15920 0.93340 0.78350 0.10100
C 	C 	0.12350 0.10870 0.86500 0.10000
H 	H 	0.11570 0.15480 0.88390 0.02300
C 	C 	0.20690 0.99530 0.84610 0.07500
H 	H 	0.25500 0.96300 0.85340 0.02300
C 	C 	0.06330 0.08880 0.82500 -0.17200
H 	H 	0.01370 0.12010 0.81910 0.10600
O 	O 	0.97260 0.28840 0.58410 -0.25400
C 	C 	0.89810 0.05990 0.68370 -0.14400
H 	H 	0.85790 0.01990 0.69040 0.08900
C 	C 	0.88140 0.11320 0.64280 0.07300
H 	H 	0.83010 0.10860 0.62190 0.02300
C 	C 	0.25610 0.08320 0.92250 0.43000
C 	C 	0.94060 0.17280 0.63300 -0.15100
C 	C 	0.03180 0.12760 0.70520 -0.14200
H 	H 	0.08260 0.13400 0.72630 0.08800
C 	C 	0.01380 0.17940 0.66480 0.10300
H 	H 	0.05300 0.22040 0.65900 0.02100
C 	C 	0.91990 0.22940 0.58770 0.36400
O 	O 	0.35710 0.28330 0.94174 -0.35900
O 	O 	0.80920 0.46730 0.56131 -0.45100
O 	O 	0.74650 0.35150 0.55876 -0.45200
C 	C 	0.57560 0.47690 0.70663 0.15400
C 	C 	0.47610 0.43320 0.78504 0.14200
C 	C 	0.69320 0.43780 0.62290 -0.18600
C 	C 	0.64870 0.52270 0.69560 -0.20200
H 	H 	0.65920 0.56660 0.71650 0.10300
C 	C 	0.62350 0.39130 0.63500 0.12700
H 	H 	0.61570 0.34520 0.61610 0.00200
C 	C 	0.70690 0.50470 0.65390 0.11600
H 	H 	0.75500 0.53700 0.64660 0.00600
C 	C 	0.56330 0.41120 0.67500 -0.20400
H 	H 	0.51370 0.37990 0.68090 0.10700
O 	O 	0.47260 0.21160 0.91590 -0.21900
C 	C 	0.39810 0.44010 0.81630 -0.17000
H 	H 	0.35790 0.48010 0.80960 0.09900
C 	C 	0.38140 0.38680 0.85720 0.08400
H 	H 	0.33010 0.39140 0.87810 0.02900
C 	C 	0.75610 0.41680 0.57750 0.44900
C 	C 	0.44060 0.32720 0.86700 -0.13000
C 	C 	0.53180 0.37240 0.79480 -0.18800
H 	H 	0.58260 0.36600 0.77370 0.10200
C 	C 	0.51380 0.32060 0.83520 0.09800
H 	H 	0.55300 0.27960 0.84100 0.02100
C 	C 	0.41990 0.27060 0.91230 0.35700
O 	O 	0.64290 0.71670 0.94174 -0.36100
O 	O 	0.19080 0.53270 0.56131 -0.44500
O 	O 	0.25350 0.64850 0.55876 -0.45200
C 	C 	0.42440 0.52310 0.70663 0.15400
C 	C 	0.52390 0.56680 0.78504 0.14300
C 	C 	0.30680 0.56220 0.62290 -0.18300
C 	C 	0.35130 0.47730 0.69560 -0.20000
H 	H 	0.34080 0.43340 0.71650 0.10500
C 	C 	0.37650 0.60870 0.63500 0.12600
H 	H 	0.38430 0.65480 0.61610 0.00100
C 	C 	0.29310 0.49530 0.65390 0.11600
H 	H 	0.24500 0.46300 0.64660 0.01100
C 	C 	0.43670 0.58880 0.67500 -0.20300
H 	H 	0.48630 0.62010 0.68090 0.10400
O 	O 	0.52740 0.78840 0.91590 -0.22300
C 	C 	0.60190 0.55990 0.81630 -0.17200
H 	H 	0.64210 0.51990 0.80960 0.09800
C 	C 	0.61860 0.61320 0.85720 0.08500
H 	H 	0.66990 0.60860 0.87810 0.02600
C 	C 	0.24390 0.58320 0.57750 0.44900
C 	C 	0.55940 0.67280 0.86700 -0.13300
C 	C 	0.46820 0.62760 0.79480 -0.19100
H 	H 	0.41740 0.63400 0.77370 0.10300
C 	C 	0.48620 0.67940 0.83520 0.09900
H 	H 	0.44700 0.72040 0.84100 0.01900
C 	C 	0.58010 0.72940 0.91230 0.35800
Ni	Ni	0.30544 0.21086 -0.00000 1.09500
Ni	Ni	0.39507 0.02422 -0.00000 1.08000
O 	O 	0.42070 0.14060 -0.00000 -0.40700
Ni	Ni	0.69456 0.78914 -0.00000 1.09400
Ni	Ni	0.60493 0.97578 -0.00000 1.07100
O 	O 	0.57930 0.85940 -0.00000 -0.41100
Ni	Ni	0.19456 0.71086 0.50000 1.12300
Ni	Ni	0.10493 0.52422 0.50000 1.10600
O 	O 	0.07930 0.64060 0.50000 -0.36700
Ni	Ni	0.80544 0.28914 0.50000 1.12400
Ni	Ni	0.89507 0.47578 0.50000 1.09900
O 	O 	0.92070 0.35940 0.50000 -0.37400
C 	C 	0.00000 0.00000 0.24590 -0.09300
C 	C 	0.50000 0.50000 0.25410 -0.17800
C 	C 	0.00000 0.00000 0.75410 -0.08600
C 	C 	0.50000 0.50000 0.74590 -0.17100
O 	O 	0.50000 0.00000 0.05620 -0.37000
O 	O 	0.00000 0.50000 0.44380 -0.35900
O 	O 	0.50000 0.00000 0.94380 -0.31300
O 	O 	0.00000 0.50000 0.55620 -0.35700
