data_crystal

_cell_length_a 15.09270
_cell_length_b 15.09270
_cell_length_c 19.25190
_cell_angle_alpha 90.00000
_cell_angle_beta  90.00000
_cell_angle_gamma 90.00000

_symmetry_space_group_name_	'P 1'
_symmetry_space_group_name_H-M	'P 1'

loop_
_symmetry_equiv_pos_as_xyz
  x,y,z

loop_
_atom_site_label
_atom_site_type_symbol
_atom_site_fract_x
_atom_site_fract_y
_atom_site_fract_z
_atom_site_charge
O 	O 	0.05366 0.87649 0.05769 -0.42000
C 	C 	0.08970 0.00840 0.20950 -0.01800
C 	C 	0.16990 0.73390 0.93761 0.03300
H 	H 	0.14700 0.75490 0.89530 0.04100
C 	C 	0.03990 0.08210 0.20780 0.22700
C 	C 	0.94660 0.07660 0.21070 -0.04100
O 	O 	0.55366 0.37649 0.55769 -0.44100
C 	C 	0.58970 0.50840 0.70950 -0.01100
C 	C 	0.66990 0.23390 0.43761 -0.01700
H 	H 	0.64700 0.25490 0.39530 0.05100
C 	C 	0.53990 0.58210 0.70780 0.00900
C 	C 	0.44660 0.57660 0.71070 0.01900
O 	O 	0.94634 0.12351 0.05769 -0.40400
C 	C 	0.91030 0.99160 0.20950 -0.01000
C 	C 	0.83010 0.26610 0.93761 0.02700
H 	H 	0.85300 0.24510 0.89530 0.05200
C 	C 	0.96010 0.91790 0.20780 -0.19800
C 	C 	0.05340 0.92340 0.21070 0.15200
O 	O 	0.44634 0.62351 0.55769 -0.43900
C 	C 	0.41030 0.49160 0.70950 -0.01400
C 	C 	0.33010 0.76610 0.43761 -0.00900
H 	H 	0.35300 0.74510 0.39530 0.05400
C 	C 	0.46010 0.41790 0.70780 0.00500
C 	C 	0.55340 0.42340 0.71070 0.01900
O 	O 	0.12351 0.05366 0.05769 -0.46400
C 	C 	0.99160 0.08970 0.20950 0.10900
C 	C 	0.26610 0.16990 0.93761 0.03000
H 	H 	0.24510 0.14700 0.89530 0.03500
C 	C 	0.91790 0.03990 0.20780 -0.10900
C 	C 	0.92340 0.94660 0.21070 0.39800
O 	O 	0.62351 0.55366 0.55769 -0.43700
C 	C 	0.49160 0.58970 0.70950 -0.01100
C 	C 	0.76610 0.66990 0.43761 -0.00400
H 	H 	0.74510 0.64700 0.39530 0.05700
C 	C 	0.41790 0.53990 0.70780 0.00600
C 	C 	0.42340 0.44660 0.71070 0.01800
O 	O 	0.87649 0.94634 0.05769 -0.36800
C 	C 	0.00840 0.91030 0.20950 -0.14600
C 	C 	0.73390 0.83010 0.93761 0.03100
H 	H 	0.75490 0.85300 0.89530 0.05700
C 	C 	0.08210 0.96010 0.20780 0.12000
C 	C 	0.07660 0.05340 0.21070 -0.32500
O 	O 	0.37649 0.44634 0.55769 -0.44300
C 	C 	0.50840 0.41030 0.70950 -0.01500
C 	C 	0.23390 0.33010 0.43761 -0.02400
H 	H 	0.25490 0.35300 0.39530 0.04900
C 	C 	0.58210 0.46010 0.70780 0.00900
C 	C 	0.57660 0.55340 0.71070 0.02000
O 	O 	0.94634 0.87649 0.44231 -0.37300
C 	C 	0.91030 0.00840 0.29050 -0.14600
C 	C 	0.83010 0.73390 0.56239 -0.01700
H 	H 	0.85300 0.75490 0.60470 0.06600
C 	C 	0.96010 0.08210 0.29220 0.12100
C 	C 	0.05340 0.07660 0.28930 -0.32500
O 	O 	0.44634 0.37649 0.94231 -0.39700
C 	C 	0.41030 0.50840 0.79050 -0.01400
C 	C 	0.33010 0.23390 0.06239 -0.02100
H 	H 	0.35300 0.25490 0.10470 0.04700
C 	C 	0.46010 0.58210 0.79220 0.00900
C 	C 	0.55340 0.57660 0.78930 0.02000
O 	O 	0.05366 0.12351 0.44231 -0.47100
C 	C 	0.08970 0.99160 0.29050 0.11000
C 	C 	0.16990 0.26610 0.56239 -0.01800
H 	H 	0.14700 0.24510 0.60470 0.04400
C 	C 	0.03990 0.91790 0.29220 -0.10900
C 	C 	0.94660 0.92340 0.28930 0.40000
O 	O 	0.55366 0.62351 0.94231 -0.39100
C 	C 	0.58970 0.49160 0.79050 -0.01000
C 	C 	0.66990 0.76610 0.06239 -0.00100
H 	H 	0.64700 0.74510 0.10470 0.05400
C 	C 	0.53990 0.41790 0.79220 0.00600
C 	C 	0.44660 0.42340 0.78930 0.01900
O 	O 	0.87649 0.05366 0.44231 -0.42500
C 	C 	0.00840 0.08970 0.29050 -0.01600
C 	C 	0.73390 0.16990 0.56239 -0.01500
H 	H 	0.75490 0.14700 0.60470 0.05000
C 	C 	0.08210 0.03990 0.29220 0.22700
C 	C 	0.07660 0.94660 0.28930 -0.04000
O 	O 	0.37649 0.55366 0.94231 -0.39500
C 	C 	0.50840 0.58970 0.79050 -0.01100
C 	C 	0.23390 0.66990 0.06239 -0.01400
H 	H 	0.25490 0.64700 0.10470 0.04900
C 	C 	0.58210 0.53990 0.79220 0.00900
C 	C 	0.57660 0.44660 0.78930 0.01900
O 	O 	0.12351 0.94634 0.44231 -0.40900
C 	C 	0.99160 0.91030 0.29050 -0.01000
C 	C 	0.26610 0.83010 0.56239 -0.02100
H 	H 	0.24510 0.85300 0.60470 0.06100
C 	C 	0.91790 0.96010 0.29220 -0.19800
C 	C 	0.92340 0.05340 0.28930 0.15200
O 	O 	0.62351 0.44634 0.94231 -0.39300
C 	C 	0.49160 0.41030 0.79050 -0.01400
C 	C 	0.76610 0.33010 0.06239 -0.00600
H 	H 	0.74510 0.35300 0.10470 0.05200
C 	C 	0.41790 0.46010 0.79220 0.00500
C 	C 	0.42340 0.55340 0.78930 0.02000
O 	O 	0.94634 0.12351 0.94231 -0.36400
C 	C 	0.91030 0.99160 0.79050 -0.00800
C 	C 	0.83010 0.26610 0.06239 -0.01900
H 	H 	0.85300 0.24510 0.10470 0.05800
C 	C 	0.96010 0.91790 0.79220 -0.19800
C 	C 	0.05340 0.92340 0.78930 0.15300
O 	O 	0.44634 0.62351 0.44231 -0.44000
C 	C 	0.41030 0.49160 0.29050 -0.01500
C 	C 	0.33010 0.76610 0.56239 -0.00900
H 	H 	0.35300 0.74510 0.60470 0.05500
C 	C 	0.46010 0.41790 0.29220 0.00500
C 	C 	0.55340 0.42340 0.28930 0.01900
O 	O 	0.05366 0.87649 0.94231 -0.38000
C 	C 	0.08970 0.00840 0.79050 -0.01500
C 	C 	0.16990 0.73390 0.06239 -0.01200
H 	H 	0.14700 0.75490 0.10470 0.04700
C 	C 	0.03990 0.08210 0.79220 0.22700
C 	C 	0.94660 0.07660 0.78930 -0.04000
O 	O 	0.55366 0.37649 0.44231 -0.44200
C 	C 	0.58970 0.50840 0.29050 -0.01200
C 	C 	0.66990 0.23390 0.56239 -0.01700
H 	H 	0.64700 0.25490 0.60470 0.05300
C 	C 	0.53990 0.58210 0.29220 0.00900
C 	C 	0.44660 0.57660 0.28930 0.01900
O 	O 	0.87649 0.94634 0.94231 -0.32800
C 	C 	0.00840 0.91030 0.79050 -0.14400
C 	C 	0.73390 0.83010 0.06239 -0.01500
H 	H 	0.75490 0.85300 0.10470 0.06200
C 	C 	0.08210 0.96010 0.79220 0.12000
C 	C 	0.07660 0.05340 0.78930 -0.32400
O 	O 	0.37649 0.44634 0.44231 -0.44400
C 	C 	0.50840 0.41030 0.29050 -0.01600
C 	C 	0.23390 0.33010 0.56239 -0.02300
H 	H 	0.25490 0.35300 0.60470 0.05000
C 	C 	0.58210 0.46010 0.29220 0.00800
C 	C 	0.57660 0.55340 0.28930 0.01900
O 	O 	0.12351 0.05366 0.94231 -0.42500
C 	C 	0.99160 0.08970 0.79050 0.11100
C 	C 	0.26610 0.16990 0.06239 -0.01500
H 	H 	0.24510 0.14700 0.10470 0.04100
C 	C 	0.91790 0.03990 0.79220 -0.10900
C 	C 	0.92340 0.94660 0.78930 0.39900
O 	O 	0.62351 0.55366 0.44231 -0.43800
C 	C 	0.49160 0.58970 0.29050 -0.01100
C 	C 	0.76610 0.66990 0.56239 -0.00300
H 	H 	0.74510 0.64700 0.60470 0.05800
C 	C 	0.41790 0.53990 0.29220 0.00500
C 	C 	0.42340 0.44660 0.28930 0.01800
O 	O 	0.05366 0.12351 0.55769 -0.47000
C 	C 	0.08970 0.99160 0.70950 0.11100
C 	C 	0.16990 0.26610 0.43761 -0.01800
H 	H 	0.14700 0.24510 0.39530 0.04300
C 	C 	0.03990 0.91790 0.70780 -0.10900
C 	C 	0.94660 0.92340 0.71070 0.40000
O 	O 	0.55366 0.62351 0.05769 -0.43100
C 	C 	0.58970 0.49160 0.20950 -0.01200
C 	C 	0.66990 0.76610 0.93761 0.04500
H 	H 	0.64700 0.74510 0.89530 0.04900
C 	C 	0.53990 0.41790 0.20780 0.00500
C 	C 	0.44660 0.42340 0.21070 0.01800
O 	O 	0.94634 0.87649 0.55769 -0.37300
C 	C 	0.91030 0.00840 0.70950 -0.14500
C 	C 	0.83010 0.73390 0.43761 -0.01700
H 	H 	0.85300 0.75490 0.39530 0.06400
C 	C 	0.96010 0.08210 0.70780 0.12100
C 	C 	0.05340 0.07660 0.71070 -0.32600
O 	O 	0.44634 0.37649 0.05769 -0.43800
C 	C 	0.41030 0.50840 0.20950 -0.01600
C 	C 	0.33010 0.23390 0.93761 0.02500
H 	H 	0.35300 0.25490 0.89530 0.04100
C 	C 	0.46010 0.58210 0.20780 0.00800
C 	C 	0.55340 0.57660 0.21070 0.01900
O 	O 	0.12351 0.94634 0.55769 -0.40900
C 	C 	0.99160 0.91030 0.70950 -0.00900
C 	C 	0.26610 0.83010 0.43761 -0.02100
H 	H 	0.24510 0.85300 0.39530 0.06000
C 	C 	0.91790 0.96010 0.70780 -0.19700
C 	C 	0.92340 0.05340 0.71070 0.15200
O 	O 	0.62351 0.44634 0.05769 -0.43400
C 	C 	0.49160 0.41030 0.20950 -0.01500
C 	C 	0.76610 0.33010 0.93761 0.04000
H 	H 	0.74510 0.35300 0.89530 0.04600
C 	C 	0.41790 0.46010 0.20780 0.00500
C 	C 	0.42340 0.55340 0.21070 0.01800
O 	O 	0.87649 0.05366 0.55769 -0.42500
C 	C 	0.00840 0.08970 0.70950 -0.01500
C 	C 	0.73390 0.16990 0.43761 -0.01500
H 	H 	0.75490 0.14700 0.39530 0.04900
C 	C 	0.08210 0.03990 0.70780 0.22700
C 	C 	0.07660 0.94660 0.71070 -0.04000
O 	O 	0.37649 0.55366 0.05769 -0.43600
C 	C 	0.50840 0.58970 0.20950 -0.01200
C 	C 	0.23390 0.66990 0.93761 0.03200
H 	H 	0.25490 0.64700 0.89530 0.04300
C 	C 	0.58210 0.53990 0.20780 0.00900
C 	C 	0.57660 0.44660 0.21070 0.01800
Fe	Fe	0.00000 0.00000 0.07292 1.07200
N 	N 	0.00000 -0.00000 0.18300 -0.29800
Fe	Fe	0.50000 0.50000 0.57292 1.15900
N 	N 	0.50000 0.50000 0.68300 -0.19800
Fe	Fe	-0.00000 -0.00000 0.42708 1.08000
N 	N 	-0.00000 0.00000 0.31700 -0.29900
Fe	Fe	0.50000 0.50000 0.92708 1.16400
N 	N 	0.50000 0.50000 0.81700 -0.19900
Fe	Fe	0.00000 0.00000 0.92708 1.08600
N 	N 	0.00000 -0.00000 0.81700 -0.30100
Fe	Fe	0.50000 0.50000 0.42708 1.15900
N 	N 	0.50000 0.50000 0.31700 -0.19700
Fe	Fe	0.00000 0.00000 0.57292 1.08000
N 	N 	0.00000 0.00000 0.68300 -0.30000
Fe	Fe	0.50000 0.50000 0.07292 1.14900
N 	N 	0.50000 0.50000 0.18300 -0.19700
C 	C 	0.07640 0.84620 -0.00000 0.31400
C 	C 	0.13840 0.76820 -0.00000 -0.11700
C 	C 	0.57640 0.34620 0.50000 0.37000
C 	C 	0.63840 0.26820 0.50000 -0.07400
C 	C 	0.92360 0.15380 -0.00000 0.30800
C 	C 	0.86160 0.23180 -0.00000 -0.10400
C 	C 	0.42360 0.65380 0.50000 0.37200
C 	C 	0.36160 0.73180 0.50000 -0.07400
C 	C 	0.15380 0.07640 -0.00000 0.31400
C 	C 	0.23180 0.13840 -0.00000 -0.13100
C 	C 	0.65380 0.57640 0.50000 0.37400
C 	C 	0.73180 0.63840 0.50000 -0.07100
C 	C 	0.84620 0.92360 -0.00000 0.30800
C 	C 	0.76820 0.86160 -0.00000 -0.09300
C 	C 	0.34620 0.42360 0.50000 0.36700
C 	C 	0.26820 0.36160 0.50000 -0.07600
C 	C 	0.92360 0.84620 0.50000 0.35900
C 	C 	0.86160 0.76820 0.50000 -0.05000
C 	C 	0.42360 0.34620 -0.00000 0.31600
C 	C 	0.36160 0.26820 -0.00000 -0.11900
C 	C 	0.07640 0.15380 0.50000 0.36400
C 	C 	0.13840 0.23180 0.50000 -0.08900
C 	C 	0.57640 0.65380 -0.00000 0.32200
C 	C 	0.63840 0.73180 -0.00000 -0.11500
C 	C 	0.84620 0.07640 0.50000 0.36400
C 	C 	0.76820 0.13840 0.50000 -0.07400
C 	C 	0.34620 0.57640 -0.00000 0.31800
C 	C 	0.26820 0.63840 -0.00000 -0.11700
C 	C 	0.15380 0.92360 0.50000 0.35800
C 	C 	0.23180 0.86160 0.50000 -0.06100
C 	C 	0.65380 0.42360 -0.00000 0.32000
C 	C 	0.73180 0.36160 -0.00000 -0.11800
