data_crystal

_cell_length_a 13.72490
_cell_length_b 13.72490
_cell_length_c 15.33160
_cell_angle_alpha 90.00000
_cell_angle_beta  90.00000
_cell_angle_gamma 120.00000

_symmetry_space_group_name_	'P 1'
_symmetry_space_group_name_H-M	'P 1'

loop_
_symmetry_equiv_pos_as_xyz
  x,y,z

loop_
_atom_site_label
_atom_site_type_symbol
_atom_site_fract_x
_atom_site_fract_y
_atom_site_fract_z
_atom_site_charge
Zn	Zn	0.24140 0.21390 0.09320 1.22200
P 	P 	0.02000 0.22550 0.10530 0.50400
O 	O 	0.13540 0.25410 0.13900 -0.46200
O 	O 	0.03080 0.29620 0.02520 -0.49900
O 	O 	0.95680 0.24440 0.17670 -0.45000
O 	O 	0.95330 0.09990 0.07860 -0.59600
Zn	Zn	0.90807 0.54723 0.42653 1.23900
P 	P 	0.68667 0.55883 0.43863 0.56300
O 	O 	0.80207 0.58743 0.47233 -0.43700
O 	O 	0.69747 0.62953 0.35853 -0.45300
O 	O 	0.62347 0.57773 0.51003 -0.47500
O 	O 	0.61997 0.43323 0.41193 -0.61000
Zn	Zn	0.57473 0.88057 0.75987 1.23400
P 	P 	0.35333 0.89217 0.77197 0.56300
O 	O 	0.46873 0.92077 0.80567 -0.43300
O 	O 	0.36413 0.96287 0.69187 -0.44400
O 	O 	0.29013 0.91107 0.84337 -0.46200
O 	O 	0.28663 0.76657 0.74527 -0.60800
Zn	Zn	0.78610 0.02750 0.09320 1.21500
P 	P 	0.77450 0.79450 0.10530 0.56100
O 	O 	0.74590 0.88130 0.13900 -0.43400
O 	O 	0.70380 0.73460 0.02520 -0.48500
O 	O 	0.75560 0.71240 0.17670 -0.47600
O 	O 	0.90010 0.85340 0.07860 -0.59800
Zn	Zn	0.45277 0.36083 0.42653 1.23100
P 	P 	0.44117 0.12783 0.43863 0.56400
O 	O 	0.41257 0.21463 0.47233 -0.45600
O 	O 	0.37047 0.06793 0.35853 -0.47400
O 	O 	0.42227 0.04573 0.51003 -0.50200
O 	O 	0.56677 0.18673 0.41193 -0.61300
Zn	Zn	0.11943 0.69417 0.75987 1.23200
P 	P 	0.10783 0.46117 0.77197 0.56300
O 	O 	0.07923 0.54797 0.80567 -0.45200
O 	O 	0.03713 0.40127 0.69187 -0.47600
O 	O 	0.08893 0.37907 0.84337 -0.47900
O 	O 	0.23343 0.52007 0.74527 -0.60900
Zn	Zn	0.97250 0.75860 0.09320 1.23200
P 	P 	0.20550 0.98000 0.10530 0.62700
O 	O 	0.11870 0.86460 0.13900 -0.47300
O 	O 	0.26540 0.96920 0.02520 -0.48000
O 	O 	0.28760 0.04320 0.17670 -0.52300
O 	O 	0.14660 0.04670 0.07860 -0.67200
Zn	Zn	0.63917 0.09193 0.42653 1.22500
P 	P 	0.87217 0.31333 0.43863 0.56300
O 	O 	0.78537 0.19793 0.47233 -0.45200
O 	O 	0.93207 0.30253 0.35853 -0.45000
O 	O 	0.95427 0.37653 0.51003 -0.45600
O 	O 	0.81327 0.38003 0.41193 -0.60700
Zn	Zn	0.30583 0.42527 0.75987 1.23200
P 	P 	0.53883 0.64667 0.77197 0.56300
O 	O 	0.45203 0.53127 0.80567 -0.44100
O 	O 	0.59873 0.63587 0.69187 -0.45300
O 	O 	0.62093 0.70987 0.84337 -0.46500
O 	O 	0.47993 0.71337 0.74527 -0.60700
Zn	Zn	0.75860 0.78610 0.90680 1.24200
P 	P 	0.98000 0.77450 0.89470 0.61900
O 	O 	0.86460 0.74590 0.86100 -0.43600
O 	O 	0.96920 0.70380 0.97480 -0.41900
O 	O 	0.04320 0.75560 0.82330 -0.50700
O 	O 	0.04670 0.90010 0.92140 -0.61200
Zn	Zn	0.42527 0.11943 0.24013 1.22900
P 	P 	0.64667 0.10783 0.22803 0.56400
O 	O 	0.53127 0.07923 0.19433 -0.46800
O 	O 	0.63587 0.03713 0.30813 -0.47400
O 	O 	0.70987 0.08893 0.15663 -0.49800
O 	O 	0.71337 0.23343 0.25473 -0.61300
Zn	Zn	0.09193 0.45277 0.57347 1.22400
P 	P 	0.31333 0.44117 0.56137 0.56400
O 	O 	0.19793 0.41257 0.52767 -0.46200
O 	O 	0.30253 0.37047 0.64147 -0.46400
O 	O 	0.37653 0.42227 0.48997 -0.48300
O 	O 	0.38003 0.56677 0.58807 -0.61100
Zn	Zn	0.21390 0.97250 0.90680 1.24700
P 	P 	0.22550 0.20550 0.89470 0.56500
O 	O 	0.25410 0.11870 0.86100 -0.46100
O 	O 	0.29620 0.26540 0.97480 -0.42800
O 	O 	0.24440 0.28760 0.82330 -0.48100
O 	O 	0.09990 0.14660 0.92140 -0.60800
Zn	Zn	0.88057 0.30583 0.24013 1.23200
P 	P 	0.89217 0.53883 0.22803 0.56300
O 	O 	0.92077 0.45203 0.19433 -0.44700
O 	O 	0.96287 0.59873 0.30813 -0.44100
O 	O 	0.91107 0.62093 0.15663 -0.47900
O 	O 	0.76657 0.47993 0.25473 -0.61200
Zn	Zn	0.54723 0.63917 0.57347 1.23200
P 	P 	0.55883 0.87217 0.56137 0.56300
O 	O 	0.58743 0.78537 0.52767 -0.44300
O 	O 	0.62953 0.93207 0.64147 -0.44400
O 	O 	0.57773 0.95427 0.48997 -0.45500
O 	O 	0.43323 0.81327 0.58807 -0.60800
Zn	Zn	0.02750 0.24140 0.90680 1.23200
P 	P 	0.79450 0.02000 0.89470 0.51500
O 	O 	0.88130 0.13540 0.86100 -0.42100
O 	O 	0.73460 0.03080 0.97480 -0.43000
O 	O 	0.71240 0.95680 0.82330 -0.44400
O 	O 	0.85340 0.95330 0.92140 -0.54700
Zn	Zn	0.69417 0.57473 0.24013 1.23100
P 	P 	0.46117 0.35333 0.22803 0.56300
O 	O 	0.54797 0.46873 0.19433 -0.45700
O 	O 	0.40127 0.36413 0.30813 -0.46400
O 	O 	0.37907 0.29013 0.15663 -0.49400
O 	O 	0.52007 0.28663 0.25473 -0.61400
Zn	Zn	0.36083 0.90807 0.57347 1.23800
P 	P 	0.12783 0.68667 0.56137 0.56400
O 	O 	0.21463 0.80207 0.52767 -0.44500
O 	O 	0.06793 0.69747 0.64147 -0.46600
O 	O 	0.04573 0.62347 0.48997 -0.50000
O 	O 	0.18673 0.61997 0.58807 -0.61300
Zn	Zn	-0.00000 0.00000 -0.00000 1.16800
Zn	Zn	0.66667 0.33333 0.33333 1.21100
Zn	Zn	0.33333 0.66667 0.66667 1.21200
