data_crystal

_cell_length_a 5.26970
_cell_length_b 12.14000
_cell_length_c 13.91610
_cell_angle_alpha 115.43900
_cell_angle_beta  98.39200
_cell_angle_gamma 91.15700

_symmetry_space_group_name_	'P 1'
_symmetry_space_group_name_H-M	'P 1'

loop_
_symmetry_equiv_pos_as_xyz
  x,y,z

loop_
_atom_site_label
_atom_site_type_symbol
_atom_site_fract_x
_atom_site_fract_y
_atom_site_fract_z
_atom_site_charge
Zn	Zn	0.50970 0.39760 0.16730 1.21400
Zn	Zn	0.04760 0.30350 0.95460 1.22600
Zn	Zn	0.44130 0.11410 0.15350 1.18500
Zn	Zn	0.22690 0.49180 0.38190 1.22500
P 	P 	0.03190 0.53710 0.17740 0.54900
P 	P 	0.69960 0.33700 0.36220 0.56600
P 	P 	0.53650 0.16860 0.95970 0.53000
O 	O 	0.15020 0.41510 0.11100 -0.66200
O 	O 	0.10460 0.63460 0.14270 -0.45900
O 	O 	0.74110 0.51270 0.15910 -0.51600
O 	O 	0.15910 0.58240 0.29550 -0.47200
O 	O 	0.52100 0.40780 0.31270 -0.66500
O 	O 	0.62130 0.20070 0.30060 -0.48500
O 	O 	0.66250 0.38010 0.47840 -0.50200
O 	O 	0.97640 0.36310 0.35280 -0.53600
O 	O 	0.53660 0.22070 0.08420 -0.67500
O 	O 	0.40930 0.03810 0.90780 -0.52700
O 	O 	0.81460 0.17010 0.94110 -0.50700
O 	O 	0.37980 0.24920 0.91920 -0.48800
Zn	Zn	0.49030 0.60240 0.83270 1.21300
Zn	Zn	0.95240 0.69650 0.04540 1.22500
Zn	Zn	0.55870 0.88590 0.84650 1.18500
Zn	Zn	0.77310 0.50820 0.61810 1.22500
P 	P 	0.96810 0.46290 0.82260 0.54900
P 	P 	0.30040 0.66300 0.63780 0.56600
P 	P 	0.46350 0.83140 0.04030 0.53000
O 	O 	0.84980 0.58490 0.88900 -0.66200
O 	O 	0.89540 0.36540 0.85730 -0.45900
O 	O 	0.25890 0.48730 0.84090 -0.51600
O 	O 	0.84090 0.41760 0.70450 -0.47200
O 	O 	0.47900 0.59220 0.68730 -0.66500
O 	O 	0.37870 0.79930 0.69940 -0.48500
O 	O 	0.33750 0.61990 0.52160 -0.50200
O 	O 	0.02360 0.63690 0.64720 -0.53600
O 	O 	0.46340 0.77930 0.91580 -0.67500
O 	O 	0.59070 0.96190 0.09220 -0.52700
O 	O 	0.18540 0.82990 0.05890 -0.50700
O 	O 	0.62020 0.75080 0.08080 -0.48800
