data_crystal

_cell_length_a 10.74550
_cell_length_b 6.34690
_cell_length_c 20.48000
_cell_angle_alpha 90.00000
_cell_angle_beta  104.28600
_cell_angle_gamma 90.00000

_symmetry_space_group_name_	'P 1'
_symmetry_space_group_name_H-M	'P 1'

loop_
_symmetry_equiv_pos_as_xyz
  x,y,z

loop_
_atom_site_label
_atom_site_type_symbol
_atom_site_fract_x
_atom_site_fract_y
_atom_site_fract_z
_atom_site_charge
Ti	Ti	0.89060 0.03510 0.20030 3.11700
Ti	Ti	0.09670 0.54300 0.39350 3.11800
P 	P 	0.17230 0.17160 0.17770 0.69100
P 	P 	0.88380 0.53770 0.24300 0.86200
P 	P 	0.02520 0.04880 0.36650 0.78000
P 	P 	0.67980 0.08160 0.05320 0.79100
O 	O 	0.88840 0.72960 0.19900 -0.71000
O 	O 	0.80220 0.02890 0.10560 -0.69300
O 	O 	0.88770 0.34290 0.20050 -0.70900
O 	O 	0.99710 0.03100 0.29150 -0.77400
O 	O 	0.76530 0.53800 0.27000 -0.81600
O 	O 	0.04970 0.04600 0.17100 -0.65700
O 	O 	0.00250 0.54030 0.30280 -0.80500
O 	O 	0.08650 0.84830 0.40120 -0.68200
O 	O 	0.68780 0.96810 0.98890 -0.64800
O 	O 	0.11380 0.23560 0.39190 -0.65600
O 	O 	0.24430 0.06990 0.12990 -0.69200
O 	O 	0.56560 0.01320 0.07820 -0.75000
O 	O 	0.25340 0.17570 0.25090 -0.46700
O 	O 	0.14580 0.40130 0.15720 -0.19900
O 	O 	0.89760 0.08450 0.38700 -0.54800
O 	O 	0.67550 0.31840 0.03690 -0.49500
H 	H 	0.31880 0.24470 0.25310 0.29900
H 	H 	0.86380 0.19330 0.36950 0.28900
H 	H 	0.64970 0.38340 0.06560 0.34300
Ti	Ti	0.60940 0.53510 0.29970 3.11800
Ti	Ti	0.40330 0.04300 0.10650 3.11800
P 	P 	0.32770 0.67160 0.32230 0.69200
P 	P 	0.61620 0.03770 0.25700 0.85500
P 	P 	0.47480 0.54880 0.13350 0.78000
P 	P 	0.82020 0.58160 0.44680 0.79300
O 	O 	0.61160 0.22960 0.30100 -0.71600
O 	O 	0.69780 0.52890 0.39440 -0.69000
O 	O 	0.61230 0.84290 0.29950 -0.70100
O 	O 	0.50290 0.53100 0.20850 -0.76600
O 	O 	0.73470 0.03800 0.23000 -0.82000
O 	O 	0.45030 0.54600 0.32900 -0.65600
O 	O 	0.49750 0.04030 0.19720 -0.80800
O 	O 	0.41350 0.34830 0.09880 -0.68400
O 	O 	0.81220 0.46810 0.51110 -0.65100
O 	O 	0.38620 0.73560 0.10810 -0.65100
O 	O 	0.25570 0.56990 0.37010 -0.69100
O 	O 	0.93440 0.51320 0.42180 -0.74900
O 	O 	0.24660 0.67570 0.24910 -0.46400
O 	O 	0.35420 0.90130 0.34280 -0.19700
O 	O 	0.60240 0.58450 0.11300 -0.54300
O 	O 	0.82450 0.81840 0.46310 -0.49500
H 	H 	0.18120 0.74470 0.24690 0.30100
H 	H 	0.63620 0.69330 0.13050 0.29100
H 	H 	0.85030 0.88340 0.43440 0.34500
Ti	Ti	0.10940 0.96490 0.79970 3.11700
Ti	Ti	0.90330 0.45700 0.60650 3.11800
P 	P 	0.82770 0.82840 0.82230 0.69100
P 	P 	0.11620 0.46230 0.75700 0.86200
P 	P 	0.97480 0.95120 0.63350 0.78000
P 	P 	0.32020 0.91840 0.94680 0.79100
O 	O 	0.11160 0.27040 0.80100 -0.71000
O 	O 	0.19780 0.97110 0.89440 -0.69300
O 	O 	0.11230 0.65710 0.79950 -0.70900
O 	O 	0.00290 0.96900 0.70850 -0.77400
O 	O 	0.23470 0.46200 0.73000 -0.81600
O 	O 	0.95030 0.95400 0.82900 -0.65700
O 	O 	0.99750 0.45970 0.69720 -0.80500
O 	O 	0.91350 0.15170 0.59880 -0.68200
O 	O 	0.31220 0.03190 0.01110 -0.64800
O 	O 	0.88620 0.76440 0.60810 -0.65600
O 	O 	0.75570 0.93010 0.87010 -0.69200
O 	O 	0.43440 0.98680 0.92180 -0.75000
O 	O 	0.74660 0.82430 0.74910 -0.46700
O 	O 	0.85420 0.59870 0.84280 -0.19900
O 	O 	0.10240 0.91550 0.61300 -0.54800
O 	O 	0.32450 0.68160 0.96310 -0.49500
H 	H 	0.68120 0.75530 0.74690 0.29900
H 	H 	0.13620 0.80670 0.63050 0.28900
H 	H 	0.35030 0.61660 0.93440 0.34300
Ti	Ti	0.39060 0.46490 0.70030 3.11800
Ti	Ti	0.59670 0.95700 0.89350 3.11800
P 	P 	0.67230 0.32840 0.67770 0.69200
P 	P 	0.38380 0.96230 0.74300 0.85500
P 	P 	0.52520 0.45120 0.86650 0.78000
P 	P 	0.17980 0.41840 0.55320 0.79300
O 	O 	0.38840 0.77040 0.69900 -0.71600
O 	O 	0.30220 0.47110 0.60560 -0.69000
O 	O 	0.38770 0.15710 0.70050 -0.70100
O 	O 	0.49710 0.46900 0.79150 -0.76600
O 	O 	0.26530 0.96200 0.77000 -0.82000
O 	O 	0.54970 0.45400 0.67100 -0.65600
O 	O 	0.50250 0.95970 0.80280 -0.80800
O 	O 	0.58650 0.65170 0.90120 -0.68400
O 	O 	0.18780 0.53190 0.48890 -0.65100
O 	O 	0.61380 0.26440 0.89190 -0.65100
O 	O 	0.74430 0.43010 0.62990 -0.69100
O 	O 	0.06560 0.48680 0.57820 -0.74900
O 	O 	0.75340 0.32430 0.75090 -0.46400
O 	O 	0.64580 0.09870 0.65720 -0.19700
O 	O 	0.39760 0.41550 0.88700 -0.54300
O 	O 	0.17550 0.18160 0.53690 -0.49500
H 	H 	0.81880 0.25530 0.75310 0.30100
H 	H 	0.36380 0.30670 0.86950 0.29100
H 	H 	0.14970 0.11660 0.56560 0.34500
