data_crystal

_cell_length_a 9.98500
_cell_length_b 13.57300
_cell_length_c 18.44400
_cell_angle_alpha 90.00000
_cell_angle_beta  90.00000
_cell_angle_gamma 90.00000

_symmetry_space_group_name_	'P 1'
_symmetry_space_group_name_H-M	'P 1'

loop_
_symmetry_equiv_pos_as_xyz
  x,y,z

loop_
_atom_site_label
_atom_site_type_symbol
_atom_site_fract_x
_atom_site_fract_y
_atom_site_fract_z
_atom_site_charge
Zn	Zn	0.83356 0.41811 0.22618 1.23800
Zn	Zn	0.67107 0.14032 0.31122 1.25000
Zn	Zn	0.69176 0.37721 0.54608 1.22400
P 	P 	0.68350 0.36368 0.36819 0.51700
H 	H 	0.58300 0.40800 0.33600 -0.04900
P 	P 	0.76800 0.21058 0.15344 0.48600
H 	H 	0.67300 0.23900 0.10700 -0.03600
P 	P 	0.59190 0.52201 0.14218 0.55300
H 	H 	0.55100 0.43400 0.12400 -0.06400
P 	P 	0.04580 0.56397 0.15954 0.47100
H 	H 	0.01600 0.63800 0.20300 -0.07400
O 	O 	0.80390 0.40050 0.32980 -0.47000
O 	O 	0.85510 0.29220 0.18490 -0.47300
O 	O 	0.70140 0.50890 0.20060 -0.48200
O 	O 	0.00200 0.48340 0.20950 -0.44700
O 	O 	0.64370 0.25930 0.36320 -0.48700
O 	O 	0.69240 0.15160 0.20790 -0.46600
O 	O 	0.19390 0.55620 0.14600 -0.43400
O 	O 	0.50540 0.61450 0.16090 -0.29300
O 	O 	0.52050 0.04350 0.31050 -0.29700
O 	O 	0.67320 0.39810 0.44350 -0.46400
O 	O 	0.64060 0.57050 0.07620 -0.48600
O 	O 	0.96590 0.57160 0.09020 -0.48100
O 	O 	0.85670 0.14590 0.10670 -0.45000
H 	H 	0.85000 0.08850 0.12000 0.27800
N 	N 	0.70050 0.22400 0.56900 -0.19800
N 	N 	0.69930 0.04060 0.59470 -0.08500
C 	C 	0.57190 0.18000 0.54310 -0.06500
H 	H 	0.56510 0.18670 0.49080 0.04300
H 	H 	0.49680 0.21410 0.56500 0.02400
C 	C 	0.56900 0.07010 0.56420 -0.07500
H 	H 	0.49890 0.05890 0.59970 0.06900
H 	H 	0.54930 0.03040 0.52180 0.07300
C 	C 	0.81330 0.17520 0.53160 -0.04000
H 	H 	0.89700 0.20080 0.55040 0.03300
H 	H 	0.80930 0.19040 0.48020 0.02100
C 	C 	0.81000 0.06370 0.54170 -0.08600
H 	H 	0.79300 0.03140 0.49570 0.08100
H 	H 	0.89520 0.04060 0.56030 0.07100
C 	C 	0.71690 0.20620 0.64780 -0.06600
H 	H 	0.64170 0.23400 0.67400 0.03400
H 	H 	0.79810 0.23770 0.66500 0.04700
C 	C 	0.72470 0.09360 0.66180 -0.06400
H 	H 	0.81270 0.07660 0.68020 0.06000
H 	H 	0.65880 0.07500 0.69790 0.05900
Zn	Zn	0.66644 0.58189 0.72618 1.23800
Zn	Zn	0.82893 0.85968 0.81122 1.24900
Zn	Zn	0.80824 0.62279 0.04608 1.22300
P 	P 	0.81650 0.63632 0.86819 0.51600
H 	H 	0.91700 0.59200 0.83600 -0.05000
P 	P 	0.73200 0.78942 0.65344 0.48500
H 	H 	0.82700 0.76100 0.60700 -0.03700
P 	P 	0.90810 0.47799 0.64218 0.55200
H 	H 	0.94900 0.56600 0.62400 -0.06400
P 	P 	0.45420 0.43603 0.65954 0.47100
H 	H 	0.48400 0.36200 0.70300 -0.07400
O 	O 	0.69610 0.59950 0.82980 -0.47000
O 	O 	0.64490 0.70780 0.68490 -0.47200
O 	O 	0.79860 0.49110 0.70060 -0.48200
O 	O 	0.49800 0.51660 0.70950 -0.44700
O 	O 	0.85630 0.74070 0.86320 -0.48600
O 	O 	0.80760 0.84840 0.70790 -0.46600
O 	O 	0.30610 0.44380 0.64600 -0.43400
O 	O 	0.99460 0.38550 0.66090 -0.29400
O 	O 	0.97950 0.95650 0.81050 -0.29400
O 	O 	0.82680 0.60190 0.94350 -0.46400
O 	O 	0.85940 0.42950 0.57620 -0.48600
O 	O 	0.53410 0.42840 0.59020 -0.48100
O 	O 	0.64330 0.85410 0.60670 -0.45000
H 	H 	0.65000 0.91150 0.62000 0.27900
N 	N 	0.79950 0.77600 0.06900 -0.19700
N 	N 	0.80070 0.95940 0.09470 -0.08400
C 	C 	0.92810 0.82000 0.04310 -0.06500
H 	H 	0.93490 0.81330 0.99080 0.04300
H 	H 	0.00320 0.78590 0.06500 0.02300
C 	C 	0.93100 0.92990 0.06420 -0.07200
H 	H 	0.00110 0.94110 0.09970 0.06700
H 	H 	0.95070 0.96960 0.02180 0.07200
C 	C 	0.68670 0.82480 0.03160 -0.04000
H 	H 	0.60300 0.79920 0.05040 0.03400
H 	H 	0.69070 0.80960 0.98020 0.02100
C 	C 	0.69000 0.93630 0.04170 -0.08600
H 	H 	0.70700 0.96860 0.99570 0.08200
H 	H 	0.60480 0.95940 0.06030 0.07200
C 	C 	0.78310 0.79380 0.14780 -0.06600
H 	H 	0.85830 0.76600 0.17400 0.03400
H 	H 	0.70190 0.76230 0.16500 0.04700
C 	C 	0.77530 0.90640 0.16180 -0.06400
H 	H 	0.68730 0.92340 0.18020 0.06100
H 	H 	0.84120 0.92500 0.19790 0.06000
Zn	Zn	0.16644 0.91811 0.27382 1.23700
Zn	Zn	0.32893 0.64032 0.18878 1.24900
Zn	Zn	0.30824 0.87721 0.95392 1.22200
P 	P 	0.31650 0.86368 0.13181 0.51600
H 	H 	0.41700 0.90800 0.16400 -0.05000
P 	P 	0.23200 0.71058 0.34656 0.48500
H 	H 	0.32700 0.73900 0.39300 -0.03800
P 	P 	0.40810 0.02201 0.35782 0.55200
H 	H 	0.44900 0.93400 0.37600 -0.06400
P 	P 	0.95420 0.06397 0.34046 0.46700
H 	H 	0.98400 0.13800 0.29700 -0.07400
O 	O 	0.19610 0.90050 0.17020 -0.47000
O 	O 	0.14490 0.79220 0.31510 -0.47300
O 	O 	0.29860 0.00890 0.29940 -0.48100
O 	O 	0.99800 0.98340 0.29050 -0.44500
O 	O 	0.35630 0.75930 0.13680 -0.48700
O 	O 	0.30760 0.65160 0.29210 -0.46600
O 	O 	0.80610 0.05620 0.35400 -0.43400
O 	O 	0.49460 0.11450 0.33910 -0.29300
O 	O 	0.47950 0.54350 0.18950 -0.29700
O 	O 	0.32680 0.89810 0.05650 -0.46400
O 	O 	0.35940 0.07050 0.42380 -0.48500
O 	O 	0.03410 0.07160 0.40980 -0.47800
O 	O 	0.14330 0.64590 0.39330 -0.45000
H 	H 	0.15000 0.58850 0.38000 0.27900
N 	N 	0.29950 0.72400 0.93100 -0.19800
N 	N 	0.30070 0.54060 0.90530 -0.08400
C 	C 	0.42810 0.68000 0.95690 -0.06400
H 	H 	0.43490 0.68670 0.00920 0.04300
H 	H 	0.50320 0.71410 0.93500 0.02400
C 	C 	0.43100 0.57010 0.93580 -0.07500
H 	H 	0.50110 0.55890 0.90030 0.06900
H 	H 	0.45070 0.53040 0.97820 0.07300
C 	C 	0.18670 0.67520 0.96840 -0.04000
H 	H 	0.10300 0.70080 0.94960 0.03300
H 	H 	0.19070 0.69040 0.01980 0.02100
C 	C 	0.19000 0.56370 0.95830 -0.08600
H 	H 	0.20700 0.53140 0.00430 0.08200
H 	H 	0.10480 0.54060 0.93970 0.07200
C 	C 	0.28310 0.70620 0.85220 -0.06600
H 	H 	0.35830 0.73400 0.82600 0.03400
H 	H 	0.20190 0.73770 0.83500 0.04700
C 	C 	0.27530 0.59360 0.83820 -0.06400
H 	H 	0.18730 0.57660 0.81980 0.06000
H 	H 	0.34120 0.57500 0.80210 0.05900
Zn	Zn	0.33356 0.08189 0.77382 1.23800
Zn	Zn	0.17107 0.35968 0.68878 1.24900
Zn	Zn	0.19176 0.12279 0.45392 1.22300
P 	P 	0.18350 0.13632 0.63181 0.51600
H 	H 	0.08300 0.09200 0.66400 -0.04900
P 	P 	0.26800 0.28942 0.84656 0.48500
H 	H 	0.17300 0.26100 0.89300 -0.03700
P 	P 	0.09190 0.97799 0.85782 0.54800
H 	H 	0.05100 0.06600 0.87600 -0.06200
P 	P 	0.54580 0.93603 0.84046 0.47100
H 	H 	0.51600 0.86200 0.79700 -0.07400
O 	O 	0.30390 0.09950 0.67020 -0.47000
O 	O 	0.35510 0.20780 0.81510 -0.47200
O 	O 	0.20140 0.99110 0.79940 -0.48200
O 	O 	0.50200 0.01660 0.79050 -0.44700
O 	O 	0.14370 0.24070 0.63680 -0.48600
O 	O 	0.19240 0.34840 0.79210 -0.46600
O 	O 	0.69390 0.94380 0.85400 -0.43400
O 	O 	0.00540 0.88550 0.83910 -0.29500
O 	O 	0.02050 0.45650 0.68950 -0.29700
O 	O 	0.17320 0.10190 0.55650 -0.46400
O 	O 	0.14060 0.92950 0.92380 -0.48600
O 	O 	0.46590 0.92840 0.90980 -0.48100
O 	O 	0.35670 0.35410 0.89330 -0.44900
H 	H 	0.35000 0.41150 0.88000 0.27900
N 	N 	0.20050 0.27600 0.43100 -0.19800
N 	N 	0.19930 0.45940 0.40530 -0.08400
C 	C 	0.07190 0.32000 0.45690 -0.06200
H 	H 	0.06510 0.31330 0.50920 0.04200
H 	H 	0.99680 0.28590 0.43500 0.02200
C 	C 	0.06900 0.42990 0.43580 -0.07500
H 	H 	0.99890 0.44110 0.40030 0.06800
H 	H 	0.04930 0.46960 0.47820 0.07300
C 	C 	0.31330 0.32480 0.46840 -0.04000
H 	H 	0.39700 0.29920 0.44960 0.03400
H 	H 	0.30930 0.30960 0.51980 0.02100
C 	C 	0.31000 0.43630 0.45830 -0.08600
H 	H 	0.29300 0.46860 0.50430 0.08200
H 	H 	0.39520 0.45940 0.43970 0.07200
C 	C 	0.21690 0.29380 0.35220 -0.06600
H 	H 	0.14170 0.26600 0.32600 0.03400
H 	H 	0.29810 0.26230 0.33500 0.04700
C 	C 	0.22470 0.40640 0.33820 -0.06400
H 	H 	0.31270 0.42340 0.31980 0.06100
H 	H 	0.15880 0.42500 0.30210 0.05900
