data_crystal

_cell_length_a 17.29300
_cell_length_b 15.01900
_cell_length_c 18.19300
_cell_angle_alpha 90.00000
_cell_angle_beta  92.28500
_cell_angle_gamma 90.00000

_symmetry_space_group_name_	'P 1'
_symmetry_space_group_name_H-M	'P 1'

loop_
_symmetry_equiv_pos_as_xyz
  x,y,z

loop_
_atom_site_label
_atom_site_type_symbol
_atom_site_fract_x
_atom_site_fract_y
_atom_site_fract_z
_atom_site_charge
W 	W 	0.37074 0.89419 0.37926 1.39200
W 	W 	0.16932 0.89051 0.39555 1.28700
W 	W 	0.16467 0.65631 0.39522 1.37800
W 	W 	0.04723 0.77594 0.26628 1.34300
W 	W 	0.36960 0.66640 0.37700 0.53900
W 	W 	0.38310 0.67140 0.37700 0.46000
W 	W 	0.35200 0.64750 0.37720 0.30300
C 	C 	0.11870 0.97990 0.62920 0.09700
H 	H 	0.16090 0.98620 0.59960 0.00100
C 	C 	0.00520 0.97380 0.66160 0.03300
H 	H 	0.95150 0.97490 0.66220 0.03100
C 	C 	0.02900 0.94120 0.79480 -0.36500
H 	H 	0.06870 0.96220 0.82970 0.22800
H 	H 	0.98160 0.97320 0.80380 0.17700
C 	C 	0.01600 0.84170 0.80630 0.37500
C 	C 	0.96550 0.83250 0.87370 -0.22200
H 	H 	0.91610 0.86130 0.86300 0.10700
H 	H 	0.99050 0.86330 0.91500 0.14400
C 	C 	0.98580 0.69130 0.94350 0.15200
H 	H 	0.01990 0.71270 0.98020 -0.00500
C 	C 	0.91770 0.61060 0.87670 0.10600
H 	H 	0.89310 0.56070 0.85660 0.00500
C 	C 	0.08960 0.78830 0.82150 -0.38700
C 	C 	0.10430 0.71020 0.78220 0.33900
H 	H 	0.07120 0.69260 0.74340 -0.06900
C 	C 	0.17160 0.65770 0.80280 -0.51700
H 	H 	0.18220 0.60450 0.77900 0.25800
C 	C 	0.21940 0.68920 0.85890 0.67200
C 	C 	0.20580 0.76330 0.90050 -0.70000
H 	H 	0.23790 0.77970 0.94050 0.33400
C 	C 	0.14300 0.81020 0.87950 0.67100
C 	C 	0.83350 0.52030 0.04360 0.05600
H 	H 	0.81360 0.50010 0.99840 0.04300
C 	C 	0.90910 0.55450 0.13380 0.10300
H 	H 	0.95420 0.56170 0.16290 0.02100
C 	C 	0.71000 0.56300 0.10250 -0.28900
H 	H 	0.68330 0.50820 0.08920 0.14400
H 	H 	0.69780 0.57750 0.15270 0.17600
C 	C 	0.67960 0.63920 0.05050 0.39500
C 	C 	0.59600 0.65950 0.07230 -0.26200
H 	H 	0.59580 0.67160 0.12460 0.12800
H 	H 	0.56390 0.60750 0.06250 0.09600
C 	C 	0.56140 0.81980 0.05060 0.06600
H 	H 	0.58120 0.84290 0.09490 0.00500
C 	C 	0.00820 0.19310 0.44710 0.02500
H 	H 	0.98210 0.17890 0.40300 0.03600
C 	C 	0.73080 0.72290 0.05750 -0.50300
C 	C 	0.75830 0.76550 0.99830 0.52900
H 	H 	0.74710 0.74240 0.95170 -0.12000
C 	C 	0.80340 0.84360 0.00470 -0.71100
H 	H 	0.81940 0.87440 0.96360 0.30400
C 	C 	0.82210 0.87150 0.07490 0.78800
C 	C 	0.79250 0.83320 0.13500 -0.80900
H 	H 	0.80260 0.85540 0.18210 0.37900
C 	C 	0.74790 0.76120 0.12280 0.72800
N 	N 	0.96680 0.60730 0.93580 -0.21100
N 	N 	0.95170 0.74080 0.89450 -0.06600
N 	N 	0.90810 0.69010 0.85040 -0.08900
N 	N 	0.05230 0.95950 0.72070 -0.03800
N 	N 	0.12570 0.96410 0.70040 -0.08200
N 	N 	0.04500 0.98600 0.60300 -0.24200
N 	N 	0.90910 0.52530 0.06350 -0.20300
N 	N 	0.84010 0.57170 0.15740 -0.07800
N 	N 	0.79130 0.54910 0.09910 -0.03100
N 	N 	0.56300 0.73530 0.03220 -0.06900
N 	N 	0.02840 0.13330 0.49810 -0.25300
N 	N 	0.52920 0.72460 0.96580 -0.08800
O 	O 	0.33610 0.98640 0.31610 -0.44500
O 	O 	0.18620 0.98580 0.32760 -0.43500
O 	O 	0.27490 0.89910 0.42420 -0.45400
O 	O 	0.07870 0.85950 0.33560 -0.48100
O 	O 	0.05910 0.86390 0.19260 -0.46800
O 	O 	0.07680 0.68670 0.33710 -0.48100
O 	O 	0.44050 0.68900 0.30600 -0.45900
O 	O 	0.42410 0.59900 0.43600 -0.46000
O 	O 	0.33450 0.56750 0.31420 -0.42200
O 	O 	0.27140 0.65320 0.42300 -0.41500
O 	O 	0.38190 0.77710 0.41690 -0.44000
O 	O 	0.16710 0.77300 0.43300 -0.47400
O 	O 	0.18240 0.56620 0.32890 -0.47000
O 	O 	0.18430 0.77150 0.30880 -1.24600
O 	O 	0.25200 0.68960 0.30130 -1.25500
O 	O 	0.33610 0.77800 0.29530 -1.14600
O 	O 	0.25800 0.86180 0.30050 -1.27300
O 	O 	0.97330 0.81120 0.74350 -0.43000
H 	H 	0.99990 0.81550 0.70730 0.28000
O 	O 	0.68320 0.61010 0.97750 -0.41900
H 	H 	0.65690 0.56500 0.97170 0.23200
F 	F 	0.12710 0.88070 0.91900 -0.52700
F 	F 	0.28410 0.63840 0.87490 -0.53700
F 	F 	0.87000 0.94270 0.08230 -0.52800
F 	F 	0.71390 0.72570 0.18390 -0.51200
W 	W 	0.12926 0.89419 0.12074 1.38300
W 	W 	0.33068 0.89051 0.10445 1.28400
W 	W 	0.33533 0.65631 0.10478 1.37800
W 	W 	0.45277 0.77594 0.23372 1.36100
W 	W 	0.13040 0.66640 0.12300 0.53800
W 	W 	0.11690 0.67140 0.12300 0.46200
W 	W 	0.14800 0.64750 0.12280 0.29900
C 	C 	0.38130 0.97990 0.87080 0.09700
H 	H 	0.33910 0.98620 0.90040 0.00400
C 	C 	0.49480 0.97380 0.83840 0.08400
H 	H 	0.54850 0.97490 0.83780 0.00000
C 	C 	0.47100 0.94120 0.70520 -0.32700
H 	H 	0.43130 0.96220 0.67030 0.22000
H 	H 	0.51840 0.97320 0.69620 0.15200
C 	C 	0.48400 0.84170 0.69370 0.40500
C 	C 	0.53450 0.83250 0.62630 -0.25600
H 	H 	0.58390 0.86130 0.63700 0.11600
H 	H 	0.50950 0.86330 0.58500 0.14300
C 	C 	0.51420 0.69130 0.55650 0.09900
H 	H 	0.48010 0.71270 0.51980 0.02000
C 	C 	0.58230 0.61060 0.62330 0.10300
H 	H 	0.60690 0.56070 0.64340 0.00200
C 	C 	0.41040 0.78830 0.67850 -0.38800
C 	C 	0.39570 0.71020 0.71780 0.34200
H 	H 	0.42880 0.69260 0.75660 -0.06200
C 	C 	0.32840 0.65770 0.69720 -0.51600
H 	H 	0.31780 0.60450 0.72100 0.25900
C 	C 	0.28060 0.68920 0.64110 0.67000
C 	C 	0.29420 0.76330 0.59950 -0.70100
H 	H 	0.26210 0.77970 0.55950 0.32700
C 	C 	0.35700 0.81020 0.62050 0.67100
C 	C 	0.66650 0.52030 0.45640 0.09400
H 	H 	0.68640 0.50010 0.50160 0.01600
C 	C 	0.59090 0.55450 0.36620 0.10100
H 	H 	0.54580 0.56170 0.33710 0.00900
C 	C 	0.79000 0.56300 0.39750 -0.28400
H 	H 	0.81670 0.50820 0.41080 0.14900
H 	H 	0.80220 0.57750 0.34730 0.17600
C 	C 	0.82040 0.63920 0.44950 0.39400
C 	C 	0.90400 0.65950 0.42770 -0.26200
H 	H 	0.90420 0.67160 0.37540 0.13300
H 	H 	0.93610 0.60750 0.43750 0.10800
C 	C 	0.93860 0.81980 0.44940 0.09100
H 	H 	0.91880 0.84290 0.40510 0.00100
C 	C 	0.49180 0.19310 0.05290 0.08600
H 	H 	0.51790 0.17890 0.09700 -0.01100
C 	C 	0.76920 0.72290 0.44250 -0.43800
C 	C 	0.74170 0.76550 0.50170 0.41600
H 	H 	0.75290 0.74240 0.54830 -0.08400
C 	C 	0.69660 0.84360 0.49530 -0.59500
H 	H 	0.68060 0.87440 0.53640 0.25400
C 	C 	0.67790 0.87150 0.42510 0.73100
C 	C 	0.70750 0.83320 0.36500 -0.75600
H 	H 	0.69740 0.85540 0.31790 0.35900
C 	C 	0.75210 0.76120 0.37720 0.68600
N 	N 	0.53320 0.60730 0.56420 -0.21600
N 	N 	0.54830 0.74080 0.60550 -0.05700
N 	N 	0.59190 0.69010 0.64960 -0.09200
N 	N 	0.44770 0.95950 0.77930 -0.04800
N 	N 	0.37430 0.96410 0.79960 -0.08100
N 	N 	0.45500 0.98600 0.89700 -0.24300
N 	N 	0.59090 0.52530 0.43650 -0.21400
N 	N 	0.65990 0.57170 0.34260 -0.07900
N 	N 	0.70870 0.54910 0.40090 -0.03700
N 	N 	0.93700 0.73530 0.46780 -0.06200
N 	N 	0.47160 0.13330 0.00190 -0.27700
N 	N 	0.97080 0.72460 0.53420 -0.10000
O 	O 	0.16390 0.98640 0.18390 -0.44300
O 	O 	0.31380 0.98580 0.17240 -0.43600
O 	O 	0.22510 0.89910 0.07580 -0.45800
O 	O 	0.42130 0.85950 0.16440 -0.47600
O 	O 	0.44090 0.86390 0.30740 -0.46500
O 	O 	0.42320 0.68670 0.16290 -0.47600
O 	O 	0.05950 0.68900 0.19400 -0.46600
O 	O 	0.07590 0.59900 0.06400 -0.47500
O 	O 	0.16550 0.56750 0.18580 -0.42300
O 	O 	0.22860 0.65320 0.07700 -0.41800
O 	O 	0.11810 0.77710 0.08310 -0.44800
O 	O 	0.33290 0.77300 0.06700 -0.47600
O 	O 	0.31760 0.56620 0.17110 -0.46900
O 	O 	0.31570 0.77150 0.19120 -1.24700
O 	O 	0.24800 0.68960 0.19870 -1.25500
O 	O 	0.16390 0.77800 0.20470 -1.14400
O 	O 	0.24200 0.86180 0.19950 -1.27200
O 	O 	0.52670 0.81120 0.75650 -0.44700
H 	H 	0.50010 0.81550 0.79270 0.27100
O 	O 	0.81680 0.61010 0.52250 -0.43100
H 	H 	0.84310 0.56500 0.52830 0.23300
F 	F 	0.37290 0.88070 0.58100 -0.52800
F 	F 	0.21590 0.63840 0.62510 -0.54200
F 	F 	0.63000 0.94270 0.41770 -0.51900
F 	F 	0.78610 0.72570 0.31610 -0.50400
W 	W 	0.62926 0.10581 0.62074 1.37900
W 	W 	0.83068 0.10949 0.60445 1.28700
W 	W 	0.83533 0.34369 0.60478 1.39300
W 	W 	0.95277 0.22406 0.73372 1.37400
W 	W 	0.63040 0.33360 0.62300 0.53900
W 	W 	0.61690 0.32860 0.62300 0.46100
W 	W 	0.64800 0.35250 0.62280 0.30200
C 	C 	0.88130 0.02010 0.37080 0.08700
H 	H 	0.83910 0.01380 0.40040 -0.01200
C 	C 	0.99480 0.02620 0.33840 0.15300
H 	H 	0.04850 0.02510 0.33780 -0.06600
C 	C 	0.97100 0.05880 0.20520 -0.24100
H 	H 	0.93130 0.03780 0.17030 0.18200
H 	H 	0.01840 0.02680 0.19620 0.08200
C 	C 	0.98400 0.15830 0.19370 0.43400
C 	C 	0.03450 0.16750 0.12630 -0.29100
H 	H 	0.08390 0.13870 0.13700 0.11400
H 	H 	0.00950 0.13670 0.08500 0.12800
C 	C 	0.01420 0.30870 0.05650 0.02200
H 	H 	0.98010 0.28730 0.01980 0.06200
C 	C 	0.08230 0.38940 0.12330 0.09800
H 	H 	0.10690 0.43930 0.14340 -0.00100
C 	C 	0.91040 0.21170 0.17850 -0.38700
C 	C 	0.89570 0.28980 0.21780 0.34600
H 	H 	0.92880 0.30740 0.25660 -0.05500
C 	C 	0.82840 0.34230 0.19720 -0.51400
H 	H 	0.81780 0.39550 0.22100 0.26000
C 	C 	0.78060 0.31080 0.14110 0.66900
C 	C 	0.79420 0.23670 0.09950 -0.70300
H 	H 	0.76210 0.22030 0.05950 0.31900
C 	C 	0.85700 0.18980 0.12050 0.67200
C 	C 	0.16650 0.47970 0.95640 0.14500
H 	H 	0.18640 0.49990 0.00160 -0.01900
C 	C 	0.09090 0.44550 0.86620 0.09900
H 	H 	0.04580 0.43830 0.83710 0.00100
C 	C 	0.29000 0.43700 0.89750 -0.26600
H 	H 	0.31670 0.49180 0.91080 0.14600
H 	H 	0.30220 0.42250 0.84730 0.16800
C 	C 	0.32040 0.36080 0.94950 0.37300
C 	C 	0.40400 0.34050 0.92770 -0.24500
H 	H 	0.40420 0.32840 0.87540 0.12100
H 	H 	0.43610 0.39250 0.93750 0.10200
C 	C 	0.43860 0.18020 0.94940 0.11900
H 	H 	0.41880 0.15710 0.90510 -0.02400
C 	C 	0.99180 0.80690 0.55290 0.14600
H 	H 	0.01790 0.82110 0.59700 -0.04600
C 	C 	0.26920 0.27710 0.94250 -0.31800
C 	C 	0.24170 0.23450 0.00170 0.20900
H 	H 	0.25290 0.25760 0.04830 -0.02100
C 	C 	0.19660 0.15640 0.99530 -0.38500
H 	H 	0.18060 0.12560 0.03640 0.14900
C 	C 	0.17790 0.12850 0.92510 0.61700
C 	C 	0.20750 0.16680 0.86500 -0.66100
H 	H 	0.19740 0.14460 0.81790 0.31200
C 	C 	0.25210 0.23880 0.87720 0.60400
N 	N 	0.03320 0.39270 0.06420 -0.21300
N 	N 	0.04830 0.25920 0.10550 -0.04500
N 	N 	0.09190 0.30990 0.14960 -0.09600
N 	N 	0.94770 0.04050 0.27930 -0.07300
N 	N 	0.87430 0.03590 0.29960 -0.09000
N 	N 	0.95500 0.01400 0.39700 -0.26700
N 	N 	0.09090 0.47470 0.93650 -0.21900
N 	N 	0.15990 0.42830 0.84260 -0.08100
N 	N 	0.20870 0.45090 0.90090 -0.04700
N 	N 	0.43700 0.26470 0.96780 -0.06200
N 	N 	0.97160 0.86670 0.50190 -0.24800
N 	N 	0.47080 0.27540 0.03420 -0.11000
O 	O 	0.66390 0.01360 0.68390 -0.50800
O 	O 	0.81380 0.01420 0.67240 -0.50100
O 	O 	0.72510 0.10090 0.57580 -0.46300
O 	O 	0.92130 0.14050 0.66440 -0.48300
O 	O 	0.94090 0.13610 0.80740 -0.47300
O 	O 	0.92320 0.31330 0.66290 -0.46900
O 	O 	0.55950 0.31100 0.69400 -0.45900
O 	O 	0.57590 0.40100 0.56400 -0.46000
O 	O 	0.66550 0.43250 0.68580 -0.42200
O 	O 	0.72860 0.34680 0.57700 -0.41500
O 	O 	0.61810 0.22290 0.58310 -0.44100
O 	O 	0.83290 0.22700 0.56700 -0.46900
O 	O 	0.81760 0.43380 0.67110 -0.46800
O 	O 	0.81570 0.22850 0.69120 -1.25500
O 	O 	0.74800 0.31040 0.69870 -1.26200
O 	O 	0.66390 0.22200 0.70470 -1.15000
O 	O 	0.74200 0.13820 0.69950 -1.29000
O 	O 	0.02670 0.18880 0.25650 -0.47200
H 	H 	0.00010 0.18450 0.29270 0.25800
O 	O 	0.31680 0.38990 0.02250 -0.44500
H 	H 	0.34310 0.43500 0.02830 0.22800
F 	F 	0.87290 0.11930 0.08100 -0.54000
F 	F 	0.71590 0.36160 0.12510 -0.54300
F 	F 	0.13000 0.05730 0.91770 -0.52600
F 	F 	0.28610 0.27430 0.81610 -0.49500
W 	W 	0.87074 0.10581 0.87926 1.39300
W 	W 	0.66932 0.10949 0.89555 1.29100
W 	W 	0.66467 0.34369 0.89522 1.39400
W 	W 	0.54723 0.22406 0.76628 1.35600
W 	W 	0.86960 0.33360 0.87700 0.54000
W 	W 	0.88310 0.32860 0.87700 0.45900
W 	W 	0.85200 0.35250 0.87720 0.30600
C 	C 	0.61870 0.02010 0.12920 0.08600
H 	H 	0.66090 0.01380 0.09960 -0.01800
C 	C 	0.50520 0.02620 0.16160 0.07700
H 	H 	0.45150 0.02510 0.16220 -0.02200
C 	C 	0.52900 0.05880 0.29480 -0.30600
H 	H 	0.56870 0.03780 0.32970 0.19700
H 	H 	0.48160 0.02680 0.30380 0.12400
C 	C 	0.51600 0.15830 0.30630 0.39400
C 	C 	0.46550 0.16750 0.37370 -0.24400
H 	H 	0.41610 0.13870 0.36300 0.10300
H 	H 	0.49050 0.13670 0.41500 0.13200
C 	C 	0.48580 0.30870 0.44350 0.10000
H 	H 	0.51990 0.28730 0.48020 0.01900
C 	C 	0.41770 0.38940 0.37670 0.10300
H 	H 	0.39310 0.43930 0.35660 0.00100
C 	C 	0.58960 0.21170 0.32150 -0.38600
C 	C 	0.60430 0.28980 0.28220 0.34100
H 	H 	0.57120 0.30740 0.24340 -0.06300
C 	C 	0.67160 0.34230 0.30280 -0.51600
H 	H 	0.68220 0.39550 0.27900 0.25800
C 	C 	0.71940 0.31080 0.35890 0.67000
C 	C 	0.70580 0.23670 0.40050 -0.70200
H 	H 	0.73790 0.22030 0.44050 0.32700
C 	C 	0.64300 0.18980 0.37950 0.67000
C 	C 	0.33350 0.47970 0.54360 0.09400
H 	H 	0.31360 0.49990 0.49840 0.01500
C 	C 	0.40910 0.44550 0.63380 0.10000
H 	H 	0.45420 0.43830 0.66290 0.00900
C 	C 	0.21000 0.43700 0.60250 -0.27800
H 	H 	0.18330 0.49180 0.58920 0.14300
H 	H 	0.19780 0.42250 0.65270 0.17100
C 	C 	0.17960 0.36080 0.55050 0.38700
C 	C 	0.09600 0.34050 0.57230 -0.25300
H 	H 	0.09580 0.32840 0.62460 0.11900
H 	H 	0.06390 0.39250 0.56250 0.09200
C 	C 	0.06140 0.18020 0.55060 0.08200
H 	H 	0.08120 0.15710 0.59490 -0.01900
C 	C 	0.50820 0.80690 0.94710 0.09700
H 	H 	0.48210 0.82110 0.90300 -0.00900
C 	C 	0.23080 0.27710 0.55750 -0.43400
C 	C 	0.25830 0.23450 0.49830 0.40800
H 	H 	0.24710 0.25760 0.45170 -0.08500
C 	C 	0.30340 0.15640 0.50470 -0.59400
H 	H 	0.31940 0.12560 0.46360 0.24100
C 	C 	0.32210 0.12850 0.57490 0.71800
C 	C 	0.29250 0.16680 0.63500 -0.75500
H 	H 	0.30260 0.14460 0.68210 0.34600
C 	C 	0.24790 0.23880 0.62280 0.67900
N 	N 	0.46680 0.39270 0.43580 -0.21600
N 	N 	0.45170 0.25920 0.39450 -0.05900
N 	N 	0.40810 0.30990 0.35040 -0.09300
N 	N 	0.55230 0.04050 0.22070 -0.05800
N 	N 	0.62570 0.03590 0.20040 -0.09100
N 	N 	0.54500 0.01400 0.10300 -0.26600
N 	N 	0.40910 0.47470 0.56350 -0.21500
N 	N 	0.34010 0.42830 0.65740 -0.07900
N 	N 	0.29130 0.45090 0.59910 -0.03800
N 	N 	0.06300 0.26470 0.53220 -0.06800
N 	N 	0.52840 0.86670 0.99810 -0.23100
N 	N 	0.02920 0.27540 0.46580 -0.09300
O 	O 	0.83610 0.01360 0.81610 -0.50700
O 	O 	0.68620 0.01420 0.82760 -0.50100
O 	O 	0.77490 0.10090 0.92420 -0.45800
O 	O 	0.57870 0.14050 0.83560 -0.48800
O 	O 	0.55910 0.13610 0.69260 -0.47700
O 	O 	0.57680 0.31330 0.83710 -0.47500
O 	O 	0.94050 0.31100 0.80600 -0.45300
O 	O 	0.92410 0.40100 0.93600 -0.44100
O 	O 	0.83450 0.43250 0.81420 -0.42100
O 	O 	0.77140 0.34680 0.92300 -0.41200
O 	O 	0.88190 0.22290 0.91690 -0.43300
O 	O 	0.66710 0.22700 0.93300 -0.46700
O 	O 	0.68240 0.43380 0.82890 -0.46900
O 	O 	0.68430 0.22850 0.80880 -1.25400
O 	O 	0.75200 0.31040 0.80130 -1.26300
O 	O 	0.83610 0.22200 0.79530 -1.15200
O 	O 	0.75800 0.13820 0.80050 -1.29100
O 	O 	0.47330 0.18880 0.24350 -0.44800
H 	H 	0.49990 0.18450 0.20730 0.27000
O 	O 	0.18320 0.38990 0.47750 -0.43000
H 	H 	0.15690 0.43500 0.47170 0.22700
F 	F 	0.62710 0.11930 0.41900 -0.53900
F 	F 	0.78410 0.36160 0.37490 -0.53800
F 	F 	0.37000 0.05730 0.58230 -0.54600
F 	F 	0.21390 0.27430 0.68390 -0.50800
Si	Si	0.25000 0.77540 0.25000 6.53800
W 	W 	0.25000 0.01040 0.25000 1.22600
W 	W 	0.25000 0.53998 0.25000 1.30100
Si	Si	0.75000 0.22460 0.75000 6.57800
W 	W 	0.75000 0.98960 0.75000 1.43300
W 	W 	0.75000 0.46002 0.75000 1.30600
Cu	Cu	-0.00000 0.50000 -0.00000 0.88600
Cu	Cu	0.50000 0.50000 0.50000 0.91000
Cu	Cu	0.00000 -0.00000 0.50000 0.79700
Cu	Cu	0.50000 0.00000 -0.00000 0.80000
