data_crystal

_cell_length_a 15.05350
_cell_length_b 21.85640
_cell_length_c 3.69390
_cell_angle_alpha 90.00000
_cell_angle_beta  90.00000
_cell_angle_gamma 90.00000

_symmetry_space_group_name_	'P 1'
_symmetry_space_group_name_H-M	'P 1'

loop_
_symmetry_equiv_pos_as_xyz
  x,y,z

loop_
_atom_site_label
_atom_site_type_symbol
_atom_site_fract_x
_atom_site_fract_y
_atom_site_fract_z
_atom_site_charge
Ag	Ag	0.13276 0.00276 0.53540 0.06300
N 	N 	0.18169 0.09534 0.55780 -0.17900
C 	C 	0.29363 0.17136 0.47100 -0.13100
H 	H 	0.35180 0.18040 0.40540 0.07600
C 	C 	0.26413 0.11221 0.46820 0.07500
H 	H 	0.30390 0.08180 0.39950 -0.00200
C 	C 	0.23564 0.21785 0.57330 0.05200
C 	C 	0.12681 0.13995 0.66810 0.07300
H 	H 	0.06990 0.12920 0.74270 0.00500
C 	C 	0.14992 0.20008 0.67690 -0.12900
H 	H 	0.10890 0.22930 0.75140 0.06800
Ag	Ag	0.63276 0.50276 0.53540 0.26400
N 	N 	0.68169 0.59534 0.55780 -0.19000
C 	C 	0.79363 0.67136 0.47100 -0.13300
H 	H 	0.85180 0.68040 0.40540 0.07000
C 	C 	0.76413 0.61221 0.46820 0.07400
H 	H 	0.80390 0.58180 0.39950 -0.01700
C 	C 	0.73564 0.71785 0.57330 0.05100
C 	C 	0.62681 0.63995 0.66810 0.07200
H 	H 	0.56990 0.62920 0.74270 -0.00400
C 	C 	0.64992 0.70008 0.67690 -0.13100
H 	H 	0.60890 0.72930 0.75140 0.06300
Ag	Ag	0.86724 0.99724 0.53540 0.44700
N 	N 	0.81831 0.90466 0.55780 -0.20800
C 	C 	0.70637 0.82864 0.47100 -0.13900
H 	H 	0.64820 0.81960 0.40540 0.07400
C 	C 	0.73587 0.88779 0.46820 0.07800
H 	H 	0.69610 0.91820 0.39950 -0.02800
C 	C 	0.76436 0.78215 0.57330 0.05600
C 	C 	0.87319 0.86005 0.66810 0.07300
H 	H 	0.93010 0.87080 0.74270 -0.02400
C 	C 	0.85008 0.79992 0.67690 -0.13800
H 	H 	0.89110 0.77070 0.75140 0.06000
Ag	Ag	0.36724 0.49724 0.53540 0.26400
N 	N 	0.31831 0.40466 0.55780 -0.19000
C 	C 	0.20637 0.32864 0.47100 -0.13500
H 	H 	0.14820 0.31960 0.40540 0.07900
C 	C 	0.23587 0.38779 0.46820 0.07700
H 	H 	0.19610 0.41820 0.39950 -0.01200
C 	C 	0.26436 0.28215 0.57330 0.05600
C 	C 	0.37319 0.36005 0.66810 0.07400
H 	H 	0.43010 0.37080 0.74270 -0.00500
C 	C 	0.35008 0.29992 0.67690 -0.13400
H 	H 	0.39110 0.27070 0.75140 0.06600
Ag	Ag	0.86724 0.00276 0.46460 0.04600
N 	N 	0.81831 0.09534 0.44220 -0.18000
C 	C 	0.70637 0.17136 0.52900 -0.13200
H 	H 	0.64820 0.18040 0.59460 0.06800
C 	C 	0.73587 0.11221 0.53180 0.07400
H 	H 	0.69610 0.08180 0.60050 -0.00900
C 	C 	0.76436 0.21785 0.42670 0.05300
C 	C 	0.87319 0.13995 0.33190 0.07300
H 	H 	0.93010 0.12920 0.25730 0.00400
C 	C 	0.85008 0.20008 0.32310 -0.13000
H 	H 	0.89110 0.22930 0.24860 0.07200
Ag	Ag	0.36724 0.50276 0.46460 0.24600
N 	N 	0.31831 0.59534 0.44220 -0.18800
C 	C 	0.20637 0.67136 0.52900 -0.13500
H 	H 	0.14820 0.68040 0.59460 0.07000
C 	C 	0.23587 0.61221 0.53180 0.07600
H 	H 	0.19610 0.58180 0.60050 -0.01800
C 	C 	0.26436 0.71785 0.42670 0.05300
C 	C 	0.37319 0.63995 0.33190 0.07300
H 	H 	0.43010 0.62920 0.25730 0.01100
C 	C 	0.35008 0.70008 0.32310 -0.12900
H 	H 	0.39110 0.72930 0.24860 0.07600
Ag	Ag	0.13276 0.99724 0.46460 0.43900
N 	N 	0.18169 0.90466 0.44220 -0.20300
C 	C 	0.29363 0.82864 0.52900 -0.14000
H 	H 	0.35180 0.81960 0.59460 0.06600
C 	C 	0.26413 0.88779 0.53180 0.07700
H 	H 	0.30390 0.91820 0.60050 -0.03400
C 	C 	0.23564 0.78215 0.42670 0.05600
C 	C 	0.12681 0.86005 0.33190 0.07500
H 	H 	0.06990 0.87080 0.25730 0.00600
C 	C 	0.14992 0.79992 0.32310 -0.13200
H 	H 	0.10890 0.77070 0.24860 0.08200
Ag	Ag	0.63276 0.49724 0.46460 0.24600
N 	N 	0.68169 0.40466 0.44220 -0.18900
C 	C 	0.79363 0.32864 0.52900 -0.13600
H 	H 	0.85180 0.31960 0.59460 0.06300
C 	C 	0.76413 0.38779 0.53180 0.07500
H 	H 	0.80390 0.41820 0.60050 -0.02400
C 	C 	0.73564 0.28215 0.42670 0.05400
C 	C 	0.62681 0.36005 0.33190 0.07400
H 	H 	0.56990 0.37080 0.25730 0.01100
C 	C 	0.64992 0.29992 0.32310 -0.13000
H 	H 	0.60890 0.27070 0.24860 0.07800
Cl	Cl	-0.00000 0.00000 -0.00000 -0.45300
Cl	Cl	0.50000 0.50000 -0.00000 -0.51600
