data_crystal

_cell_length_a 9.77630
_cell_length_b 11.14870
_cell_length_c 14.36430
_cell_angle_alpha 91.38830
_cell_angle_beta  90.00000
_cell_angle_gamma 90.00000

_symmetry_space_group_name_	'P 1'
_symmetry_space_group_name_H-M	'P 1'

loop_
_symmetry_equiv_pos_as_xyz
  x,y,z

loop_
_atom_site_label
_atom_site_type_symbol
_atom_site_fract_x
_atom_site_fract_y
_atom_site_fract_z
_atom_site_charge
Ni	Ni	0.92361 0.24442 0.36491 1.18300
Ni	Ni	0.61731 0.24096 0.30774 1.14100
Ni	Ni	0.42361 0.25558 0.13509 1.13400
Ni	Ni	0.11731 0.25904 0.19226 1.12700
Ni	Ni	0.07639 0.75558 0.63509 1.09300
Ni	Ni	0.38269 0.75904 0.69226 1.14900
Ni	Ni	0.57639 0.74442 0.86491 1.14100
Ni	Ni	0.88269 0.74096 0.80774 1.16300
Ni	Ni	-0.00000 0.50000 0.50000 1.10700
Ni	Ni	0.50000 0.00000 -0.00000 1.08300
Ni	Ni	-0.00000 0.00000 0.50000 1.08100
Ni	Ni	0.50000 0.50000 -0.00000 1.11000
H 	H 	0.70710 0.00990 0.48600 -0.10900
H 	H 	0.62210 0.44400 0.45180 -0.10100
H 	H 	0.19410 0.01730 0.27080 -0.11300
H 	H 	0.76440 0.14550 0.12900 -0.13300
H 	H 	0.15680 0.30320 0.57150 -0.12200
H 	H 	0.05320 0.52250 0.23860 -0.14100
H 	H 	0.20710 0.49010 0.01400 -0.15000
H 	H 	0.12210 0.05600 0.04820 -0.18500
H 	H 	0.69410 0.48270 0.22920 -0.11200
H 	H 	0.26440 0.35450 0.37100 -0.10800
H 	H 	0.65680 0.19680 0.92850 -0.14300
H 	H 	0.55320 0.97750 0.26140 0.02000
H 	H 	0.29290 0.99010 0.51400 -0.07200
H 	H 	0.37790 0.55600 0.54820 -0.10200
H 	H 	0.80590 0.98270 0.72920 -0.12300
H 	H 	0.23560 0.85450 0.87100 -0.08000
H 	H 	0.84320 0.69680 0.42850 -0.06900
H 	H 	0.94680 0.47750 0.76140 -0.07700
H 	H 	0.79290 0.50990 0.98600 -0.03400
H 	H 	0.87790 0.94400 0.95180 -0.02000
H 	H 	0.30590 0.51730 0.77080 -0.12900
H 	H 	0.73560 0.64550 0.62900 -0.10600
H 	H 	0.34320 0.80320 0.07150 -0.04800
H 	H 	0.44680 0.02250 0.73860 -0.22700
C 	C 	0.72500 0.07170 0.44540 0.47900
C 	C 	0.71490 0.42700 0.44620 0.50300
C 	C 	0.13300 0.04525 0.31605 0.40500
C 	C 	0.83450 0.17281 0.16781 0.48600
C 	C 	0.10210 0.25764 0.53124 0.51000
C 	C 	0.02540 0.48155 0.29095 0.54100
C 	C 	0.22500 0.42830 0.05460 0.51000
C 	C 	0.21490 0.07300 0.05380 0.53700
C 	C 	0.63300 0.45475 0.18395 0.52000
C 	C 	0.33450 0.32719 0.33219 0.48700
C 	C 	0.60210 0.24236 0.96876 0.67800
C 	C 	0.52540 0.01845 0.20905 0.26300
C 	C 	0.27500 0.92830 0.55460 0.48800
C 	C 	0.28510 0.57300 0.55380 0.50000
C 	C 	0.86700 0.95475 0.68395 0.60600
C 	C 	0.16550 0.82719 0.83219 0.49100
C 	C 	0.89790 0.74236 0.46876 0.47200
C 	C 	0.97460 0.51845 0.70905 0.49400
C 	C 	0.77500 0.57170 0.94540 0.46000
C 	C 	0.78510 0.92700 0.94620 0.46400
C 	C 	0.36700 0.54525 0.81605 0.51200
C 	C 	0.66550 0.67281 0.66781 0.49100
C 	C 	0.39790 0.75764 0.03124 0.31500
C 	C 	0.47460 0.98155 0.79095 0.74600
O 	O 	0.84960 0.10290 0.43749 -0.50300
O 	O 	0.62541 0.11439 0.40502 -0.43600
O 	O 	0.80524 0.19005 0.25337 -0.52900
O 	O 	0.74821 0.34635 0.38677 -0.52400
O 	O 	0.08594 0.14973 0.30562 -0.56700
O 	O 	0.01096 0.36930 0.28153 -0.61000
O 	O 	0.02507 0.31521 0.47593 -0.59100
O 	O 	0.94766 0.18895 0.13125 -0.37900
O 	O 	0.00630 0.54204 0.36224 -0.48500
O 	O 	0.79311 0.48532 0.49742 -0.39300
O 	O 	0.10720 0.97662 0.37900 -0.37500
O 	O 	0.11095 0.14790 0.53654 -0.47600
O 	O 	0.34960 0.39710 0.06251 -0.56900
O 	O 	0.12541 0.38561 0.09498 -0.48000
O 	O 	0.30524 0.30995 0.24663 -0.54400
O 	O 	0.24821 0.15365 0.11323 -0.57700
O 	O 	0.58594 0.35027 0.19438 -0.55800
O 	O 	0.51096 0.13070 0.21847 -0.49700
O 	O 	0.52507 0.18479 0.02407 -0.65500
O 	O 	0.44766 0.31105 0.36875 -0.42200
O 	O 	0.50630 0.95796 0.13776 -0.32300
O 	O 	0.29311 0.01468 0.00258 -0.51800
O 	O 	0.60720 0.52338 0.12100 -0.45200
O 	O 	0.61095 0.35210 0.96346 -0.42600
O 	O 	0.15040 0.89710 0.56251 -0.54500
O 	O 	0.37459 0.88561 0.59498 -0.40600
O 	O 	0.19476 0.80995 0.74663 -0.55600
O 	O 	0.25179 0.65365 0.61323 -0.56200
O 	O 	0.91406 0.85027 0.69438 -0.52700
O 	O 	0.98904 0.63070 0.71847 -0.49700
O 	O 	0.97493 0.68479 0.52407 -0.46300
O 	O 	0.05234 0.81105 0.86875 -0.45600
O 	O 	0.99370 0.45796 0.63776 -0.36000
O 	O 	0.20689 0.51468 0.50258 -0.43800
O 	O 	0.89280 0.02338 0.62100 -0.44800
O 	O 	0.88905 0.85210 0.46346 -0.35800
O 	O 	0.65040 0.60290 0.93749 -0.49100
O 	O 	0.87459 0.61439 0.90502 -0.36200
O 	O 	0.69476 0.69005 0.75337 -0.54300
O 	O 	0.75179 0.84635 0.88677 -0.50900
O 	O 	0.41406 0.64973 0.80562 -0.54000
O 	O 	0.48904 0.86930 0.78153 -0.60200
O 	O 	0.47493 0.81521 0.97593 -0.39800
O 	O 	0.55234 0.68895 0.63125 -0.41500
O 	O 	0.49370 0.04204 0.86224 -0.50100
O 	O 	0.70689 0.98532 0.99742 -0.31100
O 	O 	0.39280 0.47662 0.87900 -0.39400
O 	O 	0.38905 0.64790 0.03654 -0.41500
