data_crystal

_cell_length_a 6.99100
_cell_length_b 10.03100
_cell_length_c 16.23800
_cell_angle_alpha 90.00000
_cell_angle_beta  98.50000
_cell_angle_gamma 90.00000

_symmetry_space_group_name_	'P 1'
_symmetry_space_group_name_H-M	'P 1'

loop_
_symmetry_equiv_pos_as_xyz
  x,y,z

loop_
_atom_site_label
_atom_site_type_symbol
_atom_site_fract_x
_atom_site_fract_y
_atom_site_fract_z
_atom_site_charge
Co	Co	0.15296 0.63614 0.29260 1.14900
O 	O 	0.22170 0.44490 0.25280 -0.45900
O 	O 	0.12310 0.23370 0.24690 -0.49100
O 	O 	0.98110 0.66740 0.17920 -0.43100
O 	O 	0.71890 0.59720 0.09910 -0.56000
O 	O 	0.02180 0.77210 0.36250 -0.55500
O 	O 	0.85240 0.78480 0.46630 -0.45900
N 	N 	0.89930 0.52420 0.31560 -0.04700
C 	C 	0.96180 0.38480 0.32510 -0.19300
C 	C 	0.11390 0.35230 0.26970 0.34200
C 	C 	0.75190 0.54060 0.24150 -0.51400
C 	C 	0.82420 0.60410 0.16730 0.51000
C 	C 	0.83700 0.58070 0.39090 -0.41700
C 	C 	0.90840 0.72350 0.40710 0.48200
H 	H 	0.02100 0.37000 0.38400 0.02900
H 	H 	0.85400 0.32500 0.31600 0.11400
H 	H 	0.70200 0.45800 0.22500 0.20200
H 	H 	0.64500 0.58800 0.25500 0.19900
H 	H 	0.70300 0.58100 0.39100 0.15900
H 	H 	0.88600 0.52700 0.43900 0.14800
Co	Co	0.34704 0.13614 0.20740 1.14100
O 	O 	0.27830 0.94490 0.24720 -0.43500
O 	O 	0.37690 0.73370 0.25310 -0.47400
O 	O 	0.51890 0.16740 0.32080 -0.47500
O 	O 	0.78110 0.09720 0.40090 -0.55300
O 	O 	0.47820 0.27210 0.13750 -0.51700
O 	O 	0.64760 0.28480 0.03370 -0.51300
N 	N 	0.60070 0.02420 0.18440 -0.05800
C 	C 	0.53820 0.88480 0.17490 -0.30900
C 	C 	0.38610 0.85230 0.23030 0.41100
C 	C 	0.74810 0.04060 0.25850 -0.72600
C 	C 	0.67580 0.10410 0.33270 0.55900
C 	C 	0.66300 0.08070 0.10910 -0.37300
C 	C 	0.59160 0.22350 0.09290 0.39700
H 	H 	0.47900 0.87000 0.11600 0.09100
H 	H 	0.64600 0.82500 0.18400 0.14300
H 	H 	0.79800 0.95800 0.27500 0.32400
H 	H 	0.85500 0.08800 0.24500 0.27000
H 	H 	0.79700 0.08100 0.10900 0.13000
H 	H 	0.61400 0.02700 0.06100 0.06300
Co	Co	0.84704 0.36386 0.70740 1.18200
O 	O 	0.77830 0.55510 0.74720 -0.46400
O 	O 	0.87690 0.76630 0.75310 -0.46000
O 	O 	0.01890 0.33260 0.82080 -0.47300
O 	O 	0.28110 0.40280 0.90090 -0.50400
O 	O 	0.97820 0.22790 0.63750 -0.43700
O 	O 	0.14760 0.21520 0.53370 -0.47800
N 	N 	0.10070 0.47580 0.68440 -0.03400
C 	C 	0.03820 0.61520 0.67490 -0.55900
C 	C 	0.88610 0.64770 0.73030 0.51800
C 	C 	0.24810 0.45940 0.75850 -0.53900
C 	C 	0.17580 0.39590 0.83270 0.50400
C 	C 	0.16300 0.41930 0.60910 -0.37500
C 	C 	0.09160 0.27650 0.59290 0.33500
H 	H 	0.97900 0.63000 0.61600 0.20700
H 	H 	0.14600 0.67500 0.68400 0.20600
H 	H 	0.29800 0.54200 0.77500 0.21200
H 	H 	0.35500 0.41200 0.74500 0.21000
H 	H 	0.29700 0.41900 0.60900 0.14500
H 	H 	0.11400 0.47300 0.56100 0.10400
Co	Co	0.65296 0.86386 0.79260 1.18700
O 	O 	0.72170 0.05510 0.75280 -0.48700
O 	O 	0.62310 0.26630 0.74690 -0.47200
O 	O 	0.48110 0.83260 0.67920 -0.42700
O 	O 	0.21890 0.90280 0.59910 -0.50300
O 	O 	0.52180 0.72790 0.86250 -0.48300
O 	O 	0.35240 0.71520 0.96630 -0.42200
N 	N 	0.39930 0.97580 0.81560 -0.02200
C 	C 	0.46180 0.11520 0.82510 -0.46700
C 	C 	0.61390 0.14770 0.76970 0.46000
C 	C 	0.25190 0.95940 0.74150 -0.30400
C 	C 	0.32420 0.89590 0.66730 0.44800
C 	C 	0.33700 0.91930 0.89090 -0.42400
C 	C 	0.40840 0.77650 0.90710 0.42800
H 	H 	0.52100 0.13000 0.88400 0.15600
H 	H 	0.35400 0.17500 0.81600 0.18200
H 	H 	0.20200 0.04200 0.72500 0.07600
H 	H 	0.14500 0.91200 0.75500 0.13700
H 	H 	0.20300 0.91900 0.89100 0.17900
H 	H 	0.38600 0.97300 0.93900 0.19000
Ca	Ca	0.00000 0.00000 0.50000 1.48100
Ca	Ca	0.50000 0.50000 -0.00000 1.48300
