data_crystal

_cell_length_a 11.21480
_cell_length_b 17.36050
_cell_length_c 26.97090
_cell_angle_alpha 84.06700
_cell_angle_beta  85.01200
_cell_angle_gamma 71.92000

_symmetry_space_group_name_	'P 1'
_symmetry_space_group_name_H-M	'P 1'

loop_
_symmetry_equiv_pos_as_xyz
  x,y,z

loop_
_atom_site_label
_atom_site_type_symbol
_atom_site_fract_x
_atom_site_fract_y
_atom_site_fract_z
_atom_site_charge
Sm	Sm	0.75334 0.94411 0.59488 1.98900
O 	O 	0.81370 0.86390 0.67090 -0.50200
O 	O 	0.65460 0.03350 0.65570 -0.53800
O 	O 	0.88550 0.90930 0.51960 -0.54500
O 	O 	0.75190 0.08450 0.54770 -0.63600
O 	O 	0.92370 0.99030 0.61690 -0.71600
O 	O 	0.57610 0.98440 0.55160 -0.60900
C 	C 	0.93050 0.81840 0.67680 0.40900
C 	C 	0.55160 0.05030 0.68190 0.52200
C 	C 	0.97130 0.93220 0.50060 0.37800
Sm	Sm	0.94116 0.11140 0.56859 2.11000
C 	C 	0.65430 0.13050 0.52690 0.51400
Sm	Sm	0.13538 0.89697 0.60798 2.09700
C 	C 	0.95880 0.77890 0.72810 -0.18800
O 	O 	0.01280 0.81340 0.64290 -0.51500
C 	C 	0.55740 0.04910 0.73820 -0.18200
O 	O 	0.44670 0.06770 0.66470 -0.62000
C 	C 	0.00560 0.92170 0.44460 -0.07200
O 	O 	0.03260 0.97070 0.52140 -0.48900
O 	O 	0.05630 0.14230 0.49410 -0.50300
O 	O 	0.81480 0.23370 0.52610 -0.53700
O 	O 	0.15070 0.03100 0.58290 -0.73100
O 	O 	0.05070 0.18960 0.60710 -0.68700
O 	O 	0.82770 0.15880 0.64510 -0.57100
C 	C 	0.65380 0.13470 0.47060 -0.18000
O 	O 	0.55920 0.17280 0.54970 -0.53900
O 	O 	0.29550 0.79280 0.65570 -0.43200
O 	O 	0.33750 0.90860 0.64700 -0.47500
O 	O 	0.08440 0.93810 0.69530 -0.48100
O 	O 	0.16400 0.79080 0.54960 -0.41400
O 	O 	0.30690 0.85440 0.54200 -0.41000
C 	C 	0.86190 0.78220 0.76620 0.06900
C 	C 	0.08450 0.73980 0.73780 0.09500
C 	C 	0.44930 0.08280 0.76490 0.05800
C 	C 	0.67240 0.01850 0.76140 0.06700
Sm	Sm	0.25807 0.09920 0.62783 2.22300
C 	C 	0.09980 0.94770 0.41980 0.04000
C 	C 	0.93840 0.88550 0.41890 0.00700
C 	C 	0.09970 0.19900 0.47540 0.48500
C 	C 	0.83550 0.30050 0.51260 0.44800
Sm	Sm	0.07281 0.31937 0.57509 2.06000
C 	C 	0.54720 0.17350 0.44640 0.06900
C 	C 	0.76670 0.09630 0.44360 0.03300
Sm	Sm	0.45207 0.27779 0.60158 1.91000
C 	C 	0.33850 0.84400 0.67070 0.34100
C 	C 	0.11460 0.98860 0.71620 0.47600
C 	C 	0.25820 0.80550 0.52360 0.31200
C 	C 	0.89450 0.75050 0.81420 -0.05100
C 	C 	0.11410 0.70910 0.78580 -0.04300
C 	C 	0.45210 0.08630 0.81650 -0.02700
C 	C 	0.67350 0.02080 0.81310 -0.02900
C 	C 	0.12640 0.93930 0.36780 -0.02300
C 	C 	0.95800 0.87970 0.36760 -0.05000
C 	C 	0.11330 0.20740 0.42010 -0.17200
O 	O 	0.13240 0.24490 0.50050 -0.50900
C 	C 	0.81500 0.33680 0.46040 -0.16800
O 	O 	0.88130 0.33810 0.54060 -0.56700
O 	O 	0.14850 0.04790 0.69530 -0.54100
O 	O 	0.20710 0.20030 0.68690 -0.54200
O 	O 	0.37300 0.05490 0.55030 -0.54100
O 	O 	0.28960 0.22430 0.58390 -0.69500
O 	O 	0.92490 0.34100 0.64960 -0.45600
O 	O 	0.08870 0.38080 0.65360 -0.46100
O 	O 	0.18590 0.39200 0.52160 -0.57700
C 	C 	0.54610 0.17360 0.39530 -0.03000
C 	C 	0.76740 0.09890 0.39210 -0.03200
C 	C 	0.39570 0.82600 0.72190 -0.10600
C 	C 	0.10660 0.98040 0.77350 -0.15400
C 	C 	0.30400 0.77340 0.47620 -0.10600
C 	C 	0.01940 0.71500 0.82430 0.04500
C 	C 	0.56560 0.05540 0.84040 0.02100
C 	C 	0.05520 0.91010 0.34140 0.04300
C 	C 	0.17110 0.26470 0.39620 0.07400
C 	C 	0.05960 0.16710 0.39110 0.08300
C 	C 	0.76730 0.29940 0.42730 0.04700
C 	C 	0.85600 0.40480 0.44260 0.02200
C 	C 	0.26060 0.24220 0.70520 0.49400
C 	C 	0.47440 0.01480 0.53030 0.54900
C 	C 	0.98640 0.37460 0.67140 0.33000
C 	C 	0.29330 0.38020 0.50160 0.50500
C 	C 	0.65760 0.13400 0.36700 0.01700
C 	C 	0.42340 0.88490 0.74500 0.01500
C 	C 	0.41380 0.74600 0.74680 0.03400
C 	C 	0.15660 0.02900 0.79940 0.06300
C 	C 	0.05600 0.92410 0.79980 0.07200
C 	C 	0.24040 0.73160 0.45240 0.03300
C 	C 	0.40880 0.79000 0.45020 0.03600
C 	C 	0.05620 0.68250 0.87410 0.05700
C 	C 	0.56580 0.06080 0.89540 0.00500
C 	C 	0.06920 0.90840 0.28620 0.00000
C 	C 	0.18000 0.27590 0.34590 -0.04600
C 	C 	0.06320 0.18070 0.33990 -0.02800
C 	C 	0.75820 0.33040 0.37830 -0.02500
C 	C 	0.84300 0.43300 0.39290 -0.03000
C 	C 	0.22700 0.26280 0.75730 -0.17800
O 	O 	0.35030 0.26560 0.68050 -0.54900
C 	C 	0.47490 0.99770 0.47580 -0.18700
O 	O 	0.62870 0.23060 0.64750 -0.61500
O 	O 	0.39450 0.34180 0.51960 -0.54800
C 	C 	0.93900 0.40500 0.72200 -0.16000
C 	C 	0.29660 0.41530 0.44750 -0.16300
C 	C 	0.66230 0.13400 0.31290 0.00700
C 	C 	0.45820 0.87270 0.79270 -0.00900
C 	C 	0.44100 0.73710 0.79630 -0.02000
C 	C 	0.15180 0.01980 0.85000 -0.01800
C 	C 	0.05200 0.91680 0.85130 -0.01800
C 	C 	0.27380 0.70750 0.40640 0.01800
C 	C 	0.45400 0.76040 0.40720 -0.00900
C 	C 	0.99400 0.63660 0.90580 -0.08000
C 	C 	0.16100 0.69270 0.89150 -0.03100
C 	C 	0.48360 0.12720 0.91840 -0.01200
C 	C 	0.64140 0.00000 0.92640 -0.00700
C 	C 	0.13830 0.95510 0.25730 -0.01500
C 	C 	0.02400 0.86230 0.25840 0.00000
C 	C 	0.12570 0.23660 0.31670 0.08800
C 	C 	0.80350 0.39450 0.35790 0.01000
C 	C 	0.29420 0.30290 0.78130 0.05700
C 	C 	0.13210 0.23920 0.78350 0.08300
C 	C 	0.36520 0.03420 0.45000 0.07800
C 	C 	0.58310 0.95140 0.45190 0.05100
C 	C 	0.73030 0.19730 0.66530 0.60200
C 	C 	0.83100 0.39030 0.74540 0.05300
C 	C 	0.00230 0.44480 0.74920 0.10900
C 	C 	0.19090 0.45880 0.42340 0.06200
C 	C 	0.41400 0.39560 0.41930 0.05300
C 	C 	0.58750 0.19740 0.28180 -0.01500
C 	C 	0.74000 0.06460 0.28790 -0.01800
C 	C 	0.46040 0.79840 0.82110 -0.00400
C 	C 	0.10560 0.96100 0.87780 0.01600
C 	C 	0.38100 0.72010 0.38300 -0.07000
C 	C 	0.03400 0.60570 0.95190 0.07600
C 	C 	0.19700 0.66870 0.94350 0.03200
C 	C 	0.48350 0.13140 0.96830 0.03600
C 	C 	0.64130 0.00630 0.97720 0.00800
C 	C 	0.15000 0.95810 0.20900 0.02000
C 	C 	0.03060 0.87010 0.20970 0.03400
C 	C 	0.12030 0.25250 0.26140 -0.15500
C 	C 	0.80520 0.41990 0.30600 0.01300
C 	C 	0.26710 0.31400 0.83180 -0.02400
C 	C 	0.10540 0.25200 0.83250 -0.01800
C 	C 	0.36960 0.02640 0.39970 -0.02500
C 	C 	0.58530 0.94070 0.40060 -0.02900
C 	C 	0.73710 0.20100 0.72190 -0.18500
C 	C 	0.78100 0.41530 0.79100 -0.03900
C 	C 	0.95270 0.46820 0.79750 -0.07700
C 	C 	0.19580 0.48850 0.37380 -0.02100
C 	C 	0.41510 0.42750 0.36950 -0.02400
C 	C 	0.59800 0.19010 0.23070 0.02300
C 	C 	0.74160 0.06580 0.23810 0.02500
C 	C 	0.48680 0.78580 0.87490 0.04300
C 	C 	0.10530 0.94990 0.93320 -0.00900
C 	C 	0.44200 0.70210 0.33080 0.38900
N 	N 	0.13280 0.62440 0.97250 -0.22000
N 	N 	0.56090 0.07440 0.99940 -0.22000
N 	N 	0.09720 0.91610 0.18180 -0.22800
C 	C 	0.20000 0.29970 0.23530 0.02500
C 	C 	0.08800 0.21800 0.22970 0.62900
C 	C 	0.86830 0.46940 0.28090 -0.03400
C 	C 	0.71400 0.42800 0.27480 -0.01600
C 	C 	0.17940 0.28500 0.85930 0.01600
C 	C 	0.47860 0.97930 0.37330 0.01400
C 	C 	0.84670 0.16510 0.74510 0.07100
C 	C 	0.62720 0.24270 0.74980 0.05300
C 	C 	0.84750 0.45370 0.81890 0.03000
C 	C 	0.30640 0.46780 0.34340 0.01500
N 	N 	0.67580 0.12770 0.20800 -0.22900
C 	C 	0.54200 0.83900 0.90070 -0.23900
C 	C 	0.54100 0.71000 0.89820 -0.83600
C 	C 	0.18300 0.98080 0.95920 0.01700
C 	C 	0.02680 0.91650 0.96380 0.04400
C 	C 	0.35300 0.71910 0.28830 -0.03300
C 	C 	0.55900 0.69500 0.31600 -0.09800
Cu	Cu	0.18270 0.58896 0.04205 0.76400
Cu	Cu	0.53930 0.08410 0.07437 0.75200
Cu	Cu	0.10090 0.93160 0.10950 0.85800
C 	C 	0.18500 0.32150 0.18630 -0.01000
C 	C 	0.09800 0.23400 0.17680 -0.46600
C 	C 	0.87900 0.48400 0.23130 0.09200
C 	C 	0.70100 0.46600 0.22300 0.02300
C 	C 	0.16020 0.29360 0.91360 0.02100
C 	C 	0.48180 0.97700 0.31980 -0.00200
C 	C 	0.85140 0.16830 0.79690 -0.04300
C 	C 	0.63250 0.24660 0.80030 -0.03000
C 	C 	0.79460 0.47400 0.86980 0.00400
C 	C 	0.31400 0.48910 0.29160 0.00600
Cu	Cu	0.70066 0.12685 0.13223 0.76600
C 	C 	0.52000 0.83600 0.94850 0.46200
C 	C 	0.57000 0.69800 0.94970 0.72900
C 	C 	0.22400 0.95200 0.00820 -0.44000
C 	C 	0.02660 0.91160 0.01650 0.00300
C 	C 	0.40800 0.71010 0.24470 0.50200
C 	C 	0.60700 0.66500 0.27160 0.29100
I 	I 	0.01927 0.51341 0.09062 -0.84900
I 	I 	0.18472 0.71380 0.09244 -0.78900
I 	I 	0.39892 0.47041 0.04476 -0.67800
I 	I 	0.72837 0.96391 0.11416 -0.80000
I 	I 	0.30394 0.08557 0.10108 -0.49600
I 	I 	0.51445 0.23678 0.09124 -0.64000
N 	N 	0.11070 0.29130 0.15770 -0.17000
N 	N 	0.80830 0.46040 0.20160 -0.22000
C 	C 	0.19900 0.34820 0.93630 -0.01700
C 	C 	0.10630 0.24420 0.94580 -0.02500
C 	C 	0.41210 0.04160 0.28910 -0.00700
C 	C 	0.54990 0.90700 0.29630 -0.00700
C 	C 	0.74400 0.20980 0.82440 0.02100
C 	C 	0.66700 0.49340 0.88230 -0.01100
C 	C 	0.87130 0.46270 0.90860 -0.02100
C 	C 	0.21900 0.55900 0.26890 0.06200
C 	C 	0.42700 0.48000 0.26320 -0.01900
N 	N 	0.75480 0.22170 0.98350 -0.21800
N 	N 	0.52950 0.76260 0.97750 -0.17900
N 	N 	0.10810 0.93170 0.03840 -0.23200
N 	N 	0.52600 0.68660 0.23170 -0.33000
Cu	Cu	0.80880 0.48430 0.12471 0.71600
Cu	Cu	0.96770 0.67478 0.09365 0.74100
Cu	Cu	0.10050 0.31560 0.08721 0.84400
Cu	Cu	0.36060 0.57250 0.11030 0.44200
Cu	Cu	0.69310 0.82095 0.10655 0.72400
Cu	Cu	0.49086 0.97179 0.13980 0.77800
Cu	Cu	0.74989 0.22541 0.05830 0.79200
C 	C 	0.17370 0.35660 0.98880 0.06100
C 	C 	0.08970 0.25030 0.99560 0.07800
C 	C 	0.41570 0.03600 0.23680 0.01600
C 	C 	0.54820 0.90690 0.24420 -0.00100
C 	C 	0.74740 0.21550 0.88000 0.00300
C 	C 	0.62230 0.50310 0.93090 0.02900
C 	C 	0.82100 0.47280 0.95830 0.00500
C 	C 	0.22800 0.55920 0.21470 0.04300
C 	C 	0.41000 0.46570 0.20560 -0.02100
Cu	Cu	0.59640 0.74428 0.04765 0.75700
Cu	Cu	0.60580 0.70845 0.16130 0.72100
I 	I 	0.60511 0.60248 0.09769 -1.17100
I 	I 	0.79219 0.35744 0.08628 -0.75400
I 	I 	0.82015 0.76459 0.02249 -0.72100
I 	I 	0.82986 0.72060 0.17723 -0.73900
N 	N 	0.31700 0.53730 0.18630 -0.26500
I 	I 	0.44368 0.84010 0.11248 -0.91600
N 	N 	0.48170 0.97030 0.21490 -0.23200
I 	I 	0.93400 0.11414 0.10259 -0.60200
N 	N 	0.12700 0.30280 0.01800 -0.27600
C 	C 	0.82550 0.15100 0.90820 -0.01700
C 	C 	0.67000 0.28260 0.90400 -0.01200
N 	N 	0.69950 0.49090 0.96820 -0.21600
Cu	Cu	0.63240 0.47855 0.04125 0.81800
C 	C 	0.82970 0.15560 0.96110 0.00600
C 	C 	0.67730 0.28310 0.95490 0.02600
Cu	Cu	0.39560 0.70390 0.14120 0.78800
Cu	Cu	0.81470 0.57440 0.14420 0.66400
C 	C 	0.46900 0.71800 0.90420 0.81500
C 	C 	0.17300 0.98510 0.00950 0.42500
C 	C 	0.37900 0.69800 0.21610 -0.59300
C 	C 	0.27000 0.71800 0.29500 0.13200
C 	C 	0.37300 0.70800 0.31440 -0.39400
C 	C 	0.56500 0.66400 0.31880 -0.12800
Cu	Cu	0.30630 0.56450 0.11560 0.44800
C 	C 	0.78200 0.37800 0.21310 -0.04500
C 	C 	0.78100 0.36100 0.26830 0.02500
C 	C 	0.20400 0.52600 0.26150 -0.08200
C 	C 	0.39300 0.43700 0.25570 0.01300
C 	C 	0.01700 0.23700 0.23710 -0.53300
C 	C 	0.02700 0.25950 0.18100 0.41400
C 	C 	0.80800 0.51100 0.22000 -0.17300
C 	C 	0.68200 0.66900 0.25300 -0.24000
C 	C 	0.46200 0.83160 0.95620 -0.40500
C 	C 	0.46100 0.84600 0.90800 0.16000
C 	C 	0.49600 0.70820 0.95660 -0.69600
