data_crystal

_cell_length_a 10.51050
_cell_length_b 11.43900
_cell_length_c 13.44430
_cell_angle_alpha 68.99800
_cell_angle_beta  78.80500
_cell_angle_gamma 63.73200

_symmetry_space_group_name_	'P 1'
_symmetry_space_group_name_H-M	'P 1'

loop_
_symmetry_equiv_pos_as_xyz
  x,y,z

loop_
_atom_site_label
_atom_site_type_symbol
_atom_site_fract_x
_atom_site_fract_y
_atom_site_fract_z
_atom_site_charge
U 	U 	0.62220 0.71335 0.83679 0.00500
Tm	Tm	0.59821 0.23153 0.75042 1.41700
C 	C 	0.99480 0.34350 0.85360 -0.02000
C 	C 	0.11200 0.31410 0.90800 -0.02300
H 	H 	0.09860 0.36160 0.95530 0.07700
C 	C 	0.24850 0.21610 0.89410 -0.06700
C 	C 	0.26500 0.14550 0.82310 -0.07700
C 	C 	0.14620 0.16620 0.77460 0.01800
H 	H 	0.15750 0.11140 0.73370 0.04800
C 	C 	0.01280 0.26650 0.78620 -0.06100
C 	C 	0.62560 0.99900 0.45210 -0.01200
H 	H 	0.71220 0.99870 0.41950 0.05800
C 	C 	0.61660 0.87740 0.50450 -0.03600
C 	C 	0.48990 0.87420 0.55540 -0.03600
C 	C 	0.86400 0.46260 0.85720 0.26000
C 	C 	0.36280 0.19500 0.95550 0.31600
C 	C 	0.40700 0.04300 0.79540 0.34500
C 	C 	0.89450 0.29180 0.72590 0.34400
C 	C 	0.46810 0.74610 0.62010 0.29300
C 	C 	0.74530 0.74700 0.50770 0.27600
O 	O 	0.85160 0.53610 0.91480 -0.18900
O 	O 	0.76050 0.49620 0.80120 -0.18700
O 	O 	0.81200 0.23510 0.77120 -0.42900
O 	O 	0.88610 0.36240 0.62680 -0.22100
O 	O 	0.41750 0.92100 0.81850 -0.20400
O 	O 	0.50300 0.08010 0.75420 -0.42200
O 	O 	0.48460 0.18000 0.91520 -0.40400
O 	O 	0.32900 0.19490 0.05170 -0.20400
O 	O 	0.50180 0.69400 0.71720 -0.19100
O 	O 	0.41220 0.69940 0.57960 -0.27700
O 	O 	0.73500 0.63480 0.53490 -0.20200
O 	O 	0.86570 0.75050 0.47970 -0.20000
U 	U 	0.37780 0.28665 0.16321 0.00600
Tm	Tm	0.40179 0.76847 0.24958 1.41800
C 	C 	0.00520 0.65650 0.14640 -0.02000
C 	C 	0.88800 0.68590 0.09200 -0.02100
H 	H 	0.90140 0.63840 0.04470 0.07700
C 	C 	0.75150 0.78390 0.10590 -0.06700
C 	C 	0.73500 0.85450 0.17690 -0.07600
C 	C 	0.85380 0.83380 0.22540 0.01700
H 	H 	0.84250 0.88860 0.26630 0.04800
C 	C 	0.98720 0.73350 0.21380 -0.06000
C 	C 	0.37440 0.00100 0.54790 -0.01200
H 	H 	0.28780 0.00130 0.58050 0.05800
C 	C 	0.38340 0.12260 0.49550 -0.03600
C 	C 	0.51010 0.12580 0.44460 -0.03600
C 	C 	0.13600 0.53740 0.14280 0.26000
C 	C 	0.63720 0.80500 0.04450 0.31700
C 	C 	0.59300 0.95700 0.20460 0.34500
C 	C 	0.10550 0.70820 0.27410 0.34400
C 	C 	0.53190 0.25390 0.37990 0.29300
C 	C 	0.25470 0.25300 0.49230 0.27600
O 	O 	0.14840 0.46390 0.08520 -0.18900
O 	O 	0.23950 0.50380 0.19880 -0.18700
O 	O 	0.18800 0.76490 0.22880 -0.42900
O 	O 	0.11390 0.63760 0.37320 -0.22100
O 	O 	0.58250 0.07900 0.18150 -0.20400
O 	O 	0.49700 0.91990 0.24580 -0.42200
O 	O 	0.51540 0.82000 0.08480 -0.40400
O 	O 	0.67100 0.80510 0.94830 -0.20400
O 	O 	0.49820 0.30600 0.28280 -0.19100
O 	O 	0.58780 0.30060 0.42040 -0.27700
O 	O 	0.26500 0.36520 0.46510 -0.20200
O 	O 	0.13430 0.24950 0.52030 -0.20000
U 	U 	-0.00000 0.50000 0.50000 0.00400
