data_crystal

_cell_length_a 11.00100
_cell_length_b 11.56300
_cell_length_c 13.43200
_cell_angle_alpha 69.35800
_cell_angle_beta  79.86900
_cell_angle_gamma 61.86400

_symmetry_space_group_name_	'P 1'
_symmetry_space_group_name_H-M	'P 1'

loop_
_symmetry_equiv_pos_as_xyz
  x,y,z

loop_
_atom_site_label
_atom_site_type_symbol
_atom_site_fract_x
_atom_site_fract_y
_atom_site_fract_z
_atom_site_charge
U 	U 	0.63330 0.70125 0.83377 -0.00100
La	La	0.62438 0.21280 0.77521 1.45600
O 	O 	0.85920 0.52710 0.90570 -0.19900
O 	O 	0.77610 0.48340 0.79510 -0.20900
O 	O 	0.86220 0.20330 0.76090 -0.42100
O 	O 	0.90380 0.35500 0.62280 -0.21900
O 	O 	0.42970 0.90850 0.82830 -0.21200
O 	O 	0.51690 0.05840 0.77650 -0.38500
O 	O 	0.47450 0.17480 0.93290 -0.40500
O 	O 	0.30950 0.21720 0.05330 -0.21400
O 	O 	0.50820 0.69160 0.71360 -0.19900
O 	O 	0.42530 0.70160 0.57030 -0.27500
O 	O 	0.73820 0.63090 0.53140 -0.19800
O 	O 	0.85590 0.74970 0.47640 -0.19900
C 	C 	0.01060 0.33660 0.84540 -0.03800
C 	C 	0.11810 0.31030 0.90490 -0.01500
H 	H 	0.09880 0.35980 0.95190 0.07200
C 	C 	0.25120 0.21400 0.89670 -0.07600
C 	C 	0.28030 0.13260 0.83030 -0.07400
C 	C 	0.16940 0.15330 0.77440 0.00500
H 	H 	0.18590 0.09700 0.73340 0.05100
C 	C 	0.03610 0.25650 0.78000 -0.05200
C 	C 	0.62160 0.99870 0.45100 -0.01300
H 	H 	0.70380 0.99810 0.41860 0.05700
C 	C 	0.61670 0.87500 0.50240 -0.03900
C 	C 	0.49170 0.87600 0.55430 -0.03300
C 	C 	0.87630 0.45270 0.84970 0.27300
C 	C 	0.35540 0.19970 0.96220 0.32300
C 	C 	0.41950 0.02810 0.81040 0.32900
C 	C 	0.92320 0.27600 0.71720 0.34300
C 	C 	0.47520 0.74630 0.61480 0.28900
C 	C 	0.74250 0.74410 0.50550 0.27600
U 	U 	0.36670 0.29875 0.16623 -0.00000
La	La	0.37562 0.78720 0.22479 1.45700
O 	O 	0.14080 0.47290 0.09430 -0.19900
O 	O 	0.22390 0.51660 0.20490 -0.20900
O 	O 	0.13780 0.79670 0.23910 -0.42100
O 	O 	0.09620 0.64500 0.37720 -0.21900
O 	O 	0.57030 0.09150 0.17170 -0.21200
O 	O 	0.48310 0.94160 0.22350 -0.38500
O 	O 	0.52550 0.82520 0.06710 -0.40500
O 	O 	0.69050 0.78280 0.94670 -0.21400
O 	O 	0.49180 0.30840 0.28640 -0.19900
O 	O 	0.57470 0.29840 0.42970 -0.27500
O 	O 	0.26180 0.36910 0.46860 -0.19900
O 	O 	0.14410 0.25030 0.52360 -0.19900
C 	C 	0.98940 0.66340 0.15460 -0.03800
C 	C 	0.88190 0.68970 0.09510 -0.01600
H 	H 	0.90120 0.64020 0.04810 0.07200
C 	C 	0.74880 0.78600 0.10330 -0.07600
C 	C 	0.71970 0.86740 0.16970 -0.07400
C 	C 	0.83060 0.84670 0.22560 0.00500
H 	H 	0.81410 0.90300 0.26660 0.05100
C 	C 	0.96390 0.74350 0.22000 -0.05200
C 	C 	0.37840 0.00130 0.54900 -0.01300
H 	H 	0.29620 0.00190 0.58140 0.05700
C 	C 	0.38330 0.12500 0.49760 -0.03900
C 	C 	0.50830 0.12400 0.44570 -0.03300
C 	C 	0.12370 0.54730 0.15030 0.27200
C 	C 	0.64460 0.80030 0.03780 0.32300
C 	C 	0.58050 0.97190 0.18960 0.32900
C 	C 	0.07680 0.72400 0.28280 0.34200
C 	C 	0.52480 0.25370 0.38520 0.28900
C 	C 	0.25750 0.25590 0.49450 0.27600
U 	U 	-0.00000 0.50000 0.50000 0.00600
