data_crystal

_cell_length_a 30.24200
_cell_length_b 30.24200
_cell_length_c 13.40600
_cell_angle_alpha 90.00000
_cell_angle_beta  90.00000
_cell_angle_gamma 120.00000

_symmetry_space_group_name_	'P 1'
_symmetry_space_group_name_H-M	'P 1'

loop_
_symmetry_equiv_pos_as_xyz
  x,y,z

loop_
_atom_site_label
_atom_site_type_symbol
_atom_site_fract_x
_atom_site_fract_y
_atom_site_fract_z
_atom_site_charge
O 	O 	0.25450 0.58240 0.39390 -0.52000
C 	C 	0.20400 0.48090 0.15880 0.04200
H 	H 	0.17170 0.47000 0.13100 0.00600
C 	C 	0.21860 0.51520 0.23710 -0.04300
H 	H 	0.19710 0.52680 0.26150 0.05600
C 	C 	0.10870 0.35220 0.05740 0.29500
C 	C 	0.02654 0.34160 0.98200 -0.04100
H 	H 	0.04480 0.36920 0.93830 0.05100
O 	O 	0.13600 0.34280 0.11440 -0.26500
C 	C 	0.02668 0.28480 0.11080 -0.01600
H 	H 	0.04510 0.27480 0.15240 0.05600
C 	C 	0.05180 0.32670 0.04730 -0.10600
O 	O 	0.41760 0.67210 0.39390 -0.51900
C 	C 	0.51910 0.72310 0.15880 0.04300
H 	H 	0.53000 0.70170 0.13100 0.00600
C 	C 	0.48480 0.70340 0.23710 -0.04300
H 	H 	0.47320 0.67030 0.26150 0.05600
C 	C 	0.64780 0.75650 0.05740 0.29500
C 	C 	0.65840 0.68494 0.98200 -0.04200
H 	H 	0.63080 0.67560 0.93830 0.05100
O 	O 	0.65720 0.79320 0.11440 -0.26500
C 	C 	0.71520 0.74188 0.11080 -0.01600
H 	H 	0.72520 0.77030 0.15240 0.05600
C 	C 	0.67330 0.72510 0.04730 -0.10600
O 	O 	0.32790 0.74550 0.39390 -0.51900
C 	C 	0.27690 0.79600 0.15880 0.04300
H 	H 	0.29830 0.82830 0.13100 0.00600
C 	C 	0.29660 0.78140 0.23710 -0.04300
H 	H 	0.32970 0.80290 0.26150 0.05600
C 	C 	0.24350 0.89130 0.05740 0.29500
C 	C 	0.31506 0.97346 0.98200 -0.04200
H 	H 	0.32440 0.95520 0.93830 0.05100
O 	O 	0.20680 0.86400 0.11440 -0.26500
C 	C 	0.25812 0.97332 0.11080 -0.01700
H 	H 	0.22970 0.95490 0.15240 0.05600
C 	C 	0.27490 0.94820 0.04730 -0.10600
O 	O 	0.74550 0.41760 0.39390 -0.51900
C 	C 	0.79600 0.51910 0.15880 0.04300
H 	H 	0.82830 0.53000 0.13100 0.00600
C 	C 	0.78140 0.48480 0.23710 -0.04300
H 	H 	0.80290 0.47320 0.26150 0.05600
C 	C 	0.89130 0.64780 0.05740 0.29500
C 	C 	0.97346 0.65840 0.98200 -0.04100
H 	H 	0.95520 0.63080 0.93830 0.05100
O 	O 	0.86400 0.65720 0.11440 -0.26500
C 	C 	0.97332 0.71520 0.11080 -0.01600
H 	H 	0.95490 0.72520 0.15240 0.05600
C 	C 	0.94820 0.67330 0.04730 -0.10600
O 	O 	0.58240 0.32790 0.39390 -0.51900
C 	C 	0.48090 0.27690 0.15880 0.04300
H 	H 	0.47000 0.29830 0.13100 0.00600
C 	C 	0.51520 0.29660 0.23710 -0.04300
H 	H 	0.52680 0.32970 0.26150 0.05600
C 	C 	0.35220 0.24350 0.05740 0.29500
C 	C 	0.34160 0.31506 0.98200 -0.04200
H 	H 	0.36920 0.32440 0.93830 0.05100
O 	O 	0.34280 0.20680 0.11440 -0.26500
C 	C 	0.28480 0.25812 0.11080 -0.01600
H 	H 	0.27480 0.22970 0.15240 0.05600
C 	C 	0.32670 0.27490 0.04730 -0.10600
O 	O 	0.67210 0.25450 0.39390 -0.51900
C 	C 	0.72310 0.20400 0.15880 0.04300
H 	H 	0.70170 0.17170 0.13100 0.00600
C 	C 	0.70340 0.21860 0.23710 -0.04300
H 	H 	0.67030 0.19710 0.26150 0.05600
C 	C 	0.75650 0.10870 0.05740 0.29500
C 	C 	0.68494 0.02654 0.98200 -0.04200
H 	H 	0.67560 0.04480 0.93830 0.05100
O 	O 	0.79320 0.13600 0.11440 -0.26500
C 	C 	0.74188 0.02668 0.11080 -0.01700
H 	H 	0.77030 0.04510 0.15240 0.05600
C 	C 	0.72510 0.05180 0.04730 -0.10600
O 	O 	0.58240 0.25450 0.60610 -0.51800
C 	C 	0.48090 0.20400 0.84120 0.04400
H 	H 	0.47000 0.17170 0.86900 0.01100
C 	C 	0.51520 0.21860 0.76290 -0.04100
H 	H 	0.52680 0.19710 0.73850 0.05700
C 	C 	0.35220 0.10870 0.94260 0.30100
C 	C 	0.34160 0.02654 0.01800 0.03500
H 	H 	0.36920 0.04480 0.06170 0.03100
O 	O 	0.34280 0.13600 0.88560 -0.26000
C 	C 	0.28480 0.02668 0.88920 -0.03000
H 	H 	0.27480 0.04510 0.84760 0.06400
C 	C 	0.32670 0.05180 0.95270 -0.03500
O 	O 	0.67210 0.41760 0.60610 -0.51800
C 	C 	0.72310 0.51910 0.84120 0.04400
H 	H 	0.70170 0.53000 0.86900 0.01100
C 	C 	0.70340 0.48480 0.76290 -0.04100
H 	H 	0.67030 0.47320 0.73850 0.05700
C 	C 	0.75650 0.64780 0.94260 0.30100
C 	C 	0.68494 0.65840 0.01800 0.03500
H 	H 	0.67560 0.63080 0.06170 0.03100
O 	O 	0.79320 0.65720 0.88560 -0.26000
C 	C 	0.74188 0.71520 0.88920 -0.03000
H 	H 	0.77030 0.72520 0.84760 0.06400
C 	C 	0.72510 0.67330 0.95270 -0.03400
O 	O 	0.74550 0.32790 0.60610 -0.51800
C 	C 	0.79600 0.27690 0.84120 0.04400
H 	H 	0.82830 0.29830 0.86900 0.01100
C 	C 	0.78140 0.29660 0.76290 -0.04100
H 	H 	0.80290 0.32970 0.73850 0.05700
C 	C 	0.89130 0.24350 0.94260 0.30100
C 	C 	0.97346 0.31506 0.01800 0.03400
H 	H 	0.95520 0.32440 0.06170 0.03100
O 	O 	0.86400 0.20680 0.88560 -0.26000
C 	C 	0.97332 0.25812 0.88920 -0.03000
H 	H 	0.95490 0.22970 0.84760 0.06400
C 	C 	0.94820 0.27490 0.95270 -0.03500
O 	O 	0.41760 0.74550 0.60610 -0.51800
C 	C 	0.51910 0.79600 0.84120 0.04400
H 	H 	0.53000 0.82830 0.86900 0.01100
C 	C 	0.48480 0.78140 0.76290 -0.04100
H 	H 	0.47320 0.80290 0.73850 0.05700
C 	C 	0.64780 0.89130 0.94260 0.30100
C 	C 	0.65840 0.97346 0.01800 0.03500
H 	H 	0.63080 0.95520 0.06170 0.03100
O 	O 	0.65720 0.86400 0.88560 -0.26000
C 	C 	0.71520 0.97332 0.88920 -0.03000
H 	H 	0.72520 0.95490 0.84760 0.06400
C 	C 	0.67330 0.94820 0.95270 -0.03500
O 	O 	0.32790 0.58240 0.60610 -0.51800
C 	C 	0.27690 0.48090 0.84120 0.04400
H 	H 	0.29830 0.47000 0.86900 0.01100
C 	C 	0.29660 0.51520 0.76290 -0.04100
H 	H 	0.32970 0.52680 0.73850 0.05700
C 	C 	0.24350 0.35220 0.94260 0.30100
C 	C 	0.31506 0.34160 0.01800 0.03500
H 	H 	0.32440 0.36920 0.06170 0.03100
O 	O 	0.20680 0.34280 0.88560 -0.26000
C 	C 	0.25812 0.28480 0.88920 -0.03000
H 	H 	0.22970 0.27480 0.84760 0.06400
C 	C 	0.27490 0.32670 0.95270 -0.03400
O 	O 	0.25450 0.67210 0.60610 -0.51800
C 	C 	0.20400 0.72310 0.84120 0.04400
H 	H 	0.17170 0.70170 0.86900 0.01100
C 	C 	0.21860 0.70340 0.76290 -0.04100
H 	H 	0.19710 0.67030 0.73850 0.05700
C 	C 	0.10870 0.75650 0.94260 0.30100
C 	C 	0.02654 0.68494 0.01800 0.03400
H 	H 	0.04480 0.67560 0.06170 0.03100
O 	O 	0.13600 0.79320 0.88560 -0.26000
C 	C 	0.02668 0.74188 0.88920 -0.03000
H 	H 	0.04510 0.77030 0.84760 0.06400
C 	C 	0.05180 0.72510 0.95270 -0.03500
O 	O 	0.74550 0.41760 0.60610 -0.51800
C 	C 	0.79600 0.51910 0.84120 0.04400
H 	H 	0.82830 0.53000 0.86900 0.01100
C 	C 	0.78140 0.48480 0.76290 -0.04100
H 	H 	0.80290 0.47320 0.73850 0.05700
C 	C 	0.89130 0.64780 0.94260 0.30100
C 	C 	0.97346 0.65840 0.01800 0.03500
H 	H 	0.95520 0.63080 0.06170 0.03100
O 	O 	0.86400 0.65720 0.88560 -0.26000
C 	C 	0.97332 0.71520 0.88920 -0.03000
H 	H 	0.95490 0.72520 0.84760 0.06400
C 	C 	0.94820 0.67330 0.95270 -0.03500
O 	O 	0.58240 0.32790 0.60610 -0.51800
C 	C 	0.48090 0.27690 0.84120 0.04400
H 	H 	0.47000 0.29830 0.86900 0.01100
C 	C 	0.51520 0.29660 0.76290 -0.04100
H 	H 	0.52680 0.32970 0.73850 0.05700
C 	C 	0.35220 0.24350 0.94260 0.30100
C 	C 	0.34160 0.31506 0.01800 0.03500
H 	H 	0.36920 0.32440 0.06170 0.03100
O 	O 	0.34280 0.20680 0.88560 -0.26000
C 	C 	0.28480 0.25812 0.88920 -0.03000
H 	H 	0.27480 0.22970 0.84760 0.06400
C 	C 	0.32670 0.27490 0.95270 -0.03400
O 	O 	0.67210 0.25450 0.60610 -0.51800
C 	C 	0.72310 0.20400 0.84120 0.04400
H 	H 	0.70170 0.17170 0.86900 0.01100
C 	C 	0.70340 0.21860 0.76290 -0.04100
H 	H 	0.67030 0.19710 0.73850 0.05700
C 	C 	0.75650 0.10870 0.94260 0.30100
C 	C 	0.68494 0.02654 0.01800 0.03400
H 	H 	0.67560 0.04480 0.06170 0.03100
O 	O 	0.79320 0.13600 0.88560 -0.26000
C 	C 	0.74188 0.02668 0.88920 -0.03000
H 	H 	0.77030 0.04510 0.84760 0.06400
C 	C 	0.72510 0.05180 0.95270 -0.03500
O 	O 	0.25450 0.58240 0.60610 -0.51800
C 	C 	0.20400 0.48090 0.84120 0.04400
H 	H 	0.17170 0.47000 0.86900 0.01100
C 	C 	0.21860 0.51520 0.76290 -0.04100
H 	H 	0.19710 0.52680 0.73850 0.05700
C 	C 	0.10870 0.35220 0.94260 0.30100
C 	C 	0.02654 0.34160 0.01800 0.03500
H 	H 	0.04480 0.36920 0.06170 0.03100
O 	O 	0.13600 0.34280 0.88560 -0.26000
C 	C 	0.02668 0.28480 0.88920 -0.03000
H 	H 	0.04510 0.27480 0.84760 0.06400
C 	C 	0.05180 0.32670 0.95270 -0.03500
O 	O 	0.41760 0.67210 0.60610 -0.51800
C 	C 	0.51910 0.72310 0.84120 0.04400
H 	H 	0.53000 0.70170 0.86900 0.01100
C 	C 	0.48480 0.70340 0.76290 -0.04100
H 	H 	0.47320 0.67030 0.73850 0.05700
C 	C 	0.64780 0.75650 0.94260 0.30100
C 	C 	0.65840 0.68494 0.01800 0.03500
H 	H 	0.63080 0.67560 0.06170 0.03100
O 	O 	0.65720 0.79320 0.88560 -0.26000
C 	C 	0.71520 0.74188 0.88920 -0.03000
H 	H 	0.72520 0.77030 0.84760 0.06400
C 	C 	0.67330 0.72510 0.95270 -0.03400
O 	O 	0.32790 0.74550 0.60610 -0.51800
C 	C 	0.27690 0.79600 0.84120 0.04400
H 	H 	0.29830 0.82830 0.86900 0.01100
C 	C 	0.29660 0.78140 0.76290 -0.04100
H 	H 	0.32970 0.80290 0.73850 0.05700
C 	C 	0.24350 0.89130 0.94260 0.30100
C 	C 	0.31506 0.97346 0.01800 0.03400
H 	H 	0.32440 0.95520 0.06170 0.03100
O 	O 	0.20680 0.86400 0.88560 -0.26000
C 	C 	0.25812 0.97332 0.88920 -0.03000
H 	H 	0.22970 0.95490 0.84760 0.06400
C 	C 	0.27490 0.94820 0.95270 -0.03500
O 	O 	0.41760 0.74550 0.39390 -0.51900
C 	C 	0.51910 0.79600 0.15880 0.04300
H 	H 	0.53000 0.82830 0.13100 0.00600
C 	C 	0.48480 0.78140 0.23710 -0.04300
H 	H 	0.47320 0.80290 0.26150 0.05600
C 	C 	0.64780 0.89130 0.05740 0.29500
C 	C 	0.65840 0.97346 0.98200 -0.04100
H 	H 	0.63080 0.95520 0.93830 0.05100
O 	O 	0.65720 0.86400 0.11440 -0.26500
C 	C 	0.71520 0.97332 0.11080 -0.01600
H 	H 	0.72520 0.95490 0.15240 0.05600
C 	C 	0.67330 0.94820 0.04730 -0.10600
O 	O 	0.32790 0.58240 0.39390 -0.51900
C 	C 	0.27690 0.48090 0.15880 0.04300
H 	H 	0.29830 0.47000 0.13100 0.00600
C 	C 	0.29660 0.51520 0.23710 -0.04300
H 	H 	0.32970 0.52680 0.26150 0.05600
C 	C 	0.24350 0.35220 0.05740 0.29500
C 	C 	0.31506 0.34160 0.98200 -0.04200
H 	H 	0.32440 0.36920 0.93830 0.05100
O 	O 	0.20680 0.34280 0.11440 -0.26500
C 	C 	0.25812 0.28480 0.11080 -0.01600
H 	H 	0.22970 0.27480 0.15240 0.05600
C 	C 	0.27490 0.32670 0.04730 -0.10600
O 	O 	0.25450 0.67210 0.39390 -0.51900
C 	C 	0.20400 0.72310 0.15880 0.04300
H 	H 	0.17170 0.70170 0.13100 0.00600
C 	C 	0.21860 0.70340 0.23710 -0.04300
H 	H 	0.19710 0.67030 0.26150 0.05600
C 	C 	0.10870 0.75650 0.05740 0.29500
C 	C 	0.02654 0.68494 0.98200 -0.04200
H 	H 	0.04480 0.67560 0.93830 0.05100
O 	O 	0.13600 0.79320 0.11440 -0.26500
C 	C 	0.02668 0.74188 0.11080 -0.01700
H 	H 	0.04510 0.77030 0.15240 0.05600
C 	C 	0.05180 0.72510 0.04730 -0.10600
O 	O 	0.58240 0.25450 0.39390 -0.51900
C 	C 	0.48090 0.20400 0.15880 0.04300
H 	H 	0.47000 0.17170 0.13100 0.00600
C 	C 	0.51520 0.21860 0.23710 -0.04300
H 	H 	0.52680 0.19710 0.26150 0.05600
C 	C 	0.35220 0.10870 0.05740 0.29500
C 	C 	0.34160 0.02654 0.98200 -0.04100
H 	H 	0.36920 0.04480 0.93830 0.05100
O 	O 	0.34280 0.13600 0.11440 -0.26500
C 	C 	0.28480 0.02668 0.11080 -0.01600
H 	H 	0.27480 0.04510 0.15240 0.05600
C 	C 	0.32670 0.05180 0.04730 -0.10600
O 	O 	0.67210 0.41760 0.39390 -0.51900
C 	C 	0.72310 0.51910 0.15880 0.04300
H 	H 	0.70170 0.53000 0.13100 0.00600
C 	C 	0.70340 0.48480 0.23710 -0.04300
H 	H 	0.67030 0.47320 0.26150 0.05600
C 	C 	0.75650 0.64780 0.05740 0.29500
C 	C 	0.68494 0.65840 0.98200 -0.04200
H 	H 	0.67560 0.63080 0.93830 0.05100
O 	O 	0.79320 0.65720 0.11440 -0.26500
C 	C 	0.74188 0.71520 0.11080 -0.01600
H 	H 	0.77030 0.72520 0.15240 0.05600
C 	C 	0.72510 0.67330 0.04730 -0.10600
O 	O 	0.74550 0.32790 0.39390 -0.51900
C 	C 	0.79600 0.27690 0.15880 0.04300
H 	H 	0.82830 0.29830 0.13100 0.00600
C 	C 	0.78140 0.29660 0.23710 -0.04300
H 	H 	0.80290 0.32970 0.26150 0.05600
C 	C 	0.89130 0.24350 0.05740 0.29500
C 	C 	0.97346 0.31506 0.98200 -0.04200
H 	H 	0.95520 0.32440 0.93830 0.05100
O 	O 	0.86400 0.20680 0.11440 -0.26500
C 	C 	0.97332 0.25812 0.11080 -0.01700
H 	H 	0.95490 0.22970 0.15240 0.05600
C 	C 	0.94820 0.27490 0.04730 -0.10600
Zn	Zn	0.20631 0.41262 -0.00000 1.23100
Zn	Zn	0.58738 0.79369 -0.00000 1.23100
Zn	Zn	0.20631 0.79369 -0.00000 1.23100
Zn	Zn	0.79369 0.58738 -0.00000 1.23100
Zn	Zn	0.41262 0.20631 -0.00000 1.23100
Zn	Zn	0.79369 0.20631 -0.00000 1.23100
Cr	Cr	0.26023 0.63011 0.50000 1.55200
Cr	Cr	0.36989 0.63011 0.50000 1.55200
Cr	Cr	0.36989 0.73977 0.50000 1.55200
Cr	Cr	0.73977 0.36989 0.50000 1.55200
Cr	Cr	0.63011 0.36989 0.50000 1.55200
Cr	Cr	0.63011 0.26023 0.50000 1.55200
C 	C 	0.26570 0.53140 0.27720 -0.07900
N 	N 	0.23085 0.46170 0.11900 -0.24200
C 	C 	0.28390 0.56780 0.36120 0.42700
C 	C 	0.46860 0.73430 0.27720 -0.07900
N 	N 	0.53830 0.76915 0.11900 -0.24200
C 	C 	0.43220 0.71610 0.36120 0.42700
C 	C 	0.26570 0.73430 0.27720 -0.07900
N 	N 	0.23085 0.76915 0.11900 -0.24200
C 	C 	0.28390 0.71610 0.36120 0.42700
C 	C 	0.73430 0.46860 0.27720 -0.07900
N 	N 	0.76915 0.53830 0.11900 -0.24200
C 	C 	0.71610 0.43220 0.36120 0.42700
C 	C 	0.53140 0.26570 0.27720 -0.07900
N 	N 	0.46170 0.23085 0.11900 -0.24200
C 	C 	0.56780 0.28390 0.36120 0.42700
C 	C 	0.73430 0.26570 0.27720 -0.07900
N 	N 	0.76915 0.23085 0.11900 -0.24200
C 	C 	0.71610 0.28390 0.36120 0.42700
C 	C 	0.53140 0.26570 0.72280 -0.07800
N 	N 	0.46170 0.23085 0.88100 -0.23600
C 	C 	0.56780 0.28390 0.63880 0.42800
C 	C 	0.73430 0.46860 0.72280 -0.07800
N 	N 	0.76915 0.53830 0.88100 -0.23600
C 	C 	0.71610 0.43220 0.63880 0.42800
C 	C 	0.73430 0.26570 0.72280 -0.07800
N 	N 	0.76915 0.23085 0.88100 -0.23600
C 	C 	0.71610 0.28390 0.63880 0.42800
C 	C 	0.46860 0.73430 0.72280 -0.07800
N 	N 	0.53830 0.76915 0.88100 -0.23600
C 	C 	0.43220 0.71610 0.63880 0.42800
C 	C 	0.26570 0.53140 0.72280 -0.07800
N 	N 	0.23085 0.46170 0.88100 -0.23600
C 	C 	0.28390 0.56780 0.63880 0.42800
C 	C 	0.26570 0.73430 0.72280 -0.07800
N 	N 	0.23085 0.76915 0.88100 -0.23600
C 	C 	0.28390 0.71610 0.63880 0.42800
O 	O 	0.13400 0.38810 -0.00000 -0.54200
O 	O 	0.61190 0.74590 -0.00000 -0.54200
O 	O 	0.25410 0.86600 -0.00000 -0.54200
O 	O 	0.86600 0.61190 -0.00000 -0.54200
O 	O 	0.38810 0.25410 -0.00000 -0.54200
O 	O 	0.74590 0.13400 -0.00000 -0.54200
O 	O 	0.38810 0.13400 -0.00000 -0.54200
O 	O 	0.74590 0.61190 -0.00000 -0.54200
O 	O 	0.86600 0.25410 -0.00000 -0.54200
O 	O 	0.61190 0.86600 -0.00000 -0.54200
O 	O 	0.25410 0.38810 -0.00000 -0.54200
O 	O 	0.13400 0.74590 -0.00000 -0.54200
O 	O 	0.33333 0.66667 0.50000 -0.80600
O 	O 	0.66667 0.33333 0.50000 -0.80600
