data_crystal

_cell_length_a 6.65370
_cell_length_b 8.09980
_cell_length_c 20.17900
_cell_angle_alpha 90.00000
_cell_angle_beta  90.00000
_cell_angle_gamma 90.00000

_symmetry_space_group_name_	'P 1'
_symmetry_space_group_name_H-M	'P 1'

loop_
_symmetry_equiv_pos_as_xyz
  x,y,z

loop_
_atom_site_label
_atom_site_type_symbol
_atom_site_fract_x
_atom_site_fract_y
_atom_site_fract_z
_atom_site_charge
Y 	Y 	0.50681 0.94595 0.11947 2.40200
O 	O 	0.17010 0.93590 0.15590 -0.50100
O 	O 	0.51060 0.58900 0.28169 -0.54500
O 	O 	0.83250 0.59940 0.98053 -0.52600
O 	O 	0.40070 0.22290 0.09013 -0.41400
O 	O 	0.67440 0.12830 0.04277 -0.43100
O 	O 	0.83870 0.95750 0.16045 -0.49000
O 	O 	0.49760 0.72120 0.18650 -0.55900
O 	O 	0.68680 0.73450 0.06301 -0.51300
C 	C 	0.54990 0.24100 0.05256 0.33500
H 	H 	0.56840 0.34390 0.03090 -0.01500
C 	C 	0.00380 0.96900 0.13083 0.51400
H 	H 	0.00200 0.00560 0.08610 -0.12800
C 	C 	0.74500 0.72120 0.00448 0.55800
H 	H 	0.72040 0.81190 0.97580 -0.15800
C 	C 	0.41920 0.66710 0.23804 0.62800
H 	H 	0.27990 0.68690 0.24450 -0.14300
Y 	Y 	0.99319 0.05405 0.61947 2.39800
O 	O 	0.32990 0.06410 0.65590 -0.50700
O 	O 	0.98940 0.41100 0.78169 -0.54400
O 	O 	0.66750 0.40060 0.48053 -0.53800
O 	O 	0.09930 0.77710 0.59013 -0.40500
O 	O 	0.82560 0.87170 0.54277 -0.42900
O 	O 	0.66130 0.04250 0.66045 -0.50800
O 	O 	0.00240 0.27880 0.68650 -0.55100
O 	O 	0.81320 0.26550 0.56301 -0.52200
C 	C 	0.95010 0.75900 0.55256 0.32100
H 	H 	0.93160 0.65610 0.53090 -0.01400
C 	C 	0.49620 0.03100 0.63083 0.54700
H 	H 	0.49800 0.99440 0.58610 -0.14100
C 	C 	0.75500 0.27880 0.50448 0.56700
H 	H 	0.77960 0.18810 0.47580 -0.16800
C 	C 	0.08080 0.33290 0.73804 0.62200
H 	H 	0.22010 0.31310 0.74450 -0.14100
Y 	Y 	0.49319 0.44595 0.38053 2.40100
O 	O 	0.82990 0.43590 0.34410 -0.50700
O 	O 	0.48940 0.08900 0.21831 -0.54400
O 	O 	0.16750 0.09940 0.51947 -0.53100
O 	O 	0.59930 0.72290 0.40987 -0.41600
O 	O 	0.32560 0.62830 0.45723 -0.43000
O 	O 	0.16130 0.45750 0.33955 -0.49600
O 	O 	0.50240 0.22120 0.31350 -0.55700
O 	O 	0.31320 0.23450 0.43699 -0.51400
C 	C 	0.45010 0.74100 0.44744 0.33400
H 	H 	0.43160 0.84390 0.46910 -0.01500
C 	C 	0.99620 0.46900 0.36917 0.54400
H 	H 	0.99800 0.50560 0.41390 -0.14800
C 	C 	0.25500 0.22120 0.49552 0.56600
H 	H 	0.27960 0.31190 0.52420 -0.16200
C 	C 	0.58080 0.16710 0.26196 0.62700
H 	H 	0.72010 0.18690 0.25550 -0.14300
Y 	Y 	0.00681 0.55405 0.88053 2.40000
O 	O 	0.67010 0.56410 0.84410 -0.50900
O 	O 	0.01060 0.91100 0.71831 -0.54800
O 	O 	0.33250 0.90060 0.01947 -0.54000
O 	O 	0.90070 0.27710 0.90987 -0.40500
O 	O 	0.17440 0.37170 0.95723 -0.43300
O 	O 	0.33870 0.54250 0.83955 -0.50800
O 	O 	0.99760 0.77880 0.81350 -0.55100
O 	O 	0.18680 0.76550 0.93699 -0.52100
C 	C 	0.04990 0.25900 0.94744 0.31800
H 	H 	0.06840 0.15610 0.96910 -0.01400
C 	C 	0.50380 0.53100 0.86917 0.56000
H 	H 	0.50200 0.49440 0.91390 -0.14900
C 	C 	0.24500 0.77880 0.99552 0.56500
H 	H 	0.22040 0.68810 0.02420 -0.16500
C 	C 	0.91920 0.83290 0.76196 0.63200
H 	H 	0.77990 0.81310 0.75550 -0.14200
