data_crystal

_cell_length_a 19.29070
_cell_length_b 19.29070
_cell_length_c 19.29070
_cell_angle_alpha 90.00000
_cell_angle_beta  90.00000
_cell_angle_gamma 90.00000

_symmetry_space_group_name_	'P 1'
_symmetry_space_group_name_H-M	'P 1'

loop_
_symmetry_equiv_pos_as_xyz
  x,y,z

loop_
_atom_site_label
_atom_site_type_symbol
_atom_site_fract_x
_atom_site_fract_y
_atom_site_fract_z
_atom_site_charge
V 	V 	0.75509 0.39102 0.14242 1.75300
O 	O 	0.80451 0.48174 0.15148 -0.55900
O 	O 	0.80893 0.80864 0.13710 -0.55900
O 	O 	0.74087 0.72206 0.10263 -0.56200
O 	O 	0.89115 0.45975 0.22602 -0.56800
C 	C 	0.79530 0.74479 0.13075 0.45100
C 	C 	0.85500 0.50048 0.18967 0.45600
C 	C 	0.84526 0.69392 0.16074 -0.19300
C 	C 	0.83040 0.62343 0.15697 0.12500
H 	H 	0.79249 0.60811 0.13144 0.00800
C 	C 	0.87225 0.57596 0.19139 -0.18900
C 	C 	0.92870 0.59920 0.23010 0.10700
H 	H 	0.95600 0.56750 0.25410 0.00100
C 	C 	0.90300 0.71670 0.19770 0.10900
H 	H 	0.91400 0.76360 0.19880 0.00000
C 	C 	0.94410 0.66930 0.23280 -0.17000
H 	H 	0.98220 0.68450 0.25820 0.09300
V 	V 	0.74491 0.60898 0.64242 1.75400
O 	O 	0.69549 0.51826 0.65148 -0.55800
O 	O 	0.69107 0.19136 0.63710 -0.55800
O 	O 	0.75913 0.27794 0.60263 -0.56200
O 	O 	0.60885 0.54025 0.72602 -0.56700
C 	C 	0.70470 0.25521 0.63075 0.45200
C 	C 	0.64500 0.49952 0.68967 0.45700
C 	C 	0.65474 0.30608 0.66074 -0.19300
C 	C 	0.66960 0.37657 0.65697 0.12500
H 	H 	0.70751 0.39189 0.63144 0.00800
C 	C 	0.62775 0.42404 0.69139 -0.19000
C 	C 	0.57130 0.40080 0.73010 0.10700
H 	H 	0.54400 0.43250 0.75410 0.00100
C 	C 	0.59700 0.28330 0.69770 0.10900
H 	H 	0.58600 0.23640 0.69880 0.00000
C 	C 	0.55590 0.33070 0.73280 -0.17000
H 	H 	0.51780 0.31550 0.75820 0.09300
V 	V 	0.24491 0.89102 0.35758 1.75400
O 	O 	0.19549 0.98174 0.34852 -0.55400
O 	O 	0.19107 0.30864 0.36290 -0.55800
O 	O 	0.25913 0.22206 0.39737 -0.56200
O 	O 	0.10885 0.95975 0.27398 -0.56200
C 	C 	0.20470 0.24479 0.36925 0.45100
C 	C 	0.14500 0.00048 0.31033 0.44800
C 	C 	0.15474 0.19392 0.33926 -0.19200
C 	C 	0.16960 0.12343 0.34303 0.12300
H 	H 	0.20751 0.10811 0.36856 0.00800
C 	C 	0.12775 0.07596 0.30861 -0.18700
C 	C 	0.07130 0.09920 0.26990 0.10500
H 	H 	0.04400 0.06750 0.24590 -0.00000
C 	C 	0.09700 0.21670 0.30230 0.10700
H 	H 	0.08600 0.26360 0.30120 0.00000
C 	C 	0.05590 0.16930 0.26720 -0.16900
H 	H 	0.01780 0.18450 0.24180 0.09100
V 	V 	0.25509 0.10898 0.85758 1.75400
O 	O 	0.30451 0.01826 0.84852 -0.55700
O 	O 	0.30893 0.69136 0.86290 -0.55800
O 	O 	0.24087 0.77794 0.89737 -0.56200
O 	O 	0.39115 0.04025 0.77398 -0.56500
C 	C 	0.29530 0.75521 0.86925 0.45100
C 	C 	0.35500 0.99952 0.81033 0.45400
C 	C 	0.34526 0.80608 0.83926 -0.19300
C 	C 	0.33040 0.87657 0.84303 0.12400
H 	H 	0.29249 0.89189 0.86856 0.00800
C 	C 	0.37225 0.92404 0.80861 -0.18900
C 	C 	0.42870 0.90080 0.76990 0.10700
H 	H 	0.45600 0.93250 0.74590 0.00100
C 	C 	0.40300 0.78330 0.80230 0.10800
H 	H 	0.41400 0.73640 0.80120 0.00000
C 	C 	0.44410 0.83070 0.76720 -0.17000
H 	H 	0.48220 0.81550 0.74180 0.09300
V 	V 	0.14242 0.75509 0.39102 1.75400
O 	O 	0.15148 0.80451 0.48174 -0.55800
O 	O 	0.13710 0.80893 0.80864 -0.55800
O 	O 	0.10263 0.74087 0.72206 -0.56100
O 	O 	0.22602 0.89115 0.45975 -0.56700
C 	C 	0.13075 0.79530 0.74479 0.45200
C 	C 	0.18967 0.85500 0.50048 0.45700
C 	C 	0.16074 0.84526 0.69392 -0.19200
C 	C 	0.15697 0.83040 0.62343 0.12500
H 	H 	0.13144 0.79249 0.60811 0.00800
C 	C 	0.19139 0.87225 0.57596 -0.18900
C 	C 	0.23010 0.92870 0.59920 0.10700
H 	H 	0.25410 0.95600 0.56750 0.00100
C 	C 	0.19770 0.90300 0.71670 0.10900
H 	H 	0.19880 0.91400 0.76360 0.00000
C 	C 	0.23280 0.94410 0.66930 -0.17000
H 	H 	0.25820 0.98220 0.68450 0.09300
V 	V 	0.64242 0.74491 0.60898 1.75400
O 	O 	0.65148 0.69549 0.51826 -0.55800
O 	O 	0.63710 0.69107 0.19136 -0.55800
O 	O 	0.60263 0.75913 0.27794 -0.56200
O 	O 	0.72602 0.60885 0.54025 -0.56700
C 	C 	0.63075 0.70470 0.25521 0.45200
C 	C 	0.68967 0.64500 0.49952 0.45700
C 	C 	0.66074 0.65474 0.30608 -0.19300
C 	C 	0.65697 0.66960 0.37657 0.12500
H 	H 	0.63144 0.70751 0.39189 0.00800
C 	C 	0.69139 0.62775 0.42404 -0.19000
C 	C 	0.73010 0.57130 0.40080 0.10700
H 	H 	0.75410 0.54400 0.43250 0.00100
C 	C 	0.69770 0.59700 0.28330 0.10900
H 	H 	0.69880 0.58600 0.23640 0.00000
C 	C 	0.73280 0.55590 0.33070 -0.17000
H 	H 	0.75820 0.51780 0.31550 0.09300
V 	V 	0.35758 0.24491 0.89102 1.75400
O 	O 	0.34852 0.19549 0.98174 -0.55400
O 	O 	0.36290 0.19107 0.30864 -0.55800
O 	O 	0.39737 0.25913 0.22206 -0.56200
O 	O 	0.27398 0.10885 0.95975 -0.56200
C 	C 	0.36925 0.20470 0.24479 0.45100
C 	C 	0.31033 0.14500 0.00048 0.44800
C 	C 	0.33926 0.15474 0.19392 -0.19200
C 	C 	0.34303 0.16960 0.12343 0.12300
H 	H 	0.36856 0.20751 0.10811 0.00800
C 	C 	0.30861 0.12775 0.07596 -0.18700
C 	C 	0.26990 0.07130 0.09920 0.10500
H 	H 	0.24590 0.04400 0.06750 -0.00000
C 	C 	0.30230 0.09700 0.21670 0.10700
H 	H 	0.30120 0.08600 0.26360 0.00000
C 	C 	0.26720 0.05590 0.16930 -0.16900
H 	H 	0.24180 0.01780 0.18450 0.09100
V 	V 	0.85758 0.25509 0.10898 1.75400
O 	O 	0.84852 0.30451 0.01826 -0.55700
O 	O 	0.86290 0.30893 0.69136 -0.55800
O 	O 	0.89737 0.24087 0.77794 -0.56200
O 	O 	0.77398 0.39115 0.04025 -0.56500
C 	C 	0.86925 0.29530 0.75521 0.45100
C 	C 	0.81033 0.35500 0.99952 0.45400
C 	C 	0.83926 0.34526 0.80608 -0.19300
C 	C 	0.84303 0.33040 0.87657 0.12400
H 	H 	0.86856 0.29249 0.89189 0.00800
C 	C 	0.80861 0.37225 0.92404 -0.18900
C 	C 	0.76990 0.42870 0.90080 0.10700
H 	H 	0.74590 0.45600 0.93250 0.00100
C 	C 	0.80230 0.40300 0.78330 0.10800
H 	H 	0.80120 0.41400 0.73640 0.00000
C 	C 	0.76720 0.44410 0.83070 -0.17000
H 	H 	0.74180 0.48220 0.81550 0.09300
V 	V 	0.39102 0.14242 0.75509 1.75400
O 	O 	0.48174 0.15148 0.80451 -0.55800
O 	O 	0.80864 0.13710 0.80893 -0.55800
O 	O 	0.72206 0.10263 0.74087 -0.56100
O 	O 	0.45975 0.22602 0.89115 -0.56700
C 	C 	0.74479 0.13075 0.79530 0.45200
C 	C 	0.50048 0.18967 0.85500 0.45700
C 	C 	0.69392 0.16074 0.84526 -0.19200
C 	C 	0.62343 0.15697 0.83040 0.12500
H 	H 	0.60811 0.13144 0.79249 0.00800
C 	C 	0.57596 0.19139 0.87225 -0.18900
C 	C 	0.59920 0.23010 0.92870 0.10700
H 	H 	0.56750 0.25410 0.95600 0.00100
C 	C 	0.71670 0.19770 0.90300 0.10900
H 	H 	0.76360 0.19880 0.91400 0.00000
C 	C 	0.66930 0.23280 0.94410 -0.17000
H 	H 	0.68450 0.25820 0.98220 0.09300
V 	V 	0.60898 0.64242 0.74491 1.75400
O 	O 	0.51826 0.65148 0.69549 -0.55800
O 	O 	0.19136 0.63710 0.69107 -0.55800
O 	O 	0.27794 0.60263 0.75913 -0.56200
O 	O 	0.54025 0.72602 0.60885 -0.56700
C 	C 	0.25521 0.63075 0.70470 0.45200
C 	C 	0.49952 0.68967 0.64500 0.45700
C 	C 	0.30608 0.66074 0.65474 -0.19300
C 	C 	0.37657 0.65697 0.66960 0.12500
H 	H 	0.39189 0.63144 0.70751 0.00800
C 	C 	0.42404 0.69139 0.62775 -0.19000
C 	C 	0.40080 0.73010 0.57130 0.10700
H 	H 	0.43250 0.75410 0.54400 0.00100
C 	C 	0.28330 0.69770 0.59700 0.10900
H 	H 	0.23640 0.69880 0.58600 0.00000
C 	C 	0.33070 0.73280 0.55590 -0.17000
H 	H 	0.31550 0.75820 0.51780 0.09300
V 	V 	0.89102 0.35758 0.24491 1.75400
O 	O 	0.98174 0.34852 0.19549 -0.55400
O 	O 	0.30864 0.36290 0.19107 -0.55800
O 	O 	0.22206 0.39737 0.25913 -0.56200
O 	O 	0.95975 0.27398 0.10885 -0.56200
C 	C 	0.24479 0.36925 0.20470 0.45100
C 	C 	0.00048 0.31033 0.14500 0.44800
C 	C 	0.19392 0.33926 0.15474 -0.19200
C 	C 	0.12343 0.34303 0.16960 0.12300
H 	H 	0.10811 0.36856 0.20751 0.00800
C 	C 	0.07596 0.30861 0.12775 -0.18700
C 	C 	0.09920 0.26990 0.07130 0.10500
H 	H 	0.06750 0.24590 0.04400 -0.00000
C 	C 	0.21670 0.30230 0.09700 0.10700
H 	H 	0.26360 0.30120 0.08600 0.00000
C 	C 	0.16930 0.26720 0.05590 -0.16900
H 	H 	0.18450 0.24180 0.01780 0.09100
V 	V 	0.10898 0.85758 0.25509 1.75400
O 	O 	0.01826 0.84852 0.30451 -0.55700
O 	O 	0.69136 0.86290 0.30893 -0.55800
O 	O 	0.77794 0.89737 0.24087 -0.56200
O 	O 	0.04025 0.77398 0.39115 -0.56500
C 	C 	0.75521 0.86925 0.29530 0.45100
C 	C 	0.99952 0.81033 0.35500 0.45400
C 	C 	0.80608 0.83926 0.34526 -0.19300
C 	C 	0.87657 0.84303 0.33040 0.12400
H 	H 	0.89189 0.86856 0.29249 0.00800
C 	C 	0.92404 0.80861 0.37225 -0.18900
C 	C 	0.90080 0.76990 0.42870 0.10700
H 	H 	0.93250 0.74590 0.45600 0.00100
C 	C 	0.78330 0.80230 0.40300 0.10800
H 	H 	0.73640 0.80120 0.41400 0.00000
C 	C 	0.83070 0.76720 0.44410 -0.17000
H 	H 	0.81550 0.74180 0.48220 0.09300
V 	V 	0.24491 0.60898 0.85758 1.75400
O 	O 	0.19549 0.51826 0.84852 -0.55800
O 	O 	0.19107 0.19136 0.86290 -0.55800
O 	O 	0.25913 0.27794 0.89737 -0.56100
O 	O 	0.10885 0.54025 0.77398 -0.56700
C 	C 	0.20470 0.25521 0.86925 0.45200
C 	C 	0.14500 0.49952 0.81033 0.45700
C 	C 	0.15474 0.30608 0.83926 -0.19200
C 	C 	0.16960 0.37657 0.84303 0.12500
H 	H 	0.20751 0.39189 0.86856 0.00800
C 	C 	0.12775 0.42404 0.80861 -0.18900
C 	C 	0.07130 0.40080 0.76990 0.10700
H 	H 	0.04400 0.43250 0.74590 0.00100
C 	C 	0.09700 0.28330 0.80230 0.10900
H 	H 	0.08600 0.23640 0.80120 0.00000
C 	C 	0.05590 0.33070 0.76720 -0.17000
H 	H 	0.01780 0.31550 0.74180 0.09300
V 	V 	0.25509 0.39102 0.35758 1.75400
O 	O 	0.30451 0.48174 0.34852 -0.55800
O 	O 	0.30893 0.80864 0.36290 -0.55800
O 	O 	0.24087 0.72206 0.39737 -0.56200
O 	O 	0.39115 0.45975 0.27398 -0.56700
C 	C 	0.29530 0.74479 0.36925 0.45200
C 	C 	0.35500 0.50048 0.31033 0.45700
C 	C 	0.34526 0.69392 0.33926 -0.19300
C 	C 	0.33040 0.62343 0.34303 0.12500
H 	H 	0.29249 0.60811 0.36856 0.00800
C 	C 	0.37225 0.57596 0.30861 -0.19000
C 	C 	0.42870 0.59920 0.26990 0.10700
H 	H 	0.45600 0.56750 0.24590 0.00100
C 	C 	0.40300 0.71670 0.30230 0.10900
H 	H 	0.41400 0.76360 0.30120 0.00000
C 	C 	0.44410 0.66930 0.26720 -0.17000
H 	H 	0.48220 0.68450 0.24180 0.09300
V 	V 	0.75509 0.10898 0.64242 1.75400
O 	O 	0.80451 0.01826 0.65148 -0.55400
O 	O 	0.80893 0.69136 0.63710 -0.55800
O 	O 	0.74087 0.77794 0.60263 -0.56200
O 	O 	0.89115 0.04025 0.72602 -0.56200
C 	C 	0.79530 0.75521 0.63075 0.45100
C 	C 	0.85500 0.99952 0.68967 0.44800
C 	C 	0.84526 0.80608 0.66074 -0.19200
C 	C 	0.83040 0.87657 0.65697 0.12300
H 	H 	0.79249 0.89189 0.63144 0.00800
C 	C 	0.87225 0.92404 0.69139 -0.18700
C 	C 	0.92870 0.90080 0.73010 0.10500
H 	H 	0.95600 0.93250 0.75410 -0.00000
C 	C 	0.90300 0.78330 0.69770 0.10700
H 	H 	0.91400 0.73640 0.69880 0.00000
C 	C 	0.94410 0.83070 0.73280 -0.16900
H 	H 	0.98220 0.81550 0.75820 0.09100
V 	V 	0.74491 0.89102 0.14242 1.75400
O 	O 	0.69549 0.98174 0.15148 -0.55700
O 	O 	0.69107 0.30864 0.13710 -0.55800
O 	O 	0.75913 0.22206 0.10263 -0.56200
O 	O 	0.60885 0.95975 0.22602 -0.56500
C 	C 	0.70470 0.24479 0.13075 0.45100
C 	C 	0.64500 0.00048 0.18967 0.45400
C 	C 	0.65474 0.19392 0.16074 -0.19300
C 	C 	0.66960 0.12343 0.15697 0.12400
H 	H 	0.70751 0.10811 0.13144 0.00800
C 	C 	0.62775 0.07596 0.19139 -0.18900
C 	C 	0.57130 0.09920 0.23010 0.10700
H 	H 	0.54400 0.06750 0.25410 0.00100
C 	C 	0.59700 0.21670 0.19770 0.10800
H 	H 	0.58600 0.26360 0.19880 0.00000
C 	C 	0.55590 0.16930 0.23280 -0.17000
H 	H 	0.51780 0.18450 0.25820 0.09300
V 	V 	0.85758 0.24491 0.60898 1.75400
O 	O 	0.84852 0.19549 0.51826 -0.55800
O 	O 	0.86290 0.19107 0.19136 -0.55800
O 	O 	0.89737 0.25913 0.27794 -0.56100
O 	O 	0.77398 0.10885 0.54025 -0.56700
C 	C 	0.86925 0.20470 0.25521 0.45200
C 	C 	0.81033 0.14500 0.49952 0.45700
C 	C 	0.83926 0.15474 0.30608 -0.19200
C 	C 	0.84303 0.16960 0.37657 0.12500
H 	H 	0.86856 0.20751 0.39189 0.00800
C 	C 	0.80861 0.12775 0.42404 -0.18900
C 	C 	0.76990 0.07130 0.40080 0.10700
H 	H 	0.74590 0.04400 0.43250 0.00100
C 	C 	0.80230 0.09700 0.28330 0.10900
H 	H 	0.80120 0.08600 0.23640 0.00000
C 	C 	0.76720 0.05590 0.33070 -0.17000
H 	H 	0.74180 0.01780 0.31550 0.09300
V 	V 	0.35758 0.25509 0.39102 1.75400
O 	O 	0.34852 0.30451 0.48174 -0.55800
O 	O 	0.36290 0.30893 0.80864 -0.55800
O 	O 	0.39737 0.24087 0.72206 -0.56200
O 	O 	0.27398 0.39115 0.45975 -0.56700
C 	C 	0.36925 0.29530 0.74479 0.45200
C 	C 	0.31033 0.35500 0.50048 0.45700
C 	C 	0.33926 0.34526 0.69392 -0.19300
C 	C 	0.34303 0.33040 0.62343 0.12500
H 	H 	0.36856 0.29249 0.60811 0.00800
C 	C 	0.30861 0.37225 0.57596 -0.19000
C 	C 	0.26990 0.42870 0.59920 0.10700
H 	H 	0.24590 0.45600 0.56750 0.00100
C 	C 	0.30230 0.40300 0.71670 0.10900
H 	H 	0.30120 0.41400 0.76360 0.00000
C 	C 	0.26720 0.44410 0.66930 -0.17000
H 	H 	0.24180 0.48220 0.68450 0.09300
V 	V 	0.64242 0.75509 0.10898 1.75400
O 	O 	0.65148 0.80451 0.01826 -0.55400
O 	O 	0.63710 0.80893 0.69136 -0.55800
O 	O 	0.60263 0.74087 0.77794 -0.56200
O 	O 	0.72602 0.89115 0.04025 -0.56200
C 	C 	0.63075 0.79530 0.75521 0.45100
C 	C 	0.68967 0.85500 0.99952 0.44800
C 	C 	0.66074 0.84526 0.80608 -0.19200
C 	C 	0.65697 0.83040 0.87657 0.12300
H 	H 	0.63144 0.79249 0.89189 0.00800
C 	C 	0.69139 0.87225 0.92404 -0.18700
C 	C 	0.73010 0.92870 0.90080 0.10500
H 	H 	0.75410 0.95600 0.93250 -0.00000
C 	C 	0.69770 0.90300 0.78330 0.10700
H 	H 	0.69880 0.91400 0.73640 0.00000
C 	C 	0.73280 0.94410 0.83070 -0.16900
H 	H 	0.75820 0.98220 0.81550 0.09100
V 	V 	0.14242 0.74491 0.89102 1.75400
O 	O 	0.15148 0.69549 0.98174 -0.55700
O 	O 	0.13710 0.69107 0.30864 -0.55800
O 	O 	0.10263 0.75913 0.22206 -0.56200
O 	O 	0.22602 0.60885 0.95975 -0.56500
C 	C 	0.13075 0.70470 0.24479 0.45100
C 	C 	0.18967 0.64500 0.00048 0.45400
C 	C 	0.16074 0.65474 0.19392 -0.19300
C 	C 	0.15697 0.66960 0.12343 0.12400
H 	H 	0.13144 0.70751 0.10811 0.00800
C 	C 	0.19139 0.62775 0.07596 -0.18900
C 	C 	0.23010 0.57130 0.09920 0.10700
H 	H 	0.25410 0.54400 0.06750 0.00100
C 	C 	0.19770 0.59700 0.21670 0.10800
H 	H 	0.19880 0.58600 0.26360 0.00000
C 	C 	0.23280 0.55590 0.16930 -0.17000
H 	H 	0.25820 0.51780 0.18450 0.09300
V 	V 	0.60898 0.85758 0.24491 1.75400
O 	O 	0.51826 0.84852 0.19549 -0.55800
O 	O 	0.19136 0.86290 0.19107 -0.55800
O 	O 	0.27794 0.89737 0.25913 -0.56100
O 	O 	0.54025 0.77398 0.10885 -0.56700
C 	C 	0.25521 0.86925 0.20470 0.45200
C 	C 	0.49952 0.81033 0.14500 0.45700
C 	C 	0.30608 0.83926 0.15474 -0.19200
C 	C 	0.37657 0.84303 0.16960 0.12500
H 	H 	0.39189 0.86856 0.20751 0.00800
C 	C 	0.42404 0.80861 0.12775 -0.18900
C 	C 	0.40080 0.76990 0.07130 0.10700
H 	H 	0.43250 0.74590 0.04400 0.00100
C 	C 	0.28330 0.80230 0.09700 0.10900
H 	H 	0.23640 0.80120 0.08600 0.00000
C 	C 	0.33070 0.76720 0.05590 -0.17000
H 	H 	0.31550 0.74180 0.01780 0.09300
V 	V 	0.39102 0.35758 0.25509 1.75400
O 	O 	0.48174 0.34852 0.30451 -0.55800
O 	O 	0.80864 0.36290 0.30893 -0.55800
O 	O 	0.72206 0.39737 0.24087 -0.56200
O 	O 	0.45975 0.27398 0.39115 -0.56700
C 	C 	0.74479 0.36925 0.29530 0.45200
C 	C 	0.50048 0.31033 0.35500 0.45700
C 	C 	0.69392 0.33926 0.34526 -0.19300
C 	C 	0.62343 0.34303 0.33040 0.12500
H 	H 	0.60811 0.36856 0.29249 0.00800
C 	C 	0.57596 0.30861 0.37225 -0.19000
C 	C 	0.59920 0.26990 0.42870 0.10700
H 	H 	0.56750 0.24590 0.45600 0.00100
C 	C 	0.71670 0.30230 0.40300 0.10900
H 	H 	0.76360 0.30120 0.41400 0.00000
C 	C 	0.66930 0.26720 0.44410 -0.17000
H 	H 	0.68450 0.24180 0.48220 0.09300
V 	V 	0.10898 0.64242 0.75509 1.75400
O 	O 	0.01826 0.65148 0.80451 -0.55400
O 	O 	0.69136 0.63710 0.80893 -0.55800
O 	O 	0.77794 0.60263 0.74087 -0.56200
O 	O 	0.04025 0.72602 0.89115 -0.56200
C 	C 	0.75521 0.63075 0.79530 0.45100
C 	C 	0.99952 0.68967 0.85500 0.44800
C 	C 	0.80608 0.66074 0.84526 -0.19200
C 	C 	0.87657 0.65697 0.83040 0.12300
H 	H 	0.89189 0.63144 0.79249 0.00800
C 	C 	0.92404 0.69139 0.87225 -0.18700
C 	C 	0.90080 0.73010 0.92870 0.10500
H 	H 	0.93250 0.75410 0.95600 -0.00000
C 	C 	0.78330 0.69770 0.90300 0.10700
H 	H 	0.73640 0.69880 0.91400 0.00000
C 	C 	0.83070 0.73280 0.94410 -0.16900
H 	H 	0.81550 0.75820 0.98220 0.09100
V 	V 	0.89102 0.14242 0.74491 1.75400
O 	O 	0.98174 0.15148 0.69549 -0.55700
O 	O 	0.30864 0.13710 0.69107 -0.55800
O 	O 	0.22206 0.10263 0.75913 -0.56200
O 	O 	0.95975 0.22602 0.60885 -0.56500
C 	C 	0.24479 0.13075 0.70470 0.45100
C 	C 	0.00048 0.18967 0.64500 0.45400
C 	C 	0.19392 0.16074 0.65474 -0.19300
C 	C 	0.12343 0.15697 0.66960 0.12400
H 	H 	0.10811 0.13144 0.70751 0.00800
C 	C 	0.07596 0.19139 0.62775 -0.18900
C 	C 	0.09920 0.23010 0.57130 0.10700
H 	H 	0.06750 0.25410 0.54400 0.00100
C 	C 	0.21670 0.19770 0.59700 0.10800
H 	H 	0.26360 0.19880 0.58600 0.00000
C 	C 	0.16930 0.23280 0.55590 -0.17000
H 	H 	0.18450 0.25820 0.51780 0.09300
O 	O 	0.83494 0.33494 0.16506 -0.92000
O 	O 	0.66506 0.66506 0.66506 -0.92000
O 	O 	0.16506 0.83494 0.33494 -0.92000
O 	O 	0.33494 0.16506 0.83494 -0.92000
O 	O 	0.16506 0.66506 0.83494 -0.92000
O 	O 	0.33494 0.33494 0.33494 -0.92000
O 	O 	0.83494 0.16506 0.66506 -0.92000
O 	O 	0.66506 0.83494 0.16506 -0.92000
