data_crystal

_cell_length_a 10.66460
_cell_length_b 11.08970
_cell_length_c 14.72400
_cell_angle_alpha 106.80600
_cell_angle_beta  95.72700
_cell_angle_gamma 113.00100

_symmetry_space_group_name_	'P 1'
_symmetry_space_group_name_H-M	'P 1'

loop_
_symmetry_equiv_pos_as_xyz
  x,y,z

loop_
_atom_site_label
_atom_site_type_symbol
_atom_site_fract_x
_atom_site_fract_y
_atom_site_fract_z
_atom_site_charge
C 	C 	0.10870 0.06330 0.34218 0.22000
C 	C 	0.11200 0.92390 0.31551 0.14700
C 	C 	0.07270 0.84230 0.37328 -0.19400
C 	C 	0.08360 0.71650 0.35063 0.12700
C 	C 	0.12690 0.66810 0.26692 -0.22700
C 	C 	0.16110 0.74970 0.20938 0.24300
C 	C 	0.15730 0.87780 0.23258 -0.27900
C 	C 	0.05070 0.63170 0.41542 0.22400
C 	C 	0.69380 0.77790 0.14905 0.25500
C 	C 	0.60860 0.73860 0.22020 0.02900
C 	C 	0.49260 0.60780 0.18762 -0.06400
C 	C 	0.41010 0.56810 0.25071 0.03900
C 	C 	0.44110 0.66040 0.34624 -0.12700
C 	C 	0.55530 0.79010 0.37585 0.14600
C 	C 	0.64190 0.83220 0.31549 -0.09300
C 	C 	0.29000 0.42440 0.21497 0.25200
N 	N 	0.58540 0.89100 0.47593 -0.01600
N 	N 	0.20050 0.69540 0.11827 -0.03400
O 	O 	0.14834 0.13663 0.28843 -0.13600
O 	O 	0.07225 0.11076 0.41791 -0.16800
O 	O 	0.96898 0.64902 0.46855 -0.14900
O 	O 	0.10471 0.54886 0.41382 -0.15200
O 	O 	0.19908 0.39655 0.26423 -0.15800
O 	O 	0.28776 0.33805 0.13684 -0.15400
O 	O 	0.80675 0.89082 0.17874 -0.16500
O 	O 	0.64835 0.69821 0.05988 -0.16500
O 	O 	0.97867 0.92612 0.90341 -0.03300
O 	O 	0.25026 0.77666 0.07559 -0.07000
O 	O 	0.18390 0.57394 0.09112 -0.07700
O 	O 	0.54300 0.84430 0.53819 -0.07700
O 	O 	0.65078 0.01633 0.48968 -0.08600
U 	U 	0.10777 0.33038 0.38917 0.02400
U 	U 	0.84097 0.85126 0.00962 0.01900
H 	H 	0.71800 0.92900 0.34400 0.11300
H 	H 	0.47000 0.54100 0.12520 0.11200
H 	H 	0.39100 0.64700 0.39230 0.13300
H 	H 	0.04100 0.87000 0.42220 0.16000
H 	H 	0.13200 0.58700 0.24700 0.17000
H 	H 	0.18100 0.91900 0.19370 0.21100
C 	C 	0.89130 0.93670 0.65782 0.22000
C 	C 	0.88800 0.07610 0.68449 0.14700
C 	C 	0.92730 0.15770 0.62672 -0.19400
C 	C 	0.91640 0.28350 0.64937 0.12700
C 	C 	0.87310 0.33190 0.73308 -0.22700
C 	C 	0.83890 0.25030 0.79062 0.24300
C 	C 	0.84270 0.12220 0.76742 -0.27900
C 	C 	0.94930 0.36830 0.58458 0.22400
C 	C 	0.30620 0.22210 0.85095 0.25500
C 	C 	0.39140 0.26140 0.77980 0.02900
C 	C 	0.50740 0.39220 0.81238 -0.06400
C 	C 	0.58990 0.43190 0.74929 0.03900
C 	C 	0.55890 0.33960 0.65376 -0.12700
C 	C 	0.44470 0.20990 0.62415 0.14600
C 	C 	0.35810 0.16780 0.68451 -0.09300
C 	C 	0.71000 0.57560 0.78503 0.25200
N 	N 	0.41460 0.10900 0.52407 -0.01600
N 	N 	0.79950 0.30460 0.88173 -0.03400
O 	O 	0.85166 0.86337 0.71157 -0.13600
O 	O 	0.92775 0.88924 0.58209 -0.16800
O 	O 	0.03102 0.35098 0.53145 -0.14900
O 	O 	0.89529 0.45114 0.58618 -0.15200
O 	O 	0.80092 0.60345 0.73577 -0.15800
O 	O 	0.71224 0.66195 0.86316 -0.15400
O 	O 	0.19325 0.10918 0.82126 -0.16500
O 	O 	0.35165 0.30179 0.94012 -0.16500
O 	O 	0.02133 0.07388 0.09659 -0.03300
O 	O 	0.74974 0.22334 0.92441 -0.07000
O 	O 	0.81610 0.42606 0.90888 -0.07700
O 	O 	0.45700 0.15570 0.46181 -0.07700
O 	O 	0.34922 0.98367 0.51032 -0.08600
U 	U 	0.89223 0.66962 0.61083 0.02400
U 	U 	0.15903 0.14874 0.99038 0.01900
H 	H 	0.28200 0.07100 0.65600 0.11300
H 	H 	0.53000 0.45900 0.87480 0.11200
H 	H 	0.60900 0.35300 0.60770 0.13300
H 	H 	0.95900 0.13000 0.57780 0.16000
H 	H 	0.86800 0.41300 0.75300 0.17000
H 	H 	0.81900 0.08100 0.80630 0.21100
