data_crystal

_cell_length_a 10.66300
_cell_length_b 11.09000
_cell_length_c 14.71800
_cell_angle_alpha 106.88000
_cell_angle_beta  95.76000
_cell_angle_gamma 112.99000

_symmetry_space_group_name_	'P 1'
_symmetry_space_group_name_H-M	'P 1'

loop_
_symmetry_equiv_pos_as_xyz
  x,y,z

loop_
_atom_site_label
_atom_site_type_symbol
_atom_site_fract_x
_atom_site_fract_y
_atom_site_fract_z
_atom_site_charge
U 	U 	0.60813 0.83075 0.88942 0.01700
U 	U 	0.34101 0.35138 0.50982 0.03900
O 	O 	0.64740 0.63590 0.78800 -0.20400
O 	O 	0.57320 0.61220 0.91810 -0.18600
C 	C 	0.60980 0.56560 0.84340 0.27300
C 	C 	0.61000 0.42150 0.81520 0.03300
C 	C 	0.65700 0.37630 0.73260 -0.11400
H 	H 	0.68490 0.43120 0.69440 0.12100
C 	C 	0.66100 0.24990 0.70910 0.15300
C 	C 	0.62620 0.16670 0.76670 -0.11600
H 	H 	0.63210 0.08180 0.74970 0.12200
C 	C 	0.58240 0.21500 0.85040 0.03200
C 	C 	0.57380 0.34320 0.87300 -0.06000
H 	H 	0.54310 0.37500 0.92810 0.10300
C 	C 	0.55150 0.13330 0.91570 0.25500
O 	O 	0.46860 0.14980 0.96840 -0.15800
O 	O 	0.60420 0.04900 0.91360 -0.16400
N 	N 	0.70090 0.19670 0.61890 -0.02000
O 	O 	0.68470 0.07370 0.59160 -0.08200
O 	O 	0.75030 0.27590 0.57560 -0.07600
O 	O 	0.69910 0.89570 0.76400 -0.18000
O 	O 	0.78680 0.83640 0.63670 -0.16300
C 	C 	0.78990 0.92510 0.71530 0.25000
C 	C 	0.90970 0.06690 0.75100 0.03700
C 	C 	0.93990 0.16170 0.84650 -0.12800
H 	H 	0.88400 0.13810 0.88900 0.13100
C 	C 	0.05490 0.29070 0.87540 0.16200
C 	C 	0.14140 0.33140 0.81650 -0.12600
H 	H 	0.21980 0.41810 0.83950 0.12500
C 	C 	0.10810 0.23780 0.72010 0.03700
C 	C 	0.99370 0.10960 0.68810 -0.06800
H 	H 	0.97120 0.04960 0.62360 0.11300
C 	C 	0.19450 0.27950 0.65000 0.25600
O 	O 	0.14880 0.19800 0.56050 -0.16800
O 	O 	0.30690 0.39110 0.67910 -0.18600
N 	N 	0.08510 0.39010 0.97570 -0.02000
O 	O 	0.15100 0.51760 0.99010 -0.08600
O 	O 	0.04440 0.34540 0.03880 -0.07700
O 	O 	0.52100 0.57320 0.59590 -0.71200
H 	H 	0.56900 0.57140 0.64120 0.41800
H 	H 	0.48900 0.62680 0.61740 0.42100
U 	U 	0.39187 0.16925 0.11058 0.01600
U 	U 	0.65899 0.64862 0.49018 0.03800
O 	O 	0.35260 0.36410 0.21200 -0.20500
O 	O 	0.42680 0.38780 0.08190 -0.18700
C 	C 	0.39020 0.43440 0.15660 0.27200
C 	C 	0.39000 0.57850 0.18480 0.03200
C 	C 	0.34300 0.62370 0.26740 -0.11500
H 	H 	0.31510 0.56880 0.30560 0.12000
C 	C 	0.33900 0.75010 0.29090 0.15300
C 	C 	0.37380 0.83330 0.23330 -0.11600
H 	H 	0.36790 0.91820 0.25030 0.12200
C 	C 	0.41760 0.78500 0.14960 0.03200
C 	C 	0.42620 0.65680 0.12700 -0.06000
H 	H 	0.45690 0.62500 0.07190 0.10300
C 	C 	0.44850 0.86670 0.08430 0.25500
O 	O 	0.53140 0.85020 0.03160 -0.15800
O 	O 	0.39580 0.95100 0.08640 -0.16400
N 	N 	0.29910 0.80330 0.38110 -0.02000
O 	O 	0.31530 0.92630 0.40840 -0.08200
O 	O 	0.24970 0.72410 0.42440 -0.07600
O 	O 	0.30090 0.10430 0.23600 -0.18000
O 	O 	0.21320 0.16360 0.36330 -0.16300
C 	C 	0.21010 0.07490 0.28470 0.25000
C 	C 	0.09030 0.93310 0.24900 0.03700
C 	C 	0.06010 0.83830 0.15350 -0.12800
H 	H 	0.11600 0.86190 0.11100 0.13100
C 	C 	0.94510 0.70930 0.12460 0.16200
C 	C 	0.85860 0.66860 0.18350 -0.12600
H 	H 	0.78020 0.58190 0.16050 0.12500
C 	C 	0.89190 0.76220 0.27990 0.03700
C 	C 	0.00630 0.89040 0.31190 -0.06800
H 	H 	0.02880 0.95040 0.37640 0.11300
C 	C 	0.80550 0.72050 0.35000 0.25600
O 	O 	0.85120 0.80200 0.43950 -0.16800
O 	O 	0.69310 0.60890 0.32090 -0.18600
N 	N 	0.91490 0.60990 0.02430 -0.02000
O 	O 	0.84900 0.48240 0.00990 -0.08600
O 	O 	0.95560 0.65460 0.96120 -0.07700
O 	O 	0.47900 0.42680 0.40410 -0.71200
H 	H 	0.43100 0.42860 0.35880 0.41800
H 	H 	0.51100 0.37320 0.38260 0.42100
