data_crystal

_cell_length_a 18.83700
_cell_length_b 15.02100
_cell_length_c 14.95000
_cell_angle_alpha 90.00000
_cell_angle_beta  109.52000
_cell_angle_gamma 90.00000

_symmetry_space_group_name_	'P 1'
_symmetry_space_group_name_H-M	'P 1'

loop_
_symmetry_equiv_pos_as_xyz
  x,y,z

loop_
_atom_site_label
_atom_site_type_symbol
_atom_site_fract_x
_atom_site_fract_y
_atom_site_fract_z
_atom_site_charge
Ru	Ru	0.74738 0.98933 0.25290 0.99200
Ag	Ag	0.87054 0.88098 0.53916 0.54700
Ag	Ag	0.62555 0.16217 0.99419 0.54600
Cl	Cl	0.73163 0.08100 0.11670 -0.54100
Cl	Cl	0.76564 0.88960 0.38420 -0.54800
C 	C 	0.61830 0.85970 0.18580 0.00700
H 	H 	0.65510 0.81690 0.21140 0.03400
C 	C 	0.85020 0.84630 0.22960 0.01800
H 	H 	0.87950 0.86320 0.29070 0.01600
C 	C 	0.88350 0.06090 0.40110 0.00100
H 	H 	0.85400 0.05410 0.43960 0.00800
C 	C 	0.54430 0.83260 0.13920 -0.00200
H 	H 	0.53320 0.77210 0.13340 0.01300
C 	C 	0.77340 0.79100 0.05630 -0.00300
H 	H 	0.74470 0.77300 0.99540 0.04300
C 	C 	0.74860 0.86220 0.09640 0.01100
H 	H 	0.70510 0.89210 0.06070 0.02600
C 	C 	0.72950 0.17430 0.31820 -0.00700
H 	H 	0.75660 0.19020 0.27880 0.03400
C 	C 	0.90120 0.04900 0.25870 0.00400
H 	H 	0.88400 0.03390 0.19460 0.04000
C 	C 	0.58010 0.00380 0.15820 0.01700
H 	H 	0.58990 0.06460 0.16340 0.00700
C 	C 	0.67190 0.07300 0.38120 -0.00200
H 	H 	0.65820 0.01460 0.38830 0.03600
C 	C 	0.50940 0.97570 0.11460 -0.01700
H 	H 	0.47200 0.01830 0.09110 0.02600
C 	C 	0.87480 0.77670 0.18640 -0.00800
H 	H 	0.92030 0.74910 0.21890 0.02000
C 	C 	0.95490 0.09440 0.43910 -0.00400
H 	H 	0.97160 0.11200 0.50240 0.01600
C 	C 	0.97220 0.08180 0.29780 0.00600
H 	H 	0.00130 0.08970 0.25890 0.01200
C 	C 	0.65060 0.13990 0.43100 0.00600
H 	H 	0.62180 0.12530 0.46870 0.01000
C 	C 	0.70930 0.23710 0.36900 0.00900
H 	H 	0.72420 0.29530 0.36340 0.01700
N 	N 	0.48970 0.89090 0.10310 -0.16100
N 	N 	0.63760 0.94600 0.19480 -0.18900
N 	N 	0.78590 0.89000 0.18670 -0.18600
N 	N 	0.83510 0.74820 0.09970 -0.15200
N 	N 	0.85530 0.03780 0.30930 -0.18600
N 	N 	0.00190 0.10310 0.38920 -0.16700
N 	N 	0.71100 0.08910 0.32380 -0.18400
N 	N 	0.67000 0.22310 0.42650 -0.16400
Ru	Ru	0.25262 0.48933 0.24710 0.99400
Ag	Ag	0.12946 0.38098 0.96084 0.54700
Ag	Ag	0.37445 0.66217 0.50581 0.54700
Cl	Cl	0.26837 0.58100 0.38330 -0.54500
Cl	Cl	0.23436 0.38960 0.11580 -0.54600
C 	C 	0.38170 0.35970 0.31420 0.00500
H 	H 	0.34490 0.31690 0.28860 0.03500
C 	C 	0.14980 0.34630 0.27040 0.01800
H 	H 	0.12050 0.36320 0.20930 0.01700
C 	C 	0.11650 0.56090 0.09890 0.00100
H 	H 	0.14600 0.55410 0.06040 0.00700
C 	C 	0.45570 0.33260 0.36080 0.00000
H 	H 	0.46680 0.27210 0.36660 0.01300
C 	C 	0.22660 0.29100 0.44370 0.00400
H 	H 	0.25530 0.27300 0.50460 0.03800
C 	C 	0.25140 0.36220 0.40360 0.00800
H 	H 	0.29490 0.39210 0.43930 0.02900
C 	C 	0.27050 0.67430 0.18180 -0.00700
H 	H 	0.24340 0.69020 0.22120 0.03400
C 	C 	0.09880 0.54900 0.24130 0.00500
H 	H 	0.11600 0.53390 0.30540 0.03800
C 	C 	0.41990 0.50380 0.34180 0.00200
H 	H 	0.41010 0.56460 0.33660 0.01100
C 	C 	0.32810 0.57300 0.11880 -0.00200
H 	H 	0.34180 0.51460 0.11170 0.03500
C 	C 	0.49060 0.47570 0.38540 0.00000
H 	H 	0.52800 0.51830 0.40890 0.01800
C 	C 	0.12520 0.27670 0.31360 -0.00700
H 	H 	0.07970 0.24910 0.28110 0.02000
C 	C 	0.04510 0.59440 0.06090 -0.00600
H 	H 	0.02840 0.61200 0.99760 0.01700
C 	C 	0.02780 0.58180 0.20220 0.00200
H 	H 	0.99870 0.58970 0.24110 0.01400
C 	C 	0.34940 0.63990 0.06900 0.00600
H 	H 	0.37820 0.62530 0.03130 0.01000
C 	C 	0.29070 0.73710 0.13100 0.00900
H 	H 	0.27580 0.79530 0.13660 0.01700
N 	N 	0.51030 0.39090 0.39690 -0.16400
N 	N 	0.36240 0.44600 0.30520 -0.18500
N 	N 	0.21410 0.39000 0.31330 -0.18500
N 	N 	0.16490 0.24820 0.40030 -0.15300
N 	N 	0.14470 0.53780 0.19070 -0.18800
N 	N 	0.99810 0.60310 0.11080 -0.16600
N 	N 	0.28900 0.58910 0.17620 -0.18400
N 	N 	0.33000 0.72310 0.07350 -0.16400
Ru	Ru	0.25262 0.01067 0.74710 0.99200
Ag	Ag	0.12946 0.11902 0.46084 0.54700
Ag	Ag	0.37445 0.83783 0.00581 0.54600
Cl	Cl	0.26837 0.91900 0.88330 -0.54100
Cl	Cl	0.23436 0.11040 0.61580 -0.54800
C 	C 	0.38170 0.14030 0.81420 0.00700
H 	H 	0.34490 0.18310 0.78860 0.03400
C 	C 	0.14980 0.15370 0.77040 0.01800
H 	H 	0.12050 0.13680 0.70930 0.01600
C 	C 	0.11650 0.93910 0.59890 0.00100
H 	H 	0.14600 0.94590 0.56040 0.00800
C 	C 	0.45570 0.16740 0.86080 -0.00200
H 	H 	0.46680 0.22790 0.86660 0.01300
C 	C 	0.22660 0.20900 0.94370 -0.00300
H 	H 	0.25530 0.22700 0.00460 0.04300
C 	C 	0.25140 0.13780 0.90360 0.01100
H 	H 	0.29490 0.10790 0.93930 0.02600
C 	C 	0.27050 0.82570 0.68180 -0.00700
H 	H 	0.24340 0.80980 0.72120 0.03400
C 	C 	0.09880 0.95100 0.74130 0.00400
H 	H 	0.11600 0.96610 0.80540 0.04000
C 	C 	0.41990 0.99620 0.84180 0.01700
H 	H 	0.41010 0.93540 0.83660 0.00700
C 	C 	0.32810 0.92700 0.61880 -0.00200
H 	H 	0.34180 0.98540 0.61170 0.03600
C 	C 	0.49060 0.02430 0.88540 -0.01700
H 	H 	0.52800 0.98170 0.90890 0.02600
C 	C 	0.12520 0.22330 0.81360 -0.00800
H 	H 	0.07970 0.25090 0.78110 0.02000
C 	C 	0.04510 0.90560 0.56090 -0.00400
H 	H 	0.02840 0.88800 0.49760 0.01600
C 	C 	0.02780 0.91820 0.70220 0.00600
H 	H 	0.99870 0.91030 0.74110 0.01200
C 	C 	0.34940 0.86010 0.56900 0.00600
H 	H 	0.37820 0.87470 0.53130 0.01000
C 	C 	0.29070 0.76290 0.63100 0.00900
H 	H 	0.27580 0.70470 0.63660 0.01700
N 	N 	0.51030 0.10910 0.89690 -0.16100
N 	N 	0.36240 0.05400 0.80520 -0.18900
N 	N 	0.21410 0.11000 0.81330 -0.18600
N 	N 	0.16490 0.25180 0.90030 -0.15200
N 	N 	0.14470 0.96220 0.69070 -0.18600
N 	N 	0.99810 0.89690 0.61080 -0.16700
N 	N 	0.28900 0.91090 0.67620 -0.18400
N 	N 	0.33000 0.77690 0.57350 -0.16400
Ru	Ru	0.74738 0.51067 0.75290 0.99400
Ag	Ag	0.87054 0.61902 0.03916 0.54700
Ag	Ag	0.62555 0.33783 0.49419 0.54700
Cl	Cl	0.73163 0.41900 0.61670 -0.54500
Cl	Cl	0.76564 0.61040 0.88420 -0.54600
C 	C 	0.61830 0.64030 0.68580 0.00500
H 	H 	0.65510 0.68310 0.71140 0.03500
C 	C 	0.85020 0.65370 0.72960 0.01800
H 	H 	0.87950 0.63680 0.79070 0.01700
C 	C 	0.88350 0.43910 0.90110 0.00100
H 	H 	0.85400 0.44590 0.93960 0.00700
C 	C 	0.54430 0.66740 0.63920 0.00000
H 	H 	0.53320 0.72790 0.63340 0.01300
C 	C 	0.77340 0.70900 0.55630 0.00400
H 	H 	0.74470 0.72700 0.49540 0.03800
C 	C 	0.74860 0.63780 0.59640 0.00800
H 	H 	0.70510 0.60790 0.56070 0.02900
C 	C 	0.72950 0.32570 0.81820 -0.00700
H 	H 	0.75660 0.30980 0.77880 0.03400
C 	C 	0.90120 0.45100 0.75870 0.00500
H 	H 	0.88400 0.46610 0.69460 0.03800
C 	C 	0.58010 0.49620 0.65820 0.00200
H 	H 	0.58990 0.43540 0.66340 0.01100
C 	C 	0.67190 0.42700 0.88120 -0.00200
H 	H 	0.65820 0.48540 0.88830 0.03500
C 	C 	0.50940 0.52430 0.61460 0.00000
H 	H 	0.47200 0.48170 0.59110 0.01800
C 	C 	0.87480 0.72330 0.68640 -0.00700
H 	H 	0.92030 0.75090 0.71890 0.02000
C 	C 	0.95490 0.40560 0.93910 -0.00600
H 	H 	0.97160 0.38800 0.00240 0.01700
C 	C 	0.97220 0.41820 0.79780 0.00200
H 	H 	0.00130 0.41030 0.75890 0.01400
C 	C 	0.65060 0.36010 0.93100 0.00600
H 	H 	0.62180 0.37470 0.96870 0.01000
C 	C 	0.70930 0.26290 0.86900 0.00900
H 	H 	0.72420 0.20470 0.86340 0.01700
N 	N 	0.48970 0.60910 0.60310 -0.16400
N 	N 	0.63760 0.55400 0.69480 -0.18500
N 	N 	0.78590 0.61000 0.68670 -0.18500
N 	N 	0.83510 0.75180 0.59970 -0.15300
N 	N 	0.85530 0.46220 0.80930 -0.18800
N 	N 	0.00190 0.39690 0.88920 -0.16600
N 	N 	0.71100 0.41090 0.82380 -0.18400
N 	N 	0.67000 0.27690 0.92650 -0.16400
