data_crystal

_cell_length_a 14.87700
_cell_length_b 8.55450
_cell_length_c 7.40810
_cell_angle_alpha 90.00000
_cell_angle_beta  118.77800
_cell_angle_gamma 90.00000

_symmetry_space_group_name_	'P 1'
_symmetry_space_group_name_H-M	'P 1'

loop_
_symmetry_equiv_pos_as_xyz
  x,y,z

loop_
_atom_site_label
_atom_site_type_symbol
_atom_site_fract_x
_atom_site_fract_y
_atom_site_fract_z
_atom_site_charge
Cu	Cu	0.31761 0.68084 0.18184 0.78500
C 	C 	0.45860 0.65030 0.23540 -0.24400
N 	N 	0.25707 0.49930 0.25270 -0.21000
C 	C 	0.23315 0.38630 0.29880 -0.33100
Cu	Cu	0.81761 0.18084 0.18184 0.78400
C 	C 	0.95860 0.15030 0.23540 -0.24600
N 	N 	0.75707 0.99930 0.25270 -0.21000
C 	C 	0.73315 0.88630 0.29880 -0.33000
Cu	Cu	0.68239 0.68084 0.31816 0.78500
C 	C 	0.54140 0.65030 0.26460 -0.24400
N 	N 	0.74293 0.49930 0.24730 -0.21000
C 	C 	0.76685 0.38630 0.20120 -0.33100
Cu	Cu	0.18239 0.18084 0.31816 0.78500
C 	C 	0.04140 0.15030 0.26460 -0.24300
N 	N 	0.24293 0.99930 0.24730 -0.21000
C 	C 	0.26685 0.88630 0.20120 -0.33000
Cu	Cu	0.68239 0.31916 0.81816 0.78500
C 	C 	0.54140 0.34970 0.76460 -0.24400
N 	N 	0.74293 0.50070 0.74730 -0.21000
C 	C 	0.76685 0.61370 0.70120 -0.33100
Cu	Cu	0.18239 0.81916 0.81816 0.78400
C 	C 	0.04140 0.84970 0.76460 -0.24600
N 	N 	0.24293 0.00070 0.74730 -0.21000
C 	C 	0.26685 0.11370 0.70120 -0.33000
Cu	Cu	0.31761 0.31916 0.68184 0.78500
C 	C 	0.45860 0.34970 0.73540 -0.24400
N 	N 	0.25707 0.50070 0.75270 -0.21000
C 	C 	0.23315 0.61370 0.79880 -0.33100
Cu	Cu	0.81761 0.81916 0.68184 0.78500
C 	C 	0.95860 0.84970 0.73540 -0.24300
N 	N 	0.75707 0.00070 0.75270 -0.21000
C 	C 	0.73315 0.11370 0.79880 -0.33000
