data_crystal

_cell_length_a 9.86900
_cell_length_b 17.10100
_cell_length_c 17.32000
_cell_angle_alpha 90.00000
_cell_angle_beta  94.89600
_cell_angle_gamma 90.00000

_symmetry_space_group_name_	'P 1'
_symmetry_space_group_name_H-M	'P 1'

loop_
_symmetry_equiv_pos_as_xyz
  x,y,z

loop_
_atom_site_label
_atom_site_type_symbol
_atom_site_fract_x
_atom_site_fract_y
_atom_site_fract_z
_atom_site_charge
Zn	Zn	0.06281 0.96598 0.09974 1.22800
Zn	Zn	0.55016 0.10733 0.96320 1.23400
P 	P 	0.35393 0.06128 0.08767 0.45300
P 	P 	0.85354 0.10272 0.05420 0.45500
O 	O 	0.20490 0.04180 0.08580 -0.45000
O 	O 	0.38370 0.11110 0.01750 -0.41000
O 	O 	0.44770 0.99070 0.09680 -0.44800
O 	O 	0.51420 0.32650 0.37270 -0.43400
O 	O 	0.48220 0.22420 0.44530 -0.29000
O 	O 	0.89780 0.02860 0.09780 -0.43200
O 	O 	0.93000 0.11370 0.98170 -0.45100
O 	O 	0.70140 0.10690 0.03950 -0.45500
O 	O 	0.90060 0.41120 0.30070 -0.43100
O 	O 	0.10270 0.35710 0.33010 -0.27600
C 	C 	0.39170 0.12010 0.17350 -0.04300
C 	C 	0.35690 0.09280 0.24450 -0.02900
H 	H 	0.31310 0.04490 0.24770 0.05000
C 	C 	0.38800 0.13750 0.31100 -0.01600
H 	H 	0.36580 0.11830 0.35860 0.05900
C 	C 	0.44990 0.20850 0.30820 -0.05800
C 	C 	0.48250 0.23720 0.23790 -0.01500
H 	H 	0.52380 0.28590 0.23510 0.05800
C 	C 	0.45340 0.19280 0.17060 -0.02700
H 	H 	0.47590 0.21230 0.12330 0.05100
C 	C 	0.48440 0.25460 0.38160 0.33700
C 	C 	0.89880 0.18340 0.11810 -0.04600
C 	C 	0.02420 0.18620 0.16090 -0.01800
H 	H 	0.08810 0.14750 0.15370 0.04700
C 	C 	0.05620 0.24530 0.21400 -0.02300
H 	H 	0.14140 0.24610 0.24150 0.06400
C 	C 	0.96300 0.30250 0.22630 -0.05000
C 	C 	0.83790 0.30240 0.18270 -0.02400
H 	H 	0.77530 0.34190 0.18950 0.06000
C 	C 	0.80640 0.24350 0.12920 -0.01800
H 	H 	0.72250 0.24400 0.10030 0.04700
C 	C 	0.99280 0.36060 0.28970 0.31000
Zn	Zn	0.93719 0.46598 0.40026 1.22900
Zn	Zn	0.44984 0.60733 0.53680 1.23400
P 	P 	0.64607 0.56128 0.41233 0.44900
P 	P 	0.14646 0.60272 0.44580 0.45100
O 	O 	0.79510 0.54180 0.41420 -0.45300
O 	O 	0.61630 0.61110 0.48250 -0.41200
O 	O 	0.55230 0.49070 0.40320 -0.44300
O 	O 	0.48580 0.82650 0.12730 -0.43500
O 	O 	0.51780 0.72420 0.05470 -0.29100
O 	O 	0.10220 0.52860 0.40220 -0.43400
O 	O 	0.07000 0.61370 0.51830 -0.44600
O 	O 	0.29860 0.60690 0.46050 -0.45700
O 	O 	0.09940 0.91120 0.19930 -0.43200
O 	O 	0.89730 0.85710 0.16990 -0.27500
C 	C 	0.60830 0.62010 0.32650 -0.04400
C 	C 	0.64310 0.59280 0.25550 -0.02900
H 	H 	0.68690 0.54490 0.25230 0.04900
C 	C 	0.61200 0.63750 0.18900 -0.01600
H 	H 	0.63420 0.61830 0.14140 0.05900
C 	C 	0.55010 0.70850 0.19180 -0.05900
C 	C 	0.51750 0.73720 0.26210 -0.01500
H 	H 	0.47620 0.78590 0.26490 0.05800
C 	C 	0.54660 0.69280 0.32940 -0.02700
H 	H 	0.52410 0.71230 0.37670 0.05100
C 	C 	0.51560 0.75460 0.11840 0.33700
C 	C 	0.10120 0.68340 0.38190 -0.04600
C 	C 	0.97580 0.68620 0.33910 -0.02000
H 	H 	0.91190 0.64750 0.34630 0.04700
C 	C 	0.94380 0.74530 0.28600 -0.02000
H 	H 	0.85860 0.74610 0.25850 0.06300
C 	C 	0.03700 0.80250 0.27370 -0.05200
C 	C 	0.16210 0.80240 0.31730 -0.02400
H 	H 	0.22470 0.84190 0.31050 0.05900
C 	C 	0.19360 0.74350 0.37080 -0.01900
H 	H 	0.27750 0.74400 0.39970 0.04700
C 	C 	0.00720 0.86060 0.21030 0.30800
Zn	Zn	0.93719 0.03402 0.90026 1.22700
Zn	Zn	0.44984 0.89267 0.03680 1.23300
P 	P 	0.64607 0.93872 0.91233 0.45300
P 	P 	0.14646 0.89728 0.94580 0.45500
O 	O 	0.79510 0.95820 0.91420 -0.45000
O 	O 	0.61630 0.88890 0.98250 -0.41000
O 	O 	0.55230 0.00930 0.90320 -0.44800
O 	O 	0.48580 0.67350 0.62730 -0.43400
O 	O 	0.51780 0.77580 0.55470 -0.29000
O 	O 	0.10220 0.97140 0.90220 -0.43200
O 	O 	0.07000 0.88630 0.01830 -0.45100
O 	O 	0.29860 0.89310 0.96050 -0.45500
O 	O 	0.09940 0.58880 0.69930 -0.43100
O 	O 	0.89730 0.64290 0.66990 -0.27600
C 	C 	0.60830 0.87990 0.82650 -0.04300
C 	C 	0.64310 0.90720 0.75550 -0.02900
H 	H 	0.68690 0.95510 0.75230 0.05000
C 	C 	0.61200 0.86250 0.68900 -0.01600
H 	H 	0.63420 0.88170 0.64140 0.05900
C 	C 	0.55010 0.79150 0.69180 -0.05800
C 	C 	0.51750 0.76280 0.76210 -0.01500
H 	H 	0.47620 0.71410 0.76490 0.05800
C 	C 	0.54660 0.80720 0.82940 -0.02700
H 	H 	0.52410 0.78770 0.87670 0.05100
C 	C 	0.51560 0.74540 0.61840 0.33700
C 	C 	0.10120 0.81660 0.88190 -0.04600
C 	C 	0.97580 0.81380 0.83910 -0.01800
H 	H 	0.91190 0.85250 0.84630 0.04700
C 	C 	0.94380 0.75470 0.78600 -0.02300
H 	H 	0.85860 0.75390 0.75850 0.06400
C 	C 	0.03700 0.69750 0.77370 -0.05000
C 	C 	0.16210 0.69760 0.81730 -0.02400
H 	H 	0.22470 0.65810 0.81050 0.06000
C 	C 	0.19360 0.75650 0.87080 -0.01800
H 	H 	0.27750 0.75600 0.89970 0.04700
C 	C 	0.00720 0.63940 0.71030 0.31000
Zn	Zn	0.06281 0.53402 0.59974 1.22900
Zn	Zn	0.55016 0.39267 0.46320 1.23400
P 	P 	0.35393 0.43872 0.58767 0.44900
P 	P 	0.85354 0.39728 0.55420 0.45100
O 	O 	0.20490 0.45820 0.58580 -0.45300
O 	O 	0.38370 0.38890 0.51750 -0.41200
O 	O 	0.44770 0.50930 0.59680 -0.44300
O 	O 	0.51420 0.17350 0.87270 -0.43500
O 	O 	0.48220 0.27580 0.94530 -0.29100
O 	O 	0.89780 0.47140 0.59780 -0.43400
O 	O 	0.93000 0.38630 0.48170 -0.44600
O 	O 	0.70140 0.39310 0.53950 -0.45700
O 	O 	0.90060 0.08880 0.80070 -0.43200
O 	O 	0.10270 0.14290 0.83010 -0.27500
C 	C 	0.39170 0.37990 0.67350 -0.04400
C 	C 	0.35690 0.40720 0.74450 -0.02900
H 	H 	0.31310 0.45510 0.74770 0.04900
C 	C 	0.38800 0.36250 0.81100 -0.01600
H 	H 	0.36580 0.38170 0.85860 0.05900
C 	C 	0.44990 0.29150 0.80820 -0.05900
C 	C 	0.48250 0.26280 0.73790 -0.01500
H 	H 	0.52380 0.21410 0.73510 0.05800
C 	C 	0.45340 0.30720 0.67060 -0.02700
H 	H 	0.47590 0.28770 0.62330 0.05100
C 	C 	0.48440 0.24540 0.88160 0.33700
C 	C 	0.89880 0.31660 0.61810 -0.04600
C 	C 	0.02420 0.31380 0.66090 -0.02000
H 	H 	0.08810 0.35250 0.65370 0.04700
C 	C 	0.05620 0.25470 0.71400 -0.02000
H 	H 	0.14140 0.25390 0.74150 0.06300
C 	C 	0.96300 0.19750 0.72630 -0.05200
C 	C 	0.83790 0.19760 0.68270 -0.02400
H 	H 	0.77530 0.15810 0.68950 0.05900
C 	C 	0.80640 0.25650 0.62920 -0.01900
H 	H 	0.72250 0.25600 0.60030 0.04700
C 	C 	0.99280 0.13940 0.78970 0.30800
