data_crystal

_cell_length_a 6.30290
_cell_length_b 16.41300
_cell_length_c 17.13900
_cell_angle_alpha 90.00000
_cell_angle_beta  98.63000
_cell_angle_gamma 90.00000

_symmetry_space_group_name_	'P 1'
_symmetry_space_group_name_H-M	'P 1'

loop_
_symmetry_equiv_pos_as_xyz
  x,y,z

loop_
_atom_site_label
_atom_site_type_symbol
_atom_site_fract_x
_atom_site_fract_y
_atom_site_fract_z
_atom_site_charge
Co	Co	0.75940 0.52269 0.32269 1.18100
Co	Co	0.92573 0.58952 0.50794 1.13000
Co	Co	0.74060 0.02269 0.17731 1.18100
Co	Co	0.57427 0.08952 0.99206 1.13000
Co	Co	0.24060 0.47731 0.67731 1.18100
Co	Co	0.07427 0.41048 0.49206 1.13000
Co	Co	0.25940 0.97731 0.82269 1.18100
Co	Co	0.42573 0.91048 0.00794 1.13000
H 	H 	0.12710 0.66240 0.63120 0.09700
H 	H 	0.69770 0.46450 0.46240 0.10100
H 	H 	0.06130 0.88090 0.58310 0.16900
H 	H 	0.18190 0.89920 0.65340 0.17900
H 	H 	0.66350 0.81130 0.38180 0.04200
H 	H 	0.92220 0.78780 0.28220 0.04200
H 	H 	0.31810 0.69840 0.53680 0.04200
H 	H 	0.11540 0.76160 0.50480 0.05100
H 	H 	0.38980 0.78880 0.65840 0.04800
H 	H 	0.39060 0.84430 0.56860 0.04600
H 	H 	0.08480 0.78900 0.71840 0.04400
H 	H 	0.87410 0.85210 0.69040 0.04900
H 	H 	0.79360 0.71610 0.64450 0.04500
H 	H 	0.79070 0.76290 0.56560 0.04900
H 	H 	0.37290 0.16240 0.86880 0.09700
H 	H 	0.80230 0.96450 0.03760 0.10200
H 	H 	0.43870 0.38090 0.91690 0.16900
H 	H 	0.31810 0.39920 0.84660 0.17900
H 	H 	0.83650 0.31130 0.11820 0.04200
H 	H 	0.57780 0.28780 0.21780 0.04000
H 	H 	0.18190 0.19840 0.96320 0.04200
H 	H 	0.38460 0.26160 0.99520 0.05200
H 	H 	0.11020 0.28880 0.84160 0.04900
H 	H 	0.10940 0.34430 0.93140 0.04600
H 	H 	0.41520 0.28900 0.78160 0.04400
H 	H 	0.62590 0.35210 0.80960 0.04900
H 	H 	0.70640 0.21610 0.85550 0.04500
H 	H 	0.70930 0.26290 0.93440 0.04800
H 	H 	0.87290 0.33760 0.36880 0.09700
H 	H 	0.30230 0.53550 0.53760 0.10100
H 	H 	0.93870 0.11910 0.41690 0.16900
H 	H 	0.81810 0.10080 0.34660 0.17900
H 	H 	0.33650 0.18870 0.61820 0.04200
H 	H 	0.07780 0.21220 0.71780 0.04200
H 	H 	0.68190 0.30160 0.46320 0.04200
H 	H 	0.88460 0.23840 0.49520 0.05100
H 	H 	0.61020 0.21120 0.34160 0.04800
H 	H 	0.60940 0.15570 0.43140 0.04600
H 	H 	0.91520 0.21100 0.28160 0.04400
H 	H 	0.12590 0.14790 0.30960 0.04900
H 	H 	0.20640 0.28390 0.35550 0.04500
H 	H 	0.20930 0.23710 0.43440 0.04900
H 	H 	0.62710 0.83760 0.13120 0.09700
H 	H 	0.19770 0.03550 0.96240 0.10200
H 	H 	0.56130 0.61910 0.08310 0.16900
H 	H 	0.68190 0.60080 0.15340 0.17900
H 	H 	0.16350 0.68870 0.88180 0.04200
H 	H 	0.42220 0.71220 0.78220 0.04000
H 	H 	0.81810 0.80160 0.03680 0.04200
H 	H 	0.61540 0.73840 0.00480 0.05200
H 	H 	0.88980 0.71120 0.15840 0.04900
H 	H 	0.89060 0.65570 0.06860 0.04600
H 	H 	0.58480 0.71100 0.21840 0.04400
H 	H 	0.37410 0.64790 0.19040 0.04900
H 	H 	0.29360 0.78390 0.14450 0.04500
H 	H 	0.29070 0.73710 0.06560 0.04800
C 	C 	0.55900 0.66210 0.39593 0.36400
C 	C 	0.07950 0.64950 0.35640 0.34600
C 	C 	0.52290 0.95040 0.30580 0.35700
C 	C 	0.41940 0.73490 0.36977 -0.06400
C 	C 	0.51670 0.81020 0.36248 0.00300
C 	C 	0.40340 0.87560 0.32565 -0.05900
C 	C 	0.18530 0.86610 0.29838 -0.04600
C 	C 	0.08500 0.79200 0.30736 0.00000
C 	C 	0.20020 0.72590 0.34208 -0.05700
C 	C 	0.04910 0.93420 0.26020 0.30300
C 	C 	0.20980 0.73890 0.55260 -0.06300
C 	C 	0.30630 0.80950 0.60320 -0.00800
C 	C 	0.98570 0.81260 0.66850 -0.00200
C 	C 	0.89500 0.74180 0.61800 -0.06700
C 	C 	0.94100 0.16210 0.10407 0.36400
C 	C 	0.42050 0.14950 0.14360 0.34800
C 	C 	0.97710 0.45040 0.19420 0.35800
C 	C 	0.08060 0.23490 0.13023 -0.06500
C 	C 	0.98330 0.31020 0.13752 0.00500
C 	C 	0.09660 0.37560 0.17435 -0.06100
C 	C 	0.31470 0.36610 0.20162 -0.04700
C 	C 	0.41500 0.29200 0.19264 0.00400
C 	C 	0.29980 0.22590 0.15792 -0.05800
C 	C 	0.45090 0.43420 0.23980 0.30600
C 	C 	0.29020 0.23890 0.94740 -0.06400
C 	C 	0.19370 0.30950 0.89680 -0.00700
C 	C 	0.51430 0.31260 0.83150 -0.00200
C 	C 	0.60500 0.24180 0.88200 -0.06700
C 	C 	0.44100 0.33790 0.60407 0.36400
C 	C 	0.92050 0.35050 0.64360 0.34600
C 	C 	0.47710 0.04960 0.69420 0.35700
C 	C 	0.58060 0.26510 0.63023 -0.06400
C 	C 	0.48330 0.18980 0.63752 0.00300
C 	C 	0.59660 0.12440 0.67435 -0.05900
C 	C 	0.81470 0.13390 0.70162 -0.04600
C 	C 	0.91500 0.20800 0.69264 0.00000
C 	C 	0.79980 0.27410 0.65792 -0.05700
C 	C 	0.95090 0.06580 0.73980 0.30300
C 	C 	0.79020 0.26110 0.44740 -0.06300
C 	C 	0.69370 0.19050 0.39680 -0.00800
C 	C 	0.01430 0.18740 0.33150 -0.00200
C 	C 	0.10500 0.25820 0.38200 -0.06700
C 	C 	0.05900 0.83790 0.89593 0.36400
C 	C 	0.57950 0.85050 0.85640 0.34800
C 	C 	0.02290 0.54960 0.80580 0.35800
C 	C 	0.91940 0.76510 0.86977 -0.06500
C 	C 	0.01670 0.68980 0.86248 0.00500
C 	C 	0.90340 0.62440 0.82565 -0.06100
C 	C 	0.68530 0.63390 0.79838 -0.04700
C 	C 	0.58500 0.70800 0.80736 0.00400
C 	C 	0.70020 0.77410 0.84208 -0.05800
C 	C 	0.54910 0.56580 0.76020 0.30600
C 	C 	0.70980 0.76110 0.05260 -0.06400
C 	C 	0.80630 0.69050 0.10320 -0.00700
C 	C 	0.48570 0.68740 0.16850 -0.00200
C 	C 	0.39500 0.75820 0.11800 -0.06700
N 	N 	0.05620 0.68936 0.58918 -0.23400
N 	N 	0.12920 0.86130 0.62520 -0.30200
N 	N 	0.44380 0.18936 0.91082 -0.23400
N 	N 	0.37080 0.36130 0.87480 -0.30300
N 	N 	0.94380 0.31064 0.41082 -0.23400
N 	N 	0.87080 0.13870 0.37480 -0.30200
N 	N 	0.55620 0.81064 0.08918 -0.23400
N 	N 	0.62920 0.63870 0.12520 -0.30300
O 	O 	0.52660 0.59983 0.35424 -0.42500
O 	O 	0.83510 0.48721 0.43807 -0.65400
O 	O 	0.92680 0.62801 0.30493 -0.41600
O 	O 	0.53370 0.95752 0.23401 -0.42700
O 	O 	0.94200 0.91861 0.19221 -0.38400
O 	O 	0.70350 0.67210 0.45469 -0.45000
O 	O 	0.13530 0.61508 0.42283 -0.43700
O 	O 	0.03500 0.99919 0.29400 -0.31700
O 	O 	0.60720 0.99545 0.35950 -0.27600
O 	O 	0.97340 0.09983 0.14576 -0.42500
O 	O 	0.66490 0.98721 0.06193 -0.65400
O 	O 	0.57320 0.12801 0.19507 -0.41700
O 	O 	0.96630 0.45752 0.26599 -0.42700
O 	O 	0.55800 0.41861 0.30779 -0.38700
O 	O 	0.79650 0.17210 0.04531 -0.45100
O 	O 	0.36470 0.11508 0.07717 -0.43700
O 	O 	0.46500 0.49919 0.20600 -0.31700
O 	O 	0.89280 0.49545 0.14050 -0.27700
O 	O 	0.47340 0.40017 0.64576 -0.42500
O 	O 	0.16490 0.51279 0.56193 -0.65400
O 	O 	0.07320 0.37199 0.69507 -0.41600
O 	O 	0.46630 0.04248 0.76599 -0.42700
O 	O 	0.05800 0.08139 0.80779 -0.38400
O 	O 	0.29650 0.32790 0.54531 -0.45000
O 	O 	0.86470 0.38492 0.57717 -0.43700
O 	O 	0.96500 0.00081 0.70600 -0.31700
O 	O 	0.39280 0.00455 0.64050 -0.27600
O 	O 	0.02660 0.90017 0.85424 -0.42500
O 	O 	0.33510 0.01279 0.93807 -0.65400
O 	O 	0.42680 0.87199 0.80493 -0.41700
O 	O 	0.03370 0.54248 0.73401 -0.42700
O 	O 	0.44200 0.58139 0.69221 -0.38700
O 	O 	0.20350 0.82790 0.95469 -0.45100
O 	O 	0.63530 0.88492 0.92283 -0.43700
O 	O 	0.53500 0.50081 0.79400 -0.31700
O 	O 	0.10720 0.50455 0.85950 -0.27700
