data_crystal

_cell_length_a 14.94380
_cell_length_b 14.94380
_cell_length_c 10.12900
_cell_angle_alpha 90.00000
_cell_angle_beta  90.00000
_cell_angle_gamma 90.00000

_symmetry_space_group_name_	'P 1'
_symmetry_space_group_name_H-M	'P 1'

loop_
_symmetry_equiv_pos_as_xyz
  x,y,z

loop_
_atom_site_label
_atom_site_type_symbol
_atom_site_fract_x
_atom_site_fract_y
_atom_site_fract_z
_atom_site_charge
C 	C 	0.06440 0.40330 0.11870 -0.05800
C 	C 	0.11190 0.42300 0.24620 0.30500
C 	C 	0.97850 0.36900 0.11840 -0.01100
H 	H 	0.94980 0.35770 0.19820 0.04800
C 	C 	0.81860 0.25330 0.89770 -0.09400
H 	H 	0.85900 0.23810 0.83170 0.07800
C 	C 	0.73380 0.21760 0.89930 0.07700
H 	H 	0.71640 0.17960 0.83130 0.00200
O 	O 	0.06990 0.40720 0.35250 -0.43600
O 	O 	0.18960 0.45250 0.24370 -0.33500
C 	C 	0.69480 0.29380 0.91560 0.05300
H 	H 	0.65250 0.31060 0.85310 0.01400
C 	C 	0.77990 0.33410 0.90980 -0.00600
H 	H 	0.79270 0.37490 0.84300 0.05400
C 	C 	0.93560 0.59670 0.11870 -0.05700
C 	C 	0.88810 0.57700 0.24620 0.30600
C 	C 	0.02150 0.63100 0.11840 -0.01100
H 	H 	0.05020 0.64230 0.19820 0.04800
C 	C 	0.18140 0.74670 0.89770 -0.09400
H 	H 	0.14100 0.76190 0.83170 0.07800
C 	C 	0.26620 0.78240 0.89930 0.07700
H 	H 	0.28360 0.82040 0.83130 0.00200
O 	O 	0.93010 0.59280 0.35250 -0.43600
O 	O 	0.81040 0.54750 0.24370 -0.33500
C 	C 	0.30520 0.70620 0.91560 0.05300
H 	H 	0.34750 0.68940 0.85310 0.01400
C 	C 	0.22010 0.66590 0.90980 -0.00600
H 	H 	0.20730 0.62510 0.84300 0.05400
C 	C 	0.59670 0.06440 0.61870 -0.07100
C 	C 	0.57700 0.11190 0.74620 0.30800
C 	C 	0.63100 0.97850 0.61840 -0.00700
H 	H 	0.64230 0.94980 0.69820 0.05400
C 	C 	0.74670 0.81860 0.39770 -0.07400
H 	H 	0.76190 0.85900 0.33170 0.05800
C 	C 	0.78240 0.73380 0.39930 -0.00700
H 	H 	0.82040 0.71640 0.33130 0.02200
O 	O 	0.59280 0.06990 0.85250 -0.40500
O 	O 	0.54750 0.18960 0.74370 -0.31900
C 	C 	0.70620 0.69480 0.41560 0.09700
H 	H 	0.68940 0.65250 0.35310 -0.01300
C 	C 	0.66590 0.77990 0.40980 -0.12800
H 	H 	0.62510 0.79270 0.34300 0.08700
C 	C 	0.40330 0.93560 0.61870 -0.07100
C 	C 	0.42300 0.88810 0.74620 0.30800
C 	C 	0.36900 0.02150 0.61840 -0.00700
H 	H 	0.35770 0.05020 0.69820 0.05400
C 	C 	0.25330 0.18140 0.39770 -0.07400
H 	H 	0.23810 0.14100 0.33170 0.05800
C 	C 	0.21760 0.26620 0.39930 -0.00700
H 	H 	0.17960 0.28360 0.33130 0.02200
O 	O 	0.40720 0.93010 0.85250 -0.40500
O 	O 	0.45250 0.81040 0.74370 -0.31900
C 	C 	0.29380 0.30520 0.41560 0.09700
H 	H 	0.31060 0.34750 0.35310 -0.01300
C 	C 	0.33410 0.22010 0.40980 -0.12800
H 	H 	0.37490 0.20730 0.34300 0.08700
C 	C 	0.93560 0.59670 0.88130 -0.01600
C 	C 	0.88810 0.57700 0.75380 0.29900
C 	C 	0.02150 0.63100 0.88160 0.04100
H 	H 	0.05020 0.64230 0.80180 0.03600
C 	C 	0.18140 0.74670 0.10230 0.04400
H 	H 	0.14100 0.76190 0.16830 0.01500
C 	C 	0.26620 0.78240 0.10070 -0.12900
H 	H 	0.28360 0.82040 0.16870 0.06400
O 	O 	0.93010 0.59280 0.64750 -0.43300
O 	O 	0.81040 0.54750 0.75630 -0.31400
C 	C 	0.30520 0.70620 0.08440 0.19900
H 	H 	0.34750 0.68940 0.14690 -0.05200
C 	C 	0.22010 0.66590 0.09020 -0.22900
H 	H 	0.20730 0.62510 0.15700 0.12000
C 	C 	0.06440 0.40330 0.88130 -0.01600
C 	C 	0.11190 0.42300 0.75380 0.29900
C 	C 	0.97850 0.36900 0.88160 0.04100
H 	H 	0.94980 0.35770 0.80180 0.03600
C 	C 	0.81860 0.25330 0.10230 0.04400
H 	H 	0.85900 0.23810 0.16830 0.01500
C 	C 	0.73380 0.21760 0.10070 -0.12900
H 	H 	0.71640 0.17960 0.16870 0.06400
O 	O 	0.06990 0.40720 0.64750 -0.43300
O 	O 	0.18960 0.45250 0.75630 -0.31400
C 	C 	0.69480 0.29380 0.08440 0.19900
H 	H 	0.65250 0.31060 0.14690 -0.05200
C 	C 	0.77990 0.33410 0.09020 -0.22900
H 	H 	0.79270 0.37490 0.15700 0.12000
C 	C 	0.40330 0.93560 0.38130 -0.07800
C 	C 	0.42300 0.88810 0.25380 0.31400
C 	C 	0.36900 0.02150 0.38160 -0.00300
H 	H 	0.35770 0.05020 0.30180 0.04400
C 	C 	0.25330 0.18140 0.60230 -0.04200
H 	H 	0.23810 0.14100 0.66830 0.05600
C 	C 	0.21760 0.26620 0.60070 -0.04100
H 	H 	0.17960 0.28360 0.66870 0.04100
O 	O 	0.40720 0.93010 0.14750 -0.44400
O 	O 	0.45250 0.81040 0.25630 -0.33400
C 	C 	0.29380 0.30520 0.58440 0.13600
H 	H 	0.31060 0.34750 0.64690 -0.01900
C 	C 	0.33410 0.22010 0.59020 -0.16100
H 	H 	0.37490 0.20730 0.65700 0.10600
C 	C 	0.59670 0.06440 0.38130 -0.07800
C 	C 	0.57700 0.11190 0.25380 0.31400
C 	C 	0.63100 0.97850 0.38160 -0.00300
H 	H 	0.64230 0.94980 0.30180 0.04400
C 	C 	0.74670 0.81860 0.60230 -0.04200
H 	H 	0.76190 0.85900 0.66830 0.05600
C 	C 	0.78240 0.73380 0.60070 -0.04100
H 	H 	0.82040 0.71640 0.66870 0.04100
O 	O 	0.59280 0.06990 0.14750 -0.44400
O 	O 	0.54750 0.18960 0.25630 -0.33400
C 	C 	0.70620 0.69480 0.58440 0.13600
H 	H 	0.68940 0.65250 0.64690 -0.01900
C 	C 	0.66590 0.77990 0.59020 -0.16100
H 	H 	0.62510 0.79270 0.65700 0.10600
Zn	Zn	0.56338 0.15412 -0.00000 1.19600
C 	C 	0.37120 0.12460 -0.00000 0.10500
H 	H 	0.38200 0.06330 -0.00000 -0.02200
C 	C 	0.30300 0.25080 -0.00000 -0.01100
H 	H 	0.25890 0.29480 -0.00000 0.03200
C 	C 	0.39090 0.26420 -0.00000 0.01700
H 	H 	0.41890 0.31980 -0.00000 0.00000
C 	C 	0.20650 0.11510 -0.00000 0.13100
C 	C 	0.20300 0.02410 -0.00000 -0.14800
H 	H 	0.25570 0.99090 -0.00000 0.07800
C 	C 	0.12320 0.98220 -0.00000 0.00400
H 	H 	0.12350 0.92000 -0.00000 0.02100
C 	C 	0.04220 0.02390 -0.00000 -0.02300
C 	C 	0.04860 0.11480 -0.00000 0.00600
H 	H 	0.99590 0.14790 -0.00000 0.02200
C 	C 	0.12700 0.15970 -0.00000 -0.15100
H 	H 	0.12670 0.22190 -0.00000 0.08200
C 	C 	0.93440 0.35130 -0.00000 -0.08200
C 	C 	0.10760 0.42090 -0.00000 -0.07300
H 	H 	0.16520 0.44450 -0.00000 0.06600
C 	C 	0.84290 0.31410 -0.00000 0.05400
N 	N 	0.67300 0.23680 -0.00000 -0.31300
N 	N 	0.43310 0.18450 -0.00000 -0.27900
N 	N 	0.28950 0.16110 -0.00000 -0.15000
Zn	Zn	0.43662 0.84588 -0.00000 1.19600
C 	C 	0.62880 0.87540 -0.00000 0.10500
H 	H 	0.61800 0.93670 -0.00000 -0.02200
C 	C 	0.69700 0.74920 -0.00000 -0.01100
H 	H 	0.74110 0.70520 -0.00000 0.03200
C 	C 	0.60910 0.73580 -0.00000 0.01700
H 	H 	0.58110 0.68020 -0.00000 0.00000
C 	C 	0.79350 0.88490 -0.00000 0.13100
C 	C 	0.79700 0.97590 -0.00000 -0.14800
H 	H 	0.74430 0.00910 -0.00000 0.07800
C 	C 	0.87680 0.01780 -0.00000 0.00400
H 	H 	0.87650 0.08000 -0.00000 0.02100
C 	C 	0.95780 0.97610 -0.00000 -0.02300
C 	C 	0.95140 0.88520 -0.00000 0.00600
H 	H 	0.00410 0.85210 -0.00000 0.02200
C 	C 	0.87300 0.84030 -0.00000 -0.15100
H 	H 	0.87330 0.77810 -0.00000 0.08200
C 	C 	0.06560 0.64870 -0.00000 -0.08200
C 	C 	0.89240 0.57910 -0.00000 -0.07300
H 	H 	0.83480 0.55550 -0.00000 0.06600
C 	C 	0.15710 0.68590 -0.00000 0.05400
N 	N 	0.32700 0.76320 -0.00000 -0.31300
N 	N 	0.56690 0.81550 -0.00000 -0.27900
N 	N 	0.71050 0.83890 -0.00000 -0.15000
Zn	Zn	0.84588 0.56338 0.50000 1.20700
C 	C 	0.87540 0.37120 0.50000 0.11500
H 	H 	0.93670 0.38200 0.50000 -0.01300
C 	C 	0.74920 0.30300 0.50000 -0.00200
H 	H 	0.70520 0.25890 0.50000 0.03900
C 	C 	0.73580 0.39090 0.50000 0.02300
H 	H 	0.68020 0.41890 0.50000 0.01200
C 	C 	0.88490 0.20650 0.50000 0.14200
C 	C 	0.97590 0.20300 0.50000 -0.14400
H 	H 	0.00910 0.25570 0.50000 0.08900
C 	C 	0.01780 0.12320 0.50000 0.01200
H 	H 	0.08000 0.12350 0.50000 0.03100
C 	C 	0.97610 0.04220 0.50000 -0.01600
C 	C 	0.88520 0.04860 0.50000 0.01400
H 	H 	0.85210 0.99590 0.50000 0.03000
C 	C 	0.84030 0.12700 0.50000 -0.14700
H 	H 	0.77810 0.12670 0.50000 0.09000
C 	C 	0.64870 0.93440 0.50000 -0.05000
C 	C 	0.57910 0.10760 0.50000 0.00700
H 	H 	0.55550 0.16520 0.50000 0.05300
C 	C 	0.68590 0.84290 0.50000 0.13200
N 	N 	0.76320 0.67300 0.50000 -0.28100
N 	N 	0.81550 0.43310 0.50000 -0.27100
N 	N 	0.83890 0.28950 0.50000 -0.14800
Zn	Zn	0.15412 0.43662 0.50000 1.20700
C 	C 	0.12460 0.62880 0.50000 0.11500
H 	H 	0.06330 0.61800 0.50000 -0.01300
C 	C 	0.25080 0.69700 0.50000 -0.00200
H 	H 	0.29480 0.74110 0.50000 0.03900
C 	C 	0.26420 0.60910 0.50000 0.02300
H 	H 	0.31980 0.58110 0.50000 0.01200
C 	C 	0.11510 0.79350 0.50000 0.14200
C 	C 	0.02410 0.79700 0.50000 -0.14400
H 	H 	0.99090 0.74430 0.50000 0.08900
C 	C 	0.98220 0.87680 0.50000 0.01200
H 	H 	0.92000 0.87650 0.50000 0.03100
C 	C 	0.02390 0.95780 0.50000 -0.01600
C 	C 	0.11480 0.95140 0.50000 0.01400
H 	H 	0.14790 0.00410 0.50000 0.03000
C 	C 	0.15970 0.87300 0.50000 -0.14700
H 	H 	0.22190 0.87330 0.50000 0.09000
C 	C 	0.35130 0.06560 0.50000 -0.05000
C 	C 	0.42090 0.89240 0.50000 0.00700
H 	H 	0.44450 0.83480 0.50000 0.05300
C 	C 	0.31410 0.15710 0.50000 0.13200
N 	N 	0.23680 0.32700 0.50000 -0.28100
N 	N 	0.18450 0.56690 0.50000 -0.27100
N 	N 	0.16110 0.71050 0.50000 -0.14800
