data_crystal

_cell_length_a 21.50120
_cell_length_b 11.72510
_cell_length_c 25.76060
_cell_angle_alpha 90.00000
_cell_angle_beta  103.49200
_cell_angle_gamma 90.00000

_symmetry_space_group_name_	'P 1'
_symmetry_space_group_name_H-M	'P 1'

loop_
_symmetry_equiv_pos_as_xyz
  x,y,z

loop_
_atom_site_label
_atom_site_type_symbol
_atom_site_fract_x
_atom_site_fract_y
_atom_site_fract_z
_atom_site_charge
Ag	Ag	0.05399 0.30408 0.03052 0.50300
Cr	Cr	0.23033 0.36263 0.33752 1.60300
O 	O 	0.20132 0.23224 0.29112 -0.52800
O 	O 	0.20606 0.46394 0.27661 -0.53000
O 	O 	0.26170 0.50592 0.88181 -0.52900
O 	O 	0.14658 0.62080 0.85297 -0.51800
O 	O 	0.81633 0.15369 0.82600 -0.52300
O 	O 	0.75292 0.23721 0.89914 -0.52400
N 	N 	0.08651 0.31120 0.11658 -0.26600
N 	N 	0.12975 0.36430 0.98816 -0.25200
N 	N 	0.96720 0.32690 0.96587 -0.26200
C 	C 	0.15146 0.11720 0.21829 -0.86500
H 	H 	0.15980 0.05810 0.24590 0.28400
H 	H 	0.17700 0.10190 0.19210 0.28600
H 	H 	0.10590 0.11700 0.20040 0.25800
C 	C 	0.16927 0.23124 0.24335 0.53100
C 	C 	0.15221 0.33210 0.21300 -0.46800
C 	C 	0.17239 0.44270 0.23087 0.52600
C 	C 	0.15561 0.54370 0.19442 -0.84000
H 	H 	0.11130 0.56640 0.19260 0.25100
H 	H 	0.16030 0.52330 0.15860 0.25800
H 	H 	0.18430 0.60720 0.20820 0.28700
C 	C 	0.11528 0.31980 0.15978 0.19500
C 	C 	0.27103 0.35410 0.94302 -0.78600
H 	H 	0.31370 0.34980 0.93560 0.23400
H 	H 	0.27520 0.36630 0.98130 0.23100
H 	H 	0.24800 0.28260 0.93220 0.23400
C 	C 	0.23475 0.45100 0.91243 0.50100
C 	C 	0.17248 0.47600 0.91807 -0.44700
C 	C 	0.13025 0.55670 0.88698 0.49600
C 	C 	0.06341 0.56770 0.89300 -0.79300
H 	H 	0.03660 0.50960 0.87120 0.23600
H 	H 	0.06260 0.55710 0.93060 0.22400
H 	H 	0.04700 0.64370 0.88120 0.24400
C 	C 	0.14893 0.41260 0.95656 0.17500
C 	C 	0.80969 0.34380 0.97200 -0.81300
H 	H 	0.83680 0.30650 0.00320 0.24900
H 	H 	0.82740 0.41910 0.96710 0.24400
H 	H 	0.76630 0.35270 0.97740 0.26300
C 	C 	0.80753 0.27220 0.92320 0.50200
C 	C 	0.86368 0.25110 0.90559 -0.45900
C 	C 	0.86579 0.19199 0.85790 0.49900
C 	C 	0.92737 0.17410 0.84242 -0.80400
H 	H 	0.91970 0.13110 0.80890 0.24800
H 	H 	0.94640 0.24810 0.83760 0.23300
H 	H 	0.95660 0.13110 0.87050 0.23200
C 	C 	0.92182 0.29090 0.93840 0.17900
Ag	Ag	0.55399 0.80408 0.03052 0.50300
Cr	Cr	0.73033 0.86263 0.33752 1.60400
O 	O 	0.70132 0.73224 0.29112 -0.52800
O 	O 	0.70606 0.96394 0.27661 -0.53000
O 	O 	0.76170 0.00592 0.88181 -0.52900
O 	O 	0.64658 0.12080 0.85297 -0.51800
O 	O 	0.31633 0.65369 0.82600 -0.52300
O 	O 	0.25292 0.73721 0.89914 -0.52400
N 	N 	0.58651 0.81120 0.11658 -0.26600
N 	N 	0.62975 0.86430 0.98816 -0.25200
N 	N 	0.46720 0.82690 0.96587 -0.26200
C 	C 	0.65146 0.61720 0.21829 -0.86500
H 	H 	0.65980 0.55810 0.24590 0.28400
H 	H 	0.67700 0.60190 0.19210 0.28600
H 	H 	0.60590 0.61700 0.20040 0.25800
C 	C 	0.66927 0.73124 0.24335 0.53100
C 	C 	0.65221 0.83210 0.21300 -0.46800
C 	C 	0.67239 0.94270 0.23087 0.52600
C 	C 	0.65561 0.04370 0.19442 -0.84000
H 	H 	0.61130 0.06640 0.19260 0.25100
H 	H 	0.66030 0.02330 0.15860 0.25800
H 	H 	0.68430 0.10720 0.20820 0.28700
C 	C 	0.61528 0.81980 0.15978 0.19500
C 	C 	0.77103 0.85410 0.94302 -0.78600
H 	H 	0.81370 0.84980 0.93560 0.23500
H 	H 	0.77520 0.86630 0.98130 0.23100
H 	H 	0.74800 0.78260 0.93220 0.23400
C 	C 	0.73475 0.95100 0.91243 0.50100
C 	C 	0.67248 0.97600 0.91807 -0.44600
C 	C 	0.63025 0.05670 0.88698 0.49500
C 	C 	0.56341 0.06770 0.89300 -0.79200
H 	H 	0.53660 0.00960 0.87120 0.23600
H 	H 	0.56260 0.05710 0.93060 0.22300
H 	H 	0.54700 0.14370 0.88120 0.24400
C 	C 	0.64893 0.91260 0.95656 0.17500
C 	C 	0.30969 0.84380 0.97200 -0.81000
H 	H 	0.33680 0.80650 0.00320 0.24800
H 	H 	0.32740 0.91910 0.96710 0.24400
H 	H 	0.26630 0.85270 0.97740 0.26200
C 	C 	0.30753 0.77220 0.92320 0.50100
C 	C 	0.36368 0.75110 0.90559 -0.45900
C 	C 	0.36579 0.69199 0.85790 0.49900
C 	C 	0.42737 0.67410 0.84242 -0.80400
H 	H 	0.41970 0.63110 0.80890 0.24800
H 	H 	0.44640 0.74810 0.83760 0.23300
H 	H 	0.45660 0.63110 0.87050 0.23200
C 	C 	0.42182 0.79090 0.93840 0.18000
Ag	Ag	0.05399 0.69592 0.53052 0.50300
Cr	Cr	0.23033 0.63737 0.83752 1.60400
O 	O 	0.20132 0.76776 0.79112 -0.52800
O 	O 	0.20606 0.53606 0.77661 -0.53000
O 	O 	0.26170 0.49408 0.38181 -0.52900
O 	O 	0.14658 0.37920 0.35297 -0.51800
O 	O 	0.81633 0.84631 0.32600 -0.52300
O 	O 	0.75292 0.76279 0.39914 -0.52400
N 	N 	0.08651 0.68880 0.61658 -0.26600
N 	N 	0.12975 0.63570 0.48816 -0.25200
N 	N 	0.96720 0.67310 0.46587 -0.26200
C 	C 	0.15146 0.88280 0.71829 -0.86500
H 	H 	0.15980 0.94190 0.74590 0.28400
H 	H 	0.17700 0.89810 0.69210 0.28600
H 	H 	0.10590 0.88300 0.70040 0.25800
C 	C 	0.16927 0.76876 0.74335 0.53100
C 	C 	0.15221 0.66790 0.71300 -0.46800
C 	C 	0.17239 0.55730 0.73087 0.52600
C 	C 	0.15561 0.45630 0.69442 -0.84000
H 	H 	0.11130 0.43360 0.69260 0.25100
H 	H 	0.16030 0.47670 0.65860 0.25800
H 	H 	0.18430 0.39280 0.70820 0.28700
C 	C 	0.11528 0.68020 0.65978 0.19500
C 	C 	0.27103 0.64590 0.44302 -0.78600
H 	H 	0.31370 0.65020 0.43560 0.23400
H 	H 	0.27520 0.63370 0.48130 0.23000
H 	H 	0.24800 0.71740 0.43220 0.23400
C 	C 	0.23475 0.54900 0.41243 0.50000
C 	C 	0.17248 0.52400 0.41807 -0.44700
C 	C 	0.13025 0.44330 0.38698 0.49600
C 	C 	0.06341 0.43230 0.39300 -0.79300
H 	H 	0.03660 0.49040 0.37120 0.23600
H 	H 	0.06260 0.44290 0.43060 0.22400
H 	H 	0.04700 0.35630 0.38120 0.24400
C 	C 	0.14893 0.58740 0.45656 0.17500
C 	C 	0.80969 0.65620 0.47200 -0.81100
H 	H 	0.83680 0.69350 0.50320 0.24800
H 	H 	0.82740 0.58090 0.46710 0.24400
H 	H 	0.76630 0.64730 0.47740 0.26200
C 	C 	0.80753 0.72780 0.42320 0.50200
C 	C 	0.86368 0.74890 0.40559 -0.45900
C 	C 	0.86579 0.80801 0.35790 0.49900
C 	C 	0.92737 0.82590 0.34242 -0.80400
H 	H 	0.91970 0.86890 0.30890 0.24800
H 	H 	0.94640 0.75190 0.33760 0.23300
H 	H 	0.95660 0.86890 0.37050 0.23200
C 	C 	0.92182 0.70910 0.43840 0.17900
Ag	Ag	0.55399 0.19592 0.53052 0.50300
Cr	Cr	0.73033 0.13737 0.83752 1.60400
O 	O 	0.70132 0.26776 0.79112 -0.52800
O 	O 	0.70606 0.03606 0.77661 -0.53000
O 	O 	0.76170 0.99408 0.38181 -0.52900
O 	O 	0.64658 0.87920 0.35297 -0.51800
O 	O 	0.31633 0.34631 0.32600 -0.52300
O 	O 	0.25292 0.26279 0.39914 -0.52400
N 	N 	0.58651 0.18880 0.61658 -0.26600
N 	N 	0.62975 0.13570 0.48816 -0.25200
N 	N 	0.46720 0.17310 0.46587 -0.26200
C 	C 	0.65146 0.38280 0.71829 -0.86500
H 	H 	0.65980 0.44190 0.74590 0.28400
H 	H 	0.67700 0.39810 0.69210 0.28600
H 	H 	0.60590 0.38300 0.70040 0.25800
C 	C 	0.66927 0.26876 0.74335 0.53100
C 	C 	0.65221 0.16790 0.71300 -0.46800
C 	C 	0.67239 0.05730 0.73087 0.52600
C 	C 	0.65561 0.95630 0.69442 -0.84000
H 	H 	0.61130 0.93360 0.69260 0.25100
H 	H 	0.66030 0.97670 0.65860 0.25800
H 	H 	0.68430 0.89280 0.70820 0.28700
C 	C 	0.61528 0.18020 0.65978 0.19500
C 	C 	0.77103 0.14590 0.44302 -0.78600
H 	H 	0.81370 0.15020 0.43560 0.23400
H 	H 	0.77520 0.13370 0.48130 0.23000
H 	H 	0.74800 0.21740 0.43220 0.23400
C 	C 	0.73475 0.04900 0.41243 0.50100
C 	C 	0.67248 0.02400 0.41807 -0.44600
C 	C 	0.63025 0.94330 0.38698 0.49600
C 	C 	0.56341 0.93230 0.39300 -0.79300
H 	H 	0.53660 0.99040 0.37120 0.23600
H 	H 	0.56260 0.94290 0.43060 0.22400
H 	H 	0.54700 0.85630 0.38120 0.24400
C 	C 	0.64893 0.08740 0.45656 0.17500
C 	C 	0.30969 0.15620 0.47200 -0.81100
H 	H 	0.33680 0.19350 0.50320 0.24800
H 	H 	0.32740 0.08090 0.46710 0.24400
H 	H 	0.26630 0.14730 0.47740 0.26200
C 	C 	0.30753 0.22780 0.42320 0.50200
C 	C 	0.36368 0.24890 0.40559 -0.45900
C 	C 	0.36579 0.30801 0.35790 0.49900
C 	C 	0.42737 0.32590 0.34242 -0.80400
H 	H 	0.41970 0.36890 0.30890 0.24800
H 	H 	0.44640 0.25190 0.33760 0.23300
H 	H 	0.45660 0.36890 0.37050 0.23200
C 	C 	0.42182 0.20910 0.43840 0.17900
Ag	Ag	0.94601 0.30408 0.46948 0.50300
Cr	Cr	0.76967 0.36263 0.16248 1.60400
O 	O 	0.79868 0.23224 0.20888 -0.52800
O 	O 	0.79394 0.46394 0.22339 -0.53000
O 	O 	0.73830 0.50592 0.61819 -0.52900
O 	O 	0.85342 0.62080 0.64703 -0.51800
O 	O 	0.18367 0.15369 0.67400 -0.52300
O 	O 	0.24708 0.23721 0.60086 -0.52400
N 	N 	0.91349 0.31120 0.38342 -0.26600
N 	N 	0.87025 0.36430 0.51184 -0.25200
N 	N 	0.03280 0.32690 0.53413 -0.26200
C 	C 	0.84854 0.11720 0.28171 -0.86500
H 	H 	0.84020 0.05810 0.25410 0.28400
H 	H 	0.82300 0.10190 0.30790 0.28600
H 	H 	0.89410 0.11700 0.29960 0.25800
C 	C 	0.83073 0.23124 0.25665 0.53100
C 	C 	0.84779 0.33210 0.28700 -0.46800
C 	C 	0.82761 0.44270 0.26913 0.52600
C 	C 	0.84439 0.54370 0.30558 -0.84000
H 	H 	0.88870 0.56640 0.30740 0.25100
H 	H 	0.83970 0.52330 0.34140 0.25800
H 	H 	0.81570 0.60720 0.29180 0.28700
C 	C 	0.88472 0.31980 0.34022 0.19500
C 	C 	0.72897 0.35410 0.55698 -0.78600
H 	H 	0.68630 0.34980 0.56440 0.23400
H 	H 	0.72480 0.36630 0.51870 0.23000
H 	H 	0.75200 0.28260 0.56780 0.23400
C 	C 	0.76525 0.45100 0.58757 0.50000
C 	C 	0.82752 0.47600 0.58193 -0.44700
C 	C 	0.86975 0.55670 0.61302 0.49600
C 	C 	0.93659 0.56770 0.60700 -0.79300
H 	H 	0.96340 0.50960 0.62880 0.23600
H 	H 	0.93740 0.55710 0.56940 0.22400
H 	H 	0.95300 0.64370 0.61880 0.24400
C 	C 	0.85107 0.41260 0.54344 0.17500
C 	C 	0.19031 0.34380 0.52800 -0.81100
H 	H 	0.16320 0.30650 0.49680 0.24800
H 	H 	0.17260 0.41910 0.53290 0.24400
H 	H 	0.23370 0.35270 0.52260 0.26200
C 	C 	0.19247 0.27220 0.57680 0.50200
C 	C 	0.13632 0.25110 0.59441 -0.45900
C 	C 	0.13421 0.19199 0.64210 0.49900
C 	C 	0.07263 0.17410 0.65758 -0.80400
H 	H 	0.08030 0.13110 0.69110 0.24800
H 	H 	0.05360 0.24810 0.66240 0.23300
H 	H 	0.04340 0.13110 0.62950 0.23200
C 	C 	0.07818 0.29090 0.56160 0.17900
Ag	Ag	0.44601 0.80408 0.46948 0.50300
Cr	Cr	0.26967 0.86263 0.16248 1.60400
O 	O 	0.29868 0.73224 0.20888 -0.52800
O 	O 	0.29394 0.96394 0.22339 -0.53000
O 	O 	0.23830 0.00592 0.61819 -0.52900
O 	O 	0.35342 0.12080 0.64703 -0.51800
O 	O 	0.68367 0.65369 0.67400 -0.52300
O 	O 	0.74708 0.73721 0.60086 -0.52400
N 	N 	0.41349 0.81120 0.38342 -0.26600
N 	N 	0.37025 0.86430 0.51184 -0.25200
N 	N 	0.53280 0.82690 0.53413 -0.26200
C 	C 	0.34854 0.61720 0.28171 -0.86500
H 	H 	0.34020 0.55810 0.25410 0.28400
H 	H 	0.32300 0.60190 0.30790 0.28600
H 	H 	0.39410 0.61700 0.29960 0.25800
C 	C 	0.33073 0.73124 0.25665 0.53100
C 	C 	0.34779 0.83210 0.28700 -0.46800
C 	C 	0.32761 0.94270 0.26913 0.52600
C 	C 	0.34439 0.04370 0.30558 -0.84000
H 	H 	0.38870 0.06640 0.30740 0.25100
H 	H 	0.33970 0.02330 0.34140 0.25800
H 	H 	0.31570 0.10720 0.29180 0.28700
C 	C 	0.38472 0.81980 0.34022 0.19500
C 	C 	0.22897 0.85410 0.55698 -0.78600
H 	H 	0.18630 0.84980 0.56440 0.23400
H 	H 	0.22480 0.86630 0.51870 0.23000
H 	H 	0.25200 0.78260 0.56780 0.23400
C 	C 	0.26525 0.95100 0.58757 0.50100
C 	C 	0.32752 0.97600 0.58193 -0.44600
C 	C 	0.36975 0.05670 0.61302 0.49600
C 	C 	0.43659 0.06770 0.60700 -0.79300
H 	H 	0.46340 0.00960 0.62880 0.23600
H 	H 	0.43740 0.05710 0.56940 0.22400
H 	H 	0.45300 0.14370 0.61880 0.24400
C 	C 	0.35107 0.91260 0.54344 0.17500
C 	C 	0.69031 0.84380 0.52800 -0.81100
H 	H 	0.66320 0.80650 0.49680 0.24800
H 	H 	0.67260 0.91910 0.53290 0.24400
H 	H 	0.73370 0.85270 0.52260 0.26200
C 	C 	0.69247 0.77220 0.57680 0.50200
C 	C 	0.63632 0.75110 0.59441 -0.45900
C 	C 	0.63421 0.69199 0.64210 0.49900
C 	C 	0.57263 0.67410 0.65758 -0.80400
H 	H 	0.58030 0.63110 0.69110 0.24800
H 	H 	0.55360 0.74810 0.66240 0.23300
H 	H 	0.54340 0.63110 0.62950 0.23200
C 	C 	0.57818 0.79090 0.56160 0.17900
Ag	Ag	0.94601 0.69592 0.96948 0.50400
Cr	Cr	0.76967 0.63737 0.66248 1.60400
O 	O 	0.79868 0.76776 0.70888 -0.52800
O 	O 	0.79394 0.53606 0.72339 -0.53000
O 	O 	0.73830 0.49408 0.11819 -0.52900
O 	O 	0.85342 0.37920 0.14703 -0.51800
O 	O 	0.18367 0.84631 0.17400 -0.52300
O 	O 	0.24708 0.76279 0.10086 -0.52400
N 	N 	0.91349 0.68880 0.88342 -0.26600
N 	N 	0.87025 0.63570 0.01184 -0.25200
N 	N 	0.03280 0.67310 0.03413 -0.26200
C 	C 	0.84854 0.88280 0.78171 -0.86500
H 	H 	0.84020 0.94190 0.75410 0.28400
H 	H 	0.82300 0.89810 0.80790 0.28600
H 	H 	0.89410 0.88300 0.79960 0.25800
C 	C 	0.83073 0.76876 0.75665 0.53100
C 	C 	0.84779 0.66790 0.78700 -0.46800
C 	C 	0.82761 0.55730 0.76913 0.52600
C 	C 	0.84439 0.45630 0.80558 -0.84000
H 	H 	0.88870 0.43360 0.80740 0.25100
H 	H 	0.83970 0.47670 0.84140 0.25800
H 	H 	0.81570 0.39280 0.79180 0.28700
C 	C 	0.88472 0.68020 0.84022 0.19500
C 	C 	0.72897 0.64590 0.05698 -0.78600
H 	H 	0.68630 0.65020 0.06440 0.23400
H 	H 	0.72480 0.63370 0.01870 0.23100
H 	H 	0.75200 0.71740 0.06780 0.23400
C 	C 	0.76525 0.54900 0.08757 0.50100
C 	C 	0.82752 0.52400 0.08193 -0.44700
C 	C 	0.86975 0.44330 0.11302 0.49600
C 	C 	0.93659 0.43230 0.10700 -0.79300
H 	H 	0.96340 0.49040 0.12880 0.23600
H 	H 	0.93740 0.44290 0.06940 0.22400
H 	H 	0.95300 0.35630 0.11880 0.24400
C 	C 	0.85107 0.58740 0.04344 0.17500
C 	C 	0.19031 0.65620 0.02800 -0.81300
H 	H 	0.16320 0.69350 0.99680 0.24900
H 	H 	0.17260 0.58090 0.03290 0.24400
H 	H 	0.23370 0.64730 0.02260 0.26300
C 	C 	0.19247 0.72780 0.07680 0.50200
C 	C 	0.13632 0.74890 0.09441 -0.45900
C 	C 	0.13421 0.80801 0.14210 0.49900
C 	C 	0.07263 0.82590 0.15758 -0.80400
H 	H 	0.08030 0.86890 0.19110 0.24800
H 	H 	0.05360 0.75190 0.16240 0.23300
H 	H 	0.04340 0.86890 0.12950 0.23200
C 	C 	0.07818 0.70910 0.06160 0.17900
Ag	Ag	0.44601 0.19592 0.96948 0.50300
Cr	Cr	0.26967 0.13737 0.66248 1.60400
O 	O 	0.29868 0.26776 0.70888 -0.52800
O 	O 	0.29394 0.03606 0.72339 -0.53000
O 	O 	0.23830 0.99408 0.11819 -0.52900
O 	O 	0.35342 0.87920 0.14703 -0.51800
O 	O 	0.68367 0.34631 0.17400 -0.52300
O 	O 	0.74708 0.26279 0.10086 -0.52400
N 	N 	0.41349 0.18880 0.88342 -0.26600
N 	N 	0.37025 0.13570 0.01184 -0.25200
N 	N 	0.53280 0.17310 0.03413 -0.26200
C 	C 	0.34854 0.38280 0.78171 -0.86500
H 	H 	0.34020 0.44190 0.75410 0.28400
H 	H 	0.32300 0.39810 0.80790 0.28600
H 	H 	0.39410 0.38300 0.79960 0.25800
C 	C 	0.33073 0.26876 0.75665 0.53100
C 	C 	0.34779 0.16790 0.78700 -0.46800
C 	C 	0.32761 0.05730 0.76913 0.52600
C 	C 	0.34439 0.95630 0.80558 -0.84000
H 	H 	0.38870 0.93360 0.80740 0.25100
H 	H 	0.33970 0.97670 0.84140 0.25800
H 	H 	0.31570 0.89280 0.79180 0.28700
C 	C 	0.38472 0.18020 0.84022 0.19500
C 	C 	0.22897 0.14590 0.05698 -0.78600
H 	H 	0.18630 0.15020 0.06440 0.23500
H 	H 	0.22480 0.13370 0.01870 0.23100
H 	H 	0.25200 0.21740 0.06780 0.23400
C 	C 	0.26525 0.04900 0.08757 0.50100
C 	C 	0.32752 0.02400 0.08193 -0.44600
C 	C 	0.36975 0.94330 0.11302 0.49500
C 	C 	0.43659 0.93230 0.10700 -0.79200
H 	H 	0.46340 0.99040 0.12880 0.23600
H 	H 	0.43740 0.94290 0.06940 0.22300
H 	H 	0.45300 0.85630 0.11880 0.24400
C 	C 	0.35107 0.08740 0.04344 0.17500
C 	C 	0.69031 0.15620 0.02800 -0.81000
H 	H 	0.66320 0.19350 0.99680 0.24800
H 	H 	0.67260 0.08090 0.03290 0.24400
H 	H 	0.73370 0.14730 0.02260 0.26200
C 	C 	0.69247 0.22780 0.07680 0.50100
C 	C 	0.63632 0.24890 0.09441 -0.45900
C 	C 	0.63421 0.30801 0.14210 0.49900
C 	C 	0.57263 0.32590 0.15758 -0.80400
H 	H 	0.58030 0.36890 0.19110 0.24800
H 	H 	0.55360 0.25190 0.16240 0.23300
H 	H 	0.54340 0.36890 0.12950 0.23200
C 	C 	0.57818 0.20910 0.06160 0.18000
