data_crystal

_cell_length_a 29.37200
_cell_length_b 15.78400
_cell_length_c 19.14000
_cell_angle_alpha 90.00000
_cell_angle_beta  107.16000
_cell_angle_gamma 90.00000

_symmetry_space_group_name_	'P 1'
_symmetry_space_group_name_H-M	'P 1'

loop_
_symmetry_equiv_pos_as_xyz
  x,y,z

loop_
_atom_site_label
_atom_site_type_symbol
_atom_site_fract_x
_atom_site_fract_y
_atom_site_fract_z
_atom_site_charge
Zn	Zn	0.74047 0.82928 0.53567 1.19900
Zn	Zn	0.58477 0.81496 0.79837 1.15400
Zn	Zn	0.51353 0.89549 0.82074 1.17500
O 	O 	0.55530 0.28880 0.36280 2.52000
O 	O 	0.53710 0.16800 0.41070 0.48800
O 	O 	0.58120 0.74990 0.70380 -0.46600
O 	O 	0.53906 0.63460 0.70670 -0.54100
O 	O 	0.69117 0.74840 0.55440 -0.49400
O 	O 	0.70541 0.63040 0.50220 -0.48700
O 	O 	0.71104 0.26820 0.88283 -0.49200
O 	O 	0.69525 0.15030 0.93461 -0.48400
O 	O 	0.56370 0.96950 0.81150 -0.24800
O 	O 	0.53650 0.97550 0.68140 -0.51500
C 	C 	0.60086 0.40460 0.57040 0.13400
C 	C 	0.60594 0.35050 0.63060 -0.17400
H 	H 	0.61330 0.37340 0.67740 0.09900
C 	C 	0.60015 0.26350 0.62170 0.09600
C 	C 	0.58670 0.23050 0.55020 -0.11000
H 	H 	0.58200 0.17250 0.54300 0.09200
C 	C 	0.58030 0.28350 0.49050 0.06200
C 	C 	0.58810 0.37040 0.50100 -0.20600
H 	H 	0.58480 0.40560 0.46080 0.15800
C 	C 	0.60834 0.49800 0.58270 -0.06900
C 	C 	0.58642 0.54150 0.62630 0.04100
H 	H 	0.56630 0.51260 0.64760 0.04900
C 	C 	0.59377 0.62810 0.63890 -0.12900
C 	C 	0.62551 0.66940 0.61020 0.07800
H 	H 	0.63140 0.72680 0.61970 0.02500
C 	C 	0.64878 0.62670 0.56740 -0.13400
C 	C 	0.63937 0.54060 0.55270 0.03600
H 	H 	0.65400 0.51190 0.52270 0.03100
C 	C 	0.60944 0.20660 0.68700 -0.06300
C 	C 	0.64271 0.22700 0.75020 0.03500
H 	H 	0.65960 0.27740 0.75290 0.02700
C 	C 	0.65235 0.17460 0.81130 -0.13800
C 	C 	0.62730 0.10020 0.80730 0.08600
H 	H 	0.63380 0.06420 0.84750 0.03100
C 	C 	0.59270 0.07910 0.74390 -0.14300
C 	C 	0.58430 0.13120 0.68350 0.03500
H 	H 	0.56160 0.11590 0.64010 0.03500
C 	C 	0.55430 0.24440 0.41420 -3.08700
C 	C 	0.56857 0.67500 0.68470 0.44100
C 	C 	0.68485 0.67270 0.53880 0.43300
C 	C 	0.68899 0.20030 0.88200 0.42000
C 	C 	0.55660 0.00760 0.75120 -0.21300
Zn	Zn	0.51025 0.70113 0.76106 0.74400
O 	O 	0.57600 0.30500 0.36430 -3.04900
O 	O 	0.58550 0.17560 0.40960 -0.85000
O 	O 	0.56050 0.75540 0.66970 -0.09400
O 	O 	0.59000 0.93960 0.78050 -0.53900
O 	O 	0.51590 0.00730 0.70330 -0.07500
C 	C 	0.58450 0.25390 0.41850 2.95300
C 	C 	0.57430 0.98840 0.73180 0.69600
Zn	Zn	0.24047 0.32928 0.53567 1.20000
Zn	Zn	0.08477 0.31496 0.79837 1.15500
Zn	Zn	0.01353 0.39549 0.82074 1.18200
O 	O 	0.05530 0.78880 0.36280 2.53400
O 	O 	0.03710 0.66800 0.41070 0.49800
O 	O 	0.08120 0.24990 0.70380 -0.47100
O 	O 	0.03906 0.13460 0.70670 -0.52800
O 	O 	0.19117 0.24840 0.55440 -0.49100
O 	O 	0.20541 0.13040 0.50220 -0.48600
O 	O 	0.21104 0.76820 0.88283 -0.49200
O 	O 	0.19525 0.65030 0.93461 -0.48400
O 	O 	0.06370 0.46950 0.81150 -0.25500
O 	O 	0.03650 0.47550 0.68140 -0.49600
C 	C 	0.10086 0.90460 0.57040 0.13600
C 	C 	0.10594 0.85050 0.63060 -0.17400
H 	H 	0.11330 0.87340 0.67740 0.10000
C 	C 	0.10015 0.76350 0.62170 0.09800
C 	C 	0.08670 0.73050 0.55020 -0.11000
H 	H 	0.08200 0.67250 0.54300 0.09500
C 	C 	0.08030 0.78350 0.49050 0.06700
C 	C 	0.08810 0.87040 0.50100 -0.20600
H 	H 	0.08480 0.90560 0.46080 0.16100
C 	C 	0.10834 0.99800 0.58270 -0.06700
C 	C 	0.08642 0.04150 0.62630 0.04100
H 	H 	0.06630 0.01260 0.64760 0.05300
C 	C 	0.09377 0.12810 0.63890 -0.12400
C 	C 	0.12551 0.16940 0.61020 0.07800
H 	H 	0.13140 0.22680 0.61970 0.02700
C 	C 	0.14878 0.12670 0.56740 -0.13200
C 	C 	0.13937 0.04060 0.55270 0.03700
H 	H 	0.15400 0.01190 0.52270 0.03200
C 	C 	0.10944 0.70660 0.68700 -0.06000
C 	C 	0.14271 0.72700 0.75020 0.03300
H 	H 	0.15960 0.77740 0.75290 0.02800
C 	C 	0.15235 0.67460 0.81130 -0.13500
C 	C 	0.12730 0.60020 0.80730 0.08300
H 	H 	0.13380 0.56420 0.84750 0.03300
C 	C 	0.09270 0.57910 0.74390 -0.13500
C 	C 	0.08430 0.63120 0.68350 0.03200
H 	H 	0.06160 0.61590 0.64010 0.04000
C 	C 	0.05430 0.74440 0.41420 -3.08800
C 	C 	0.06857 0.17500 0.68470 0.43900
C 	C 	0.18485 0.17270 0.53880 0.43300
C 	C 	0.18899 0.70030 0.88200 0.42000
C 	C 	0.05660 0.50760 0.75120 -0.16700
Zn	Zn	0.01025 0.20113 0.76106 0.76000
O 	O 	0.07600 0.80500 0.36430 -3.05600
O 	O 	0.08550 0.67560 0.40960 -0.85000
O 	O 	0.06050 0.25540 0.66970 -0.08100
O 	O 	0.09000 0.43960 0.78050 -0.52600
O 	O 	0.01590 0.50730 0.70330 -0.07600
C 	C 	0.08450 0.75390 0.41850 2.95200
C 	C 	0.07430 0.48840 0.73180 0.64600
Zn	Zn	0.25953 0.82928 0.96433 1.19900
Zn	Zn	0.41523 0.81496 0.70163 1.15500
Zn	Zn	0.48647 0.89549 0.67926 1.17600
O 	O 	0.44470 0.28880 0.13720 2.52400
O 	O 	0.46290 0.16800 0.08930 0.48900
O 	O 	0.41880 0.74990 0.79620 -0.46500
O 	O 	0.46094 0.63460 0.79330 -0.53900
O 	O 	0.30883 0.74840 0.94560 -0.49300
O 	O 	0.29459 0.63040 0.99780 -0.48700
O 	O 	0.28896 0.26820 0.61717 -0.49200
O 	O 	0.30475 0.15030 0.56539 -0.48500
O 	O 	0.43630 0.96950 0.68850 -0.24900
O 	O 	0.46350 0.97550 0.81860 -0.51500
C 	C 	0.39914 0.40460 0.92960 0.13000
C 	C 	0.39406 0.35050 0.86940 -0.17000
H 	H 	0.38670 0.37340 0.82260 0.09700
C 	C 	0.39985 0.26350 0.87830 0.09200
C 	C 	0.41330 0.23050 0.94980 -0.10400
H 	H 	0.41800 0.17250 0.95700 0.09100
C 	C 	0.41970 0.28350 0.00950 0.05500
C 	C 	0.41190 0.37040 0.99900 -0.19800
H 	H 	0.41520 0.40560 0.03920 0.15500
C 	C 	0.39166 0.49800 0.91730 -0.06600
C 	C 	0.41358 0.54150 0.87370 0.04000
H 	H 	0.43370 0.51260 0.85240 0.04900
C 	C 	0.40623 0.62810 0.86110 -0.12800
C 	C 	0.37449 0.66940 0.88980 0.07800
H 	H 	0.36860 0.72680 0.88030 0.02500
C 	C 	0.35122 0.62670 0.93260 -0.13400
C 	C 	0.36063 0.54060 0.94730 0.03500
H 	H 	0.34600 0.51190 0.97730 0.03200
C 	C 	0.39056 0.20660 0.81300 -0.06100
C 	C 	0.35729 0.22700 0.74980 0.03400
H 	H 	0.34040 0.27740 0.74710 0.02800
C 	C 	0.34765 0.17460 0.68870 -0.13800
C 	C 	0.37270 0.10020 0.69270 0.08500
H 	H 	0.36620 0.06420 0.65250 0.03100
C 	C 	0.40730 0.07910 0.75610 -0.14200
C 	C 	0.41570 0.13120 0.81650 0.03400
H 	H 	0.43840 0.11590 0.85990 0.03500
C 	C 	0.44570 0.24440 0.08580 -3.08900
C 	C 	0.43143 0.67500 0.81530 0.44000
C 	C 	0.31515 0.67270 0.96120 0.43200
C 	C 	0.31101 0.20030 0.61800 0.42000
C 	C 	0.44340 0.00760 0.74880 -0.20900
Zn	Zn	0.48975 0.70113 0.73894 0.74400
O 	O 	0.42400 0.30500 0.13570 -3.05200
O 	O 	0.41450 0.17560 0.09040 -0.85100
O 	O 	0.43950 0.75540 0.83030 -0.09400
O 	O 	0.41000 0.93960 0.71950 -0.53800
O 	O 	0.48410 0.00730 0.79670 -0.07500
C 	C 	0.41550 0.25390 0.08150 2.95700
C 	C 	0.42570 0.98840 0.76820 0.69200
Zn	Zn	0.75953 0.32928 0.96433 1.20000
Zn	Zn	0.91523 0.31496 0.70163 1.15300
Zn	Zn	0.98647 0.39549 0.67926 1.16600
O 	O 	0.94470 0.78880 0.13720 2.52100
O 	O 	0.96290 0.66800 0.08930 0.48300
O 	O 	0.91880 0.24990 0.79620 -0.46000
O 	O 	0.96094 0.13460 0.79330 -0.55100
O 	O 	0.80883 0.24840 0.94560 -0.49300
O 	O 	0.79459 0.13040 0.99780 -0.48700
O 	O 	0.78896 0.76820 0.61717 -0.49300
O 	O 	0.80475 0.65030 0.56539 -0.48500
O 	O 	0.93630 0.46950 0.68850 -0.26000
O 	O 	0.96350 0.47550 0.81860 -0.51300
C 	C 	0.89914 0.90460 0.92960 0.13500
C 	C 	0.89406 0.85050 0.86940 -0.17700
H 	H 	0.88670 0.87340 0.82260 0.09800
C 	C 	0.89985 0.76350 0.87830 0.09500
C 	C 	0.91330 0.73050 0.94980 -0.11000
H 	H 	0.91800 0.67250 0.95700 0.09000
C 	C 	0.91970 0.78350 0.00950 0.05900
C 	C 	0.91190 0.87040 0.99900 -0.20900
H 	H 	0.91520 0.90560 0.03920 0.15600
C 	C 	0.89166 0.99800 0.91730 -0.07900
C 	C 	0.91358 0.04150 0.87370 0.04900
H 	H 	0.93370 0.01260 0.85240 0.04200
C 	C 	0.90623 0.12810 0.86110 -0.13700
C 	C 	0.87449 0.16940 0.88980 0.08300
H 	H 	0.86860 0.22680 0.88030 0.02200
C 	C 	0.85122 0.12670 0.93260 -0.14000
C 	C 	0.86063 0.04060 0.94730 0.04300
H 	H 	0.84600 0.01190 0.97730 0.02900
C 	C 	0.89056 0.70660 0.81300 -0.06600
C 	C 	0.85729 0.72700 0.74980 0.03600
H 	H 	0.84040 0.77740 0.74710 0.02600
C 	C 	0.84765 0.67460 0.68870 -0.14100
C 	C 	0.87270 0.60020 0.69270 0.08700
H 	H 	0.86620 0.56420 0.65250 0.02900
C 	C 	0.90730 0.57910 0.75610 -0.14700
C 	C 	0.91570 0.63120 0.81650 0.03600
H 	H 	0.93840 0.61590 0.85990 0.03000
C 	C 	0.94570 0.74440 0.08580 -3.10400
C 	C 	0.93143 0.17500 0.81530 0.44400
C 	C 	0.81515 0.17270 0.96120 0.43400
C 	C 	0.81101 0.70030 0.61800 0.42000
C 	C 	0.94340 0.50760 0.74880 -0.19500
Zn	Zn	0.98975 0.20113 0.73894 0.72500
O 	O 	0.92400 0.80500 0.13570 -3.05600
O 	O 	0.91450 0.67560 0.09040 -0.85300
O 	O 	0.93950 0.25540 0.83030 -0.10900
O 	O 	0.91000 0.43960 0.71950 -0.53500
O 	O 	0.98410 0.50730 0.79670 -0.09800
C 	C 	0.91550 0.75390 0.08150 2.96800
C 	C 	0.92570 0.48840 0.76820 0.67800
Zn	Zn	0.25953 0.17072 0.46433 1.20000
Zn	Zn	0.41523 0.18504 0.20163 1.15500
Zn	Zn	0.48647 0.10451 0.17926 1.17600
O 	O 	0.44470 0.71120 0.63720 2.52100
O 	O 	0.46290 0.83200 0.58930 0.48900
O 	O 	0.41880 0.25010 0.29620 -0.46500
O 	O 	0.46094 0.36540 0.29330 -0.54000
O 	O 	0.30883 0.25160 0.44560 -0.49300
O 	O 	0.29459 0.36960 0.49780 -0.48700
O 	O 	0.28896 0.73180 0.11717 -0.49200
O 	O 	0.30475 0.84970 0.06539 -0.48400
O 	O 	0.43630 0.03050 0.18850 -0.24800
O 	O 	0.46350 0.02450 0.31860 -0.51600
C 	C 	0.39914 0.59540 0.42960 0.13400
C 	C 	0.39406 0.64950 0.36940 -0.17400
H 	H 	0.38670 0.62660 0.32260 0.09900
C 	C 	0.39985 0.73650 0.37830 0.09600
C 	C 	0.41330 0.76950 0.44980 -0.11000
H 	H 	0.41800 0.82750 0.45700 0.09200
C 	C 	0.41970 0.71650 0.50950 0.06200
C 	C 	0.41190 0.62960 0.49900 -0.20600
H 	H 	0.41520 0.59440 0.53920 0.15800
C 	C 	0.39166 0.50200 0.41730 -0.06900
C 	C 	0.41358 0.45850 0.37370 0.04100
H 	H 	0.43370 0.48740 0.35240 0.04900
C 	C 	0.40623 0.37190 0.36110 -0.12900
C 	C 	0.37449 0.33060 0.38980 0.07800
H 	H 	0.36860 0.27320 0.38030 0.02500
C 	C 	0.35122 0.37330 0.43260 -0.13400
C 	C 	0.36063 0.45940 0.44730 0.03600
H 	H 	0.34600 0.48810 0.47730 0.03100
C 	C 	0.39056 0.79340 0.31300 -0.06300
C 	C 	0.35729 0.77300 0.24980 0.03500
H 	H 	0.34040 0.72260 0.24710 0.02700
C 	C 	0.34765 0.82540 0.18870 -0.13900
C 	C 	0.37270 0.89980 0.19270 0.08600
H 	H 	0.36620 0.93580 0.15250 0.03000
C 	C 	0.40730 0.92090 0.25610 -0.14300
C 	C 	0.41570 0.86880 0.31650 0.03500
H 	H 	0.43840 0.88410 0.35990 0.03500
C 	C 	0.44570 0.75560 0.58580 -3.08700
C 	C 	0.43143 0.32500 0.31530 0.44100
C 	C 	0.31515 0.32730 0.46120 0.43300
C 	C 	0.31101 0.79970 0.11800 0.42000
C 	C 	0.44340 0.99240 0.24880 -0.21400
Zn	Zn	0.48975 0.29887 0.23894 0.74400
O 	O 	0.42400 0.69500 0.63570 -3.04900
O 	O 	0.41450 0.82440 0.59040 -0.85000
O 	O 	0.43950 0.24460 0.33030 -0.09400
O 	O 	0.41000 0.06040 0.21950 -0.54000
O 	O 	0.48410 0.99270 0.29670 -0.07400
C 	C 	0.41550 0.74610 0.58150 2.95300
C 	C 	0.42570 0.01160 0.26820 0.69700
Zn	Zn	0.75953 0.67072 0.46433 1.19900
Zn	Zn	0.91523 0.68504 0.20163 1.15300
Zn	Zn	0.98647 0.60451 0.17926 1.16600
O 	O 	0.94470 0.21120 0.63720 2.52100
O 	O 	0.96290 0.33200 0.58930 0.48300
O 	O 	0.91880 0.75010 0.29620 -0.45900
O 	O 	0.96094 0.86540 0.29330 -0.55100
O 	O 	0.80883 0.75160 0.44560 -0.49400
O 	O 	0.79459 0.86960 0.49780 -0.48800
O 	O 	0.78896 0.23180 0.11717 -0.49300
O 	O 	0.80475 0.34970 0.06539 -0.48600
O 	O 	0.93630 0.53050 0.18850 -0.26000
O 	O 	0.96350 0.52450 0.31860 -0.51300
C 	C 	0.89914 0.09540 0.42960 0.13200
C 	C 	0.89406 0.14950 0.36940 -0.17500
H 	H 	0.88670 0.12660 0.32260 0.09700
C 	C 	0.89985 0.23650 0.37830 0.09400
C 	C 	0.91330 0.26950 0.44980 -0.10900
H 	H 	0.91800 0.32750 0.45700 0.09000
C 	C 	0.91970 0.21650 0.50950 0.05800
C 	C 	0.91190 0.12960 0.49900 -0.20700
H 	H 	0.91520 0.09440 0.53920 0.15500
C 	C 	0.89166 0.00200 0.41730 -0.07400
C 	C 	0.91358 0.95850 0.37370 0.04400
H 	H 	0.93370 0.98740 0.35240 0.04300
C 	C 	0.90623 0.87190 0.36110 -0.13500
C 	C 	0.87449 0.83060 0.38980 0.08100
H 	H 	0.86860 0.77320 0.38030 0.02300
C 	C 	0.85122 0.87330 0.43260 -0.13800
C 	C 	0.86063 0.95940 0.44730 0.03800
H 	H 	0.84600 0.98810 0.47730 0.03000
C 	C 	0.89056 0.29340 0.31300 -0.06600
C 	C 	0.85729 0.27300 0.24980 0.03500
H 	H 	0.84040 0.22260 0.24710 0.02600
C 	C 	0.84765 0.32540 0.18870 -0.14100
C 	C 	0.87270 0.39980 0.19270 0.08700
H 	H 	0.86620 0.43580 0.15250 0.02900
C 	C 	0.90730 0.42090 0.25610 -0.14700
C 	C 	0.91570 0.36880 0.31650 0.03600
H 	H 	0.93840 0.38410 0.35990 0.03000
C 	C 	0.94570 0.25560 0.58580 -3.10400
C 	C 	0.93143 0.82500 0.31530 0.44300
C 	C 	0.81515 0.82730 0.46120 0.43300
C 	C 	0.81101 0.29970 0.11800 0.42000
C 	C 	0.94340 0.49240 0.24880 -0.19500
Zn	Zn	0.98975 0.79887 0.23894 0.72500
O 	O 	0.92400 0.19500 0.63570 -3.05600
O 	O 	0.91450 0.32440 0.59040 -0.85300
O 	O 	0.93950 0.74460 0.33030 -0.10900
O 	O 	0.91000 0.56040 0.21950 -0.53500
O 	O 	0.98410 0.49270 0.29670 -0.09800
C 	C 	0.91550 0.24610 0.58150 2.96900
C 	C 	0.92570 0.51160 0.26820 0.67900
Zn	Zn	0.74047 0.17072 0.03567 1.19900
Zn	Zn	0.58477 0.18504 0.29837 1.15500
Zn	Zn	0.51353 0.10451 0.32074 1.17600
O 	O 	0.55530 0.71120 0.86280 2.52200
O 	O 	0.53710 0.83200 0.91070 0.48900
O 	O 	0.58120 0.25010 0.20380 -0.46500
O 	O 	0.53906 0.36540 0.20670 -0.54000
O 	O 	0.69117 0.25160 0.05440 -0.49300
O 	O 	0.70541 0.36960 0.00220 -0.48800
O 	O 	0.71104 0.73180 0.38283 -0.49200
O 	O 	0.69525 0.84970 0.43461 -0.48500
O 	O 	0.56370 0.03050 0.31150 -0.24900
O 	O 	0.53650 0.02450 0.18140 -0.51500
C 	C 	0.60086 0.59540 0.07040 0.13300
C 	C 	0.60594 0.64950 0.13060 -0.17400
H 	H 	0.61330 0.62660 0.17740 0.09800
C 	C 	0.60015 0.73650 0.12170 0.09500
C 	C 	0.58670 0.76950 0.05020 -0.10900
H 	H 	0.58200 0.82750 0.04300 0.09200
C 	C 	0.58030 0.71650 0.99050 0.06100
C 	C 	0.58810 0.62960 0.00100 -0.20500
H 	H 	0.58480 0.59440 0.96080 0.15800
C 	C 	0.60834 0.50200 0.08270 -0.06900
C 	C 	0.58642 0.45850 0.12630 0.04100
H 	H 	0.56630 0.48740 0.14760 0.04900
C 	C 	0.59377 0.37190 0.13890 -0.12900
C 	C 	0.62551 0.33060 0.11020 0.07800
H 	H 	0.63140 0.27320 0.11970 0.02500
C 	C 	0.64878 0.37330 0.06740 -0.13500
C 	C 	0.63937 0.45940 0.05270 0.03600
H 	H 	0.65400 0.48810 0.02270 0.03100
C 	C 	0.60944 0.79340 0.18700 -0.06300
C 	C 	0.64271 0.77300 0.25020 0.03500
H 	H 	0.65960 0.72260 0.25290 0.02700
C 	C 	0.65235 0.82540 0.31130 -0.13800
C 	C 	0.62730 0.89980 0.30730 0.08600
H 	H 	0.63380 0.93580 0.34750 0.03000
C 	C 	0.59270 0.92090 0.24390 -0.14300
C 	C 	0.58430 0.86880 0.18350 0.03500
H 	H 	0.56160 0.88410 0.14010 0.03500
C 	C 	0.55430 0.75560 0.91420 -3.08800
C 	C 	0.56857 0.32500 0.18470 0.44100
C 	C 	0.68485 0.32730 0.03880 0.43300
C 	C 	0.68899 0.79970 0.38200 0.42000
C 	C 	0.55660 0.99240 0.25120 -0.21000
Zn	Zn	0.51025 0.29887 0.26106 0.74400
O 	O 	0.57600 0.69500 0.86430 -3.05000
O 	O 	0.58550 0.82440 0.90960 -0.85000
O 	O 	0.56050 0.24460 0.16970 -0.09400
O 	O 	0.59000 0.06040 0.28050 -0.53900
O 	O 	0.51590 0.99270 0.20330 -0.07500
C 	C 	0.58450 0.74610 0.91850 2.95400
C 	C 	0.57430 0.01160 0.23180 0.69300
Zn	Zn	0.24047 0.67072 0.03567 1.20000
Zn	Zn	0.08477 0.68504 0.29837 1.15500
Zn	Zn	0.01353 0.60451 0.32074 1.18200
O 	O 	0.05530 0.21120 0.86280 2.53100
O 	O 	0.03710 0.33200 0.91070 0.49700
O 	O 	0.08120 0.75010 0.20380 -0.47100
O 	O 	0.03906 0.86540 0.20670 -0.52900
O 	O 	0.19117 0.75160 0.05440 -0.49200
O 	O 	0.20541 0.86960 0.00220 -0.48600
O 	O 	0.21104 0.23180 0.38283 -0.49200
O 	O 	0.19525 0.34970 0.43461 -0.48400
O 	O 	0.06370 0.53050 0.31150 -0.25500
O 	O 	0.03650 0.52450 0.18140 -0.49700
C 	C 	0.10086 0.09540 0.07040 0.14600
C 	C 	0.10594 0.14950 0.13060 -0.18100
H 	H 	0.11330 0.12660 0.17740 0.10200
C 	C 	0.10015 0.23650 0.12170 0.10400
C 	C 	0.08670 0.26950 0.05020 -0.12000
H 	H 	0.08200 0.32750 0.04300 0.09700
C 	C 	0.08030 0.21650 0.99050 0.07900
C 	C 	0.08810 0.12960 0.00100 -0.22200
H 	H 	0.08480 0.09440 0.96080 0.16900
C 	C 	0.10834 0.00200 0.08270 -0.07700
C 	C 	0.08642 0.95850 0.12630 0.04800
H 	H 	0.06630 0.98740 0.14760 0.05100
C 	C 	0.09377 0.87190 0.13890 -0.12800
C 	C 	0.12551 0.83060 0.11020 0.08100
H 	H 	0.13140 0.77320 0.11970 0.02600
C 	C 	0.14878 0.87330 0.06740 -0.13600
C 	C 	0.13937 0.95940 0.05270 0.04400
H 	H 	0.15400 0.98810 0.02270 0.03000
C 	C 	0.10944 0.29340 0.18700 -0.06300
C 	C 	0.14271 0.27300 0.25020 0.03500
H 	H 	0.15960 0.22260 0.25290 0.02700
C 	C 	0.15235 0.32540 0.31130 -0.13600
C 	C 	0.12730 0.39980 0.30730 0.08400
H 	H 	0.13380 0.43580 0.34750 0.03200
C 	C 	0.09270 0.42090 0.24390 -0.13600
C 	C 	0.08430 0.36880 0.18350 0.03400
H 	H 	0.06160 0.38410 0.14010 0.03900
C 	C 	0.05430 0.25560 0.91420 -3.08500
C 	C 	0.06857 0.82500 0.18470 0.44000
C 	C 	0.18485 0.82730 0.03880 0.43400
C 	C 	0.18899 0.29970 0.38200 0.42000
C 	C 	0.05660 0.49240 0.25120 -0.16700
Zn	Zn	0.01025 0.79887 0.26106 0.76000
O 	O 	0.07600 0.19500 0.86430 -3.05300
O 	O 	0.08550 0.32440 0.90960 -0.84800
O 	O 	0.06050 0.74460 0.16970 -0.08200
O 	O 	0.09000 0.56040 0.28050 -0.52600
O 	O 	0.01590 0.49270 0.20330 -0.07600
C 	C 	0.08450 0.24610 0.91850 2.94600
C 	C 	0.07430 0.51160 0.23180 0.64600
O 	O 	0.50000 0.82000 0.75000 -1.15400
O 	O 	0.00000 0.32000 0.75000 -1.13400
O 	O 	0.50000 0.18000 0.25000 -1.15400
O 	O 	-0.00000 0.68000 0.25000 -1.13400
