data_crystal

_cell_length_a 12.77600
_cell_length_b 18.30010
_cell_length_c 24.72400
_cell_angle_alpha 90.00000
_cell_angle_beta  90.00000
_cell_angle_gamma 110.43000

_symmetry_space_group_name_	'P 1'
_symmetry_space_group_name_H-M	'P 1'

loop_
_symmetry_equiv_pos_as_xyz
  x,y,z

loop_
_atom_site_label
_atom_site_type_symbol
_atom_site_fract_x
_atom_site_fract_y
_atom_site_fract_z
_atom_site_charge
Er	Er	0.23021 0.76948 0.78565 1.75200
Er	Er	0.76979 0.23052 0.28565 1.75200
Er	Er	0.53927 0.76948 0.71435 1.75200
Er	Er	0.46073 0.23052 0.21435 1.75200
H 	H 	0.07290 0.88860 0.76210 -0.01600
H 	H 	0.03080 0.99140 0.79930 0.11600
H 	H 	0.12440 0.05420 0.87600 0.04200
H 	H 	0.26020 0.01420 0.91540 0.07900
H 	H 	0.30220 0.91120 0.87830 0.01100
H 	H 	0.07120 0.54620 0.90290 0.09400
H 	H 	0.06470 0.79660 0.93480 0.14700
H 	H 	0.91860 0.78220 0.07950 0.12300
H 	H 	0.90190 0.65300 0.08810 0.02700
H 	H 	0.98790 0.42020 0.90700 -0.10000
H 	H 	0.09890 0.42980 0.93880 -0.09300
H 	H 	0.99280 0.29580 0.92880 0.32200
H 	H 	0.00310 0.31780 0.99040 0.33300
H 	H 	0.89250 0.30840 0.95900 0.32400
H 	H 	0.67770 0.36660 0.09200 0.07100
H 	H 	0.91800 0.43980 0.24120 0.15300
H 	H 	0.17990 0.62000 0.18580 0.12600
H 	H 	0.09340 0.61660 0.10510 -0.00100
H 	H 	0.72120 0.34040 0.00090 -0.11600
H 	H 	0.61560 0.36540 0.99500 -0.11200
H 	H 	0.66880 0.33460 0.90900 0.31900
H 	H 	0.68300 0.42320 0.91060 0.35300
H 	H 	0.78770 0.39780 0.91650 0.35600
H 	H 	0.40390 0.84000 0.90930 0.07400
H 	H 	0.70940 0.97760 0.80180 0.15700
H 	H 	0.91040 0.13880 0.90040 0.13000
H 	H 	0.78900 0.09260 0.97170 0.02200
H 	H 	0.27500 0.84820 0.98050 -0.21300
H 	H 	0.33470 0.78720 0.98980 -0.22500
H 	H 	0.20370 0.77360 0.05590 0.47700
H 	H 	0.32300 0.80160 0.08200 0.46800
H 	H 	0.26170 0.86120 0.07230 0.48800
H 	H 	0.92710 0.11140 0.26210 -0.01700
H 	H 	0.96920 0.00860 0.29930 0.11700
H 	H 	0.87560 0.94580 0.37600 0.04000
H 	H 	0.73980 0.98580 0.41540 0.08100
H 	H 	0.69780 0.08880 0.37830 0.01000
H 	H 	0.92880 0.45380 0.40290 0.09400
H 	H 	0.93530 0.20340 0.43480 0.14700
H 	H 	0.08140 0.21780 0.57950 0.12300
H 	H 	0.09810 0.34700 0.58810 0.02700
H 	H 	0.01210 0.57980 0.40700 -0.10000
H 	H 	0.90110 0.57020 0.43880 -0.09300
H 	H 	0.00720 0.70420 0.42880 0.32100
H 	H 	0.99690 0.68220 0.49040 0.33300
H 	H 	0.10750 0.69160 0.45900 0.32300
H 	H 	0.32230 0.63340 0.59200 0.07100
H 	H 	0.08200 0.56020 0.74120 0.15300
H 	H 	0.82010 0.38000 0.68580 0.12500
H 	H 	0.90660 0.38340 0.60510 -0.00100
H 	H 	0.27880 0.65960 0.50090 -0.11700
H 	H 	0.38440 0.63460 0.49500 -0.11200
H 	H 	0.33120 0.66540 0.40900 0.31900
H 	H 	0.31700 0.57680 0.41060 0.35300
H 	H 	0.21230 0.60220 0.41650 0.35700
H 	H 	0.59610 0.16000 0.40930 0.07400
H 	H 	0.29060 0.02240 0.30180 0.15700
H 	H 	0.08960 0.86120 0.40040 0.13000
H 	H 	0.21100 0.90740 0.47170 0.02300
H 	H 	0.72500 0.15180 0.48050 -0.21600
H 	H 	0.66530 0.21280 0.48980 -0.22800
H 	H 	0.79630 0.22640 0.55590 0.48000
H 	H 	0.67700 0.19840 0.58200 0.47100
H 	H 	0.73830 0.13880 0.57230 0.49100
H 	H 	0.81570 0.88860 0.73790 -0.01700
H 	H 	0.96060 0.99140 0.70070 0.11700
H 	H 	0.92980 0.05420 0.62400 0.04000
H 	H 	0.75400 0.01420 0.58460 0.08100
H 	H 	0.60900 0.91120 0.62170 0.01000
H 	H 	0.47500 0.54620 0.59710 0.09500
H 	H 	0.73190 0.79660 0.56520 0.14700
H 	H 	0.86360 0.78220 0.42050 0.12300
H 	H 	0.75110 0.65300 0.41190 0.02700
H 	H 	0.43230 0.42020 0.59300 -0.10300
H 	H 	0.33090 0.42980 0.56120 -0.09500
H 	H 	0.30300 0.29580 0.57120 0.32500
H 	H 	0.31470 0.31780 0.50960 0.33700
H 	H 	0.41590 0.30840 0.54100 0.32700
H 	H 	0.68890 0.36660 0.40800 0.07100
H 	H 	0.52180 0.43980 0.25880 0.15300
H 	H 	0.44010 0.62000 0.31420 0.12600
H 	H 	0.52320 0.61660 0.39490 -0.00100
H 	H 	0.61920 0.34040 0.49910 -0.11700
H 	H 	0.74980 0.36540 0.50500 -0.11200
H 	H 	0.66580 0.33460 0.59100 0.31900
H 	H 	0.74020 0.42320 0.58940 0.35300
H 	H 	0.61010 0.39780 0.58350 0.35700
H 	H 	0.43610 0.84000 0.59070 0.07400
H 	H 	0.26820 0.97760 0.69820 0.15700
H 	H 	0.22840 0.13880 0.59960 0.12900
H 	H 	0.30360 0.09260 0.52830 0.02300
H 	H 	0.57320 0.84820 0.51950 -0.21600
H 	H 	0.45250 0.78720 0.51020 -0.22800
H 	H 	0.56990 0.77360 0.44410 0.48000
H 	H 	0.47860 0.80160 0.41800 0.47100
H 	H 	0.59950 0.86120 0.42770 0.49100
H 	H 	0.18430 0.11140 0.23790 -0.01600
H 	H 	0.03940 0.00860 0.20070 0.11600
H 	H 	0.07020 0.94580 0.12400 0.04200
H 	H 	0.24600 0.98580 0.08460 0.07900
H 	H 	0.39100 0.08880 0.12170 0.01100
H 	H 	0.52500 0.45380 0.09710 0.09500
H 	H 	0.26810 0.20340 0.06520 0.14700
H 	H 	0.13640 0.21780 0.92050 0.12300
H 	H 	0.24890 0.34700 0.91190 0.02700
H 	H 	0.56770 0.57980 0.09300 -0.10300
H 	H 	0.66910 0.57020 0.06120 -0.09500
H 	H 	0.69700 0.70420 0.07120 0.32400
H 	H 	0.68530 0.68220 0.00960 0.33700
H 	H 	0.58410 0.69160 0.04100 0.32600
H 	H 	0.31110 0.63340 0.90800 0.07100
H 	H 	0.47820 0.56020 0.75880 0.15300
H 	H 	0.55990 0.38000 0.81420 0.12600
H 	H 	0.47680 0.38340 0.89490 -0.00100
H 	H 	0.38080 0.65960 0.99910 -0.11600
H 	H 	0.25020 0.63460 0.00500 -0.11100
H 	H 	0.33420 0.66540 0.09100 0.31900
H 	H 	0.25980 0.57680 0.08940 0.35300
H 	H 	0.38990 0.60220 0.08350 0.35600
H 	H 	0.56390 0.16000 0.09070 0.07400
H 	H 	0.73180 0.02240 0.19820 0.15700
H 	H 	0.77160 0.86120 0.09960 0.13000
H 	H 	0.69640 0.90740 0.02830 0.02200
H 	H 	0.42680 0.15180 0.01950 -0.21300
H 	H 	0.54750 0.21280 0.01020 -0.22500
H 	H 	0.43010 0.22640 0.94410 0.47700
H 	H 	0.52140 0.19840 0.91800 0.46800
H 	H 	0.40050 0.13880 0.92770 0.48800
C 	C 	0.11050 0.91380 0.79290 0.08800
C 	C 	0.08520 0.97540 0.81510 -0.12700
C 	C 	0.14130 0.01300 0.86110 0.06500
C 	C 	0.22260 0.98900 0.88470 -0.11700
C 	C 	0.24790 0.92740 0.86240 0.08100
C 	C 	0.96320 0.56440 0.01930 -0.02000
C 	C 	0.00020 0.52940 0.97700 0.17100
C 	C 	0.04790 0.57100 0.93080 -0.10500
C 	C 	0.06090 0.64980 0.92630 -0.06700
C 	C 	0.03230 0.76700 0.96500 -0.24000
C 	C 	0.99210 0.79960 0.00550 0.25900
C 	C 	0.94410 0.75800 0.05200 -0.22300
C 	C 	0.93440 0.68080 0.05720 0.03700
C 	C 	0.97426 0.64352 0.01520 -0.04700
C 	C 	0.02510 0.68760 0.96850 0.10400
C 	C 	0.11690 0.69300 0.87620 0.32100
C 	C 	0.01810 0.41160 0.94150 0.46200
C 	C 	0.97240 0.32540 0.95630 -0.95500
C 	C 	0.90593 0.51426 0.06670 -0.00400
C 	C 	0.80180 0.45760 0.05740 0.15100
C 	C 	0.74750 0.40400 0.09870 -0.06200
C 	C 	0.79579 0.40638 0.14770 -0.13300
C 	C 	0.95300 0.47300 0.21300 -0.24400
C 	C 	0.05440 0.53060 0.22100 0.28300
C 	C 	0.10940 0.58300 0.17980 -0.22300
C 	C 	0.05890 0.57920 0.13110 0.06400
C 	C 	0.95430 0.51980 0.11840 -0.05900
C 	C 	0.90086 0.46432 0.16020 0.13600
C 	C 	0.73540 0.34180 0.18800 0.47800
C 	C 	0.69410 0.37940 0.98590 0.49600
C 	C 	0.70980 0.38420 0.92490 -1.00400
C 	C 	0.59350 0.97960 0.97340 -0.01100
C 	C 	0.49660 0.91820 0.96500 0.18000
C 	C 	0.47060 0.88160 0.91410 -0.07400
C 	C 	0.54440 0.90760 0.87130 -0.15600
C 	C 	0.72430 0.99920 0.83630 -0.27200
C 	C 	0.81980 0.06000 0.84610 0.28900
C 	C 	0.84480 0.09640 0.89560 -0.22400
C 	C 	0.77140 0.06920 0.93790 0.07500
C 	C 	0.66840 0.00540 0.93090 -0.06100
C 	C 	0.64780 0.96860 0.87860 0.15800
C 	C 	0.50350 0.86600 0.81890 0.49600
C 	C 	0.32400 0.83320 0.00460 0.86800
C 	C 	0.27380 0.81600 0.05830 -1.47300
C 	C 	0.88950 0.08620 0.29290 0.08900
C 	C 	0.91480 0.02460 0.31510 -0.13000
C 	C 	0.85870 0.98700 0.36110 0.07000
C 	C 	0.77740 0.01100 0.38470 -0.12200
C 	C 	0.75210 0.07260 0.36240 0.08300
C 	C 	0.03680 0.43560 0.51930 -0.01900
C 	C 	0.99980 0.47060 0.47700 0.17000
C 	C 	0.95210 0.42900 0.43080 -0.10400
C 	C 	0.93910 0.35020 0.42630 -0.06800
C 	C 	0.96770 0.23300 0.46500 -0.24200
C 	C 	0.00790 0.20040 0.50550 0.26100
C 	C 	0.05590 0.24200 0.55200 -0.22400
C 	C 	0.06560 0.31920 0.55720 0.03800
C 	C 	0.02574 0.35648 0.51520 -0.04700
C 	C 	0.97490 0.31240 0.46850 0.10400
C 	C 	0.88310 0.30700 0.37620 0.32100
C 	C 	0.98190 0.58840 0.44150 0.46000
C 	C 	0.02760 0.67460 0.45630 -0.95300
C 	C 	0.09407 0.48574 0.56670 -0.00400
C 	C 	0.19820 0.54240 0.55740 0.15100
C 	C 	0.25250 0.59600 0.59870 -0.06200
C 	C 	0.20421 0.59362 0.64770 -0.13200
C 	C 	0.04700 0.52700 0.71300 -0.24400
C 	C 	0.94560 0.46940 0.72100 0.28300
C 	C 	0.89060 0.41700 0.67980 -0.22200
C 	C 	0.94110 0.42080 0.63110 0.06300
C 	C 	0.04570 0.48020 0.61840 -0.05900
C 	C 	0.09914 0.53568 0.66020 0.13500
C 	C 	0.26460 0.65820 0.68800 0.47800
C 	C 	0.30590 0.62060 0.48590 0.49700
C 	C 	0.29020 0.61580 0.42490 -1.00500
C 	C 	0.40650 0.02040 0.47340 -0.01200
C 	C 	0.50340 0.08180 0.46500 0.18000
C 	C 	0.52940 0.11840 0.41410 -0.07500
C 	C 	0.45560 0.09240 0.37130 -0.15500
C 	C 	0.27570 0.00080 0.33630 -0.27200
C 	C 	0.18020 0.94000 0.34610 0.28900
C 	C 	0.15520 0.90360 0.39560 -0.22300
C 	C 	0.22860 0.93080 0.43790 0.07400
C 	C 	0.33160 0.99460 0.43090 -0.05900
C 	C 	0.35220 0.03140 0.37860 0.15700
C 	C 	0.49650 0.13400 0.31890 0.49600
C 	C 	0.67600 0.16680 0.50460 0.87600
C 	C 	0.72620 0.18400 0.55830 -1.48200
C 	C 	0.80330 0.91380 0.70710 0.08900
C 	C 	0.89020 0.97540 0.68490 -0.13000
C 	C 	0.87170 0.01300 0.63890 0.06900
C 	C 	0.76640 0.98900 0.61530 -0.12100
C 	C 	0.67950 0.92740 0.63760 0.08300
C 	C 	0.60120 0.56440 0.48070 -0.02100
C 	C 	0.52920 0.52940 0.52300 0.17300
C 	C 	0.52310 0.57100 0.56920 -0.10500
C 	C 	0.58890 0.64980 0.57370 -0.06700
C 	C 	0.73470 0.76700 0.53500 -0.24100
C 	C 	0.80750 0.79960 0.49450 0.25900
C 	C 	0.81390 0.75800 0.44800 -0.22300
C 	C 	0.74640 0.68080 0.44280 0.03700
C 	C 	0.66926 0.64352 0.48480 -0.04700
C 	C 	0.66250 0.68760 0.53150 0.10400
C 	C 	0.57610 0.69300 0.62380 0.32100
C 	C 	0.39350 0.41160 0.55850 0.47000
C 	C 	0.35300 0.32540 0.54370 -0.96500
C 	C 	0.60833 0.51426 0.43330 -0.00400
C 	C 	0.65580 0.45760 0.44260 0.15100
C 	C 	0.65650 0.40400 0.40130 -0.06200
C 	C 	0.61059 0.40638 0.35230 -0.13300
C 	C 	0.52000 0.47300 0.28700 -0.24400
C 	C 	0.47620 0.53060 0.27900 0.28300
C 	C 	0.47360 0.58300 0.32020 -0.22300
C 	C 	0.52030 0.57920 0.36890 0.06400
C 	C 	0.56550 0.51980 0.38160 -0.06000
C 	C 	0.56346 0.46432 0.33980 0.13600
C 	C 	0.60640 0.34180 0.31200 0.47800
C 	C 	0.68530 0.37940 0.51410 0.49700
C 	C 	0.67440 0.38420 0.57510 -1.00500
C 	C 	0.38610 0.97960 0.52660 -0.01200
C 	C 	0.42160 0.91820 0.53500 0.18100
C 	C 	0.41100 0.88160 0.58590 -0.07500
C 	C 	0.36320 0.90760 0.62870 -0.15500
C 	C 	0.27490 0.99920 0.66370 -0.27200
C 	C 	0.24020 0.06000 0.65390 0.28900
C 	C 	0.25160 0.09640 0.60440 -0.22300
C 	C 	0.29780 0.06920 0.56210 0.07400
C 	C 	0.33700 0.00540 0.56910 -0.05800
C 	C 	0.32080 0.96860 0.62140 0.15600
C 	C 	0.36250 0.86600 0.68110 0.49600
C 	C 	0.50920 0.83320 0.49540 0.87700
C 	C 	0.54220 0.81600 0.44170 -1.48300
C 	C 	0.19670 0.08620 0.20710 0.08800
C 	C 	0.10980 0.02460 0.18490 -0.12700
C 	C 	0.12830 0.98700 0.13890 0.06500
C 	C 	0.23360 0.01100 0.11530 -0.11700
C 	C 	0.32050 0.07260 0.13760 0.08100
C 	C 	0.39880 0.43560 0.98070 -0.02100
C 	C 	0.47080 0.47060 0.02300 0.17300
C 	C 	0.47690 0.42900 0.06920 -0.10500
C 	C 	0.41110 0.35020 0.07370 -0.06700
C 	C 	0.26530 0.23300 0.03500 -0.23900
C 	C 	0.19250 0.20040 0.99450 0.25800
C 	C 	0.18610 0.24200 0.94800 -0.22200
C 	C 	0.25360 0.31920 0.94280 0.03700
C 	C 	0.33074 0.35648 0.98480 -0.04700
C 	C 	0.33750 0.31240 0.03150 0.10400
C 	C 	0.42390 0.30700 0.12380 0.32100
C 	C 	0.60650 0.58840 0.05850 0.46900
C 	C 	0.64700 0.67460 0.04370 -0.96400
C 	C 	0.39167 0.48574 0.93330 -0.00400
C 	C 	0.34420 0.54240 0.94260 0.15100
C 	C 	0.34350 0.59600 0.90130 -0.06100
C 	C 	0.38941 0.59362 0.85230 -0.13300
C 	C 	0.48000 0.52700 0.78700 -0.24400
C 	C 	0.52380 0.46940 0.77900 0.28300
C 	C 	0.52640 0.41700 0.82020 -0.22300
C 	C 	0.47970 0.42080 0.86890 0.06400
C 	C 	0.43450 0.48020 0.88160 -0.06000
C 	C 	0.43654 0.53568 0.83980 0.13600
C 	C 	0.39360 0.65820 0.81200 0.47800
C 	C 	0.31470 0.62060 0.01410 0.49600
C 	C 	0.32560 0.61580 0.07510 -1.00400
C 	C 	0.61390 0.02040 0.02660 -0.01100
C 	C 	0.57840 0.08180 0.03500 0.18000
C 	C 	0.58900 0.11840 0.08590 -0.07500
C 	C 	0.63680 0.09240 0.12870 -0.15600
C 	C 	0.72510 0.00080 0.16370 -0.27200
C 	C 	0.75980 0.94000 0.15390 0.28900
C 	C 	0.74840 0.90360 0.10440 -0.22400
C 	C 	0.70220 0.93080 0.06210 0.07500
C 	C 	0.66300 0.99460 0.06910 -0.06100
C 	C 	0.67920 0.03140 0.12140 0.15800
C 	C 	0.63750 0.13400 0.18110 0.49600
C 	C 	0.49080 0.16680 0.99540 0.86800
C 	C 	0.45780 0.18400 0.94170 -1.47300
N 	N 	0.19176 0.88972 0.81650 -0.21800
N 	N 	0.80824 0.11028 0.31650 -0.21900
N 	N 	0.69796 0.88972 0.68350 -0.21900
N 	N 	0.30204 0.11028 0.18350 -0.21800
Cl	Cl	0.99738 0.89636 0.00027 -0.34900
Cl	Cl	0.11830 0.53820 0.28485 -0.36400
Cl	Cl	0.91634 0.09828 0.79327 -0.36600
Cl	Cl	0.00262 0.10364 0.50027 -0.34800
Cl	Cl	0.88170 0.46180 0.78485 -0.36400
Cl	Cl	0.08366 0.90172 0.29327 -0.36600
Cl	Cl	0.89898 0.89636 0.49973 -0.34900
Cl	Cl	0.41990 0.53820 0.21515 -0.36400
Cl	Cl	0.18194 0.09828 0.70673 -0.36600
Cl	Cl	0.10102 0.10364 0.99973 -0.34900
Cl	Cl	0.58010 0.46180 0.71515 -0.36400
Cl	Cl	0.81806 0.90172 0.20673 -0.36600
O 	O 	0.19385 0.75690 0.88033 -0.40600
O 	O 	0.08491 0.66282 0.83062 -0.37800
O 	O 	0.98417 0.45174 0.98380 -0.29500
O 	O 	0.63185 0.31930 0.18730 -0.47300
O 	O 	0.79495 0.31450 0.21580 -0.50400
O 	O 	0.75718 0.45536 0.00700 -0.28900
O 	O 	0.40250 0.84400 0.81000 -0.52700
O 	O 	0.57523 0.85546 0.78790 -0.48500
O 	O 	0.42600 0.89360 0.00900 -0.39500
O 	O 	0.80615 0.24310 0.38033 -0.40600
O 	O 	0.91509 0.33718 0.33062 -0.37800
O 	O 	0.01583 0.54826 0.48380 -0.29500
O 	O 	0.36815 0.68070 0.68730 -0.47300
O 	O 	0.20505 0.68550 0.71580 -0.50400
O 	O 	0.24282 0.54464 0.50700 -0.28900
O 	O 	0.59750 0.15600 0.31000 -0.52700
O 	O 	0.42477 0.14454 0.28790 -0.48500
O 	O 	0.57400 0.10640 0.50900 -0.39600
O 	O 	0.56305 0.75690 0.61967 -0.40600
O 	O 	0.57791 0.66282 0.66938 -0.37800
O 	O 	0.46757 0.45174 0.51620 -0.29700
O 	O 	0.68745 0.31930 0.31270 -0.47300
O 	O 	0.51955 0.31450 0.28420 -0.50400
O 	O 	0.69818 0.45536 0.49300 -0.28900
O 	O 	0.44150 0.84400 0.69000 -0.52700
O 	O 	0.28023 0.85546 0.71210 -0.48500
O 	O 	0.46760 0.89360 0.49100 -0.39600
O 	O 	0.43695 0.24310 0.11967 -0.40600
O 	O 	0.42209 0.33718 0.16938 -0.37800
O 	O 	0.53243 0.54826 0.01620 -0.29800
O 	O 	0.31255 0.68070 0.81270 -0.47300
O 	O 	0.48045 0.68550 0.78420 -0.50400
O 	O 	0.30182 0.54464 0.99300 -0.28900
O 	O 	0.55850 0.15600 0.19000 -0.52700
O 	O 	0.71977 0.14454 0.21210 -0.48500
O 	O 	0.53240 0.10640 0.99100 -0.39500
