data_crystal

_cell_length_a 10.13400
_cell_length_b 10.83600
_cell_length_c 13.74100
_cell_angle_alpha 79.15300
_cell_angle_beta  78.78600
_cell_angle_gamma 86.27600

_symmetry_space_group_name_	'P 1'
_symmetry_space_group_name_H-M	'P 1'

loop_
_symmetry_equiv_pos_as_xyz
  x,y,z

loop_
_atom_site_label
_atom_site_type_symbol
_atom_site_fract_x
_atom_site_fract_y
_atom_site_fract_z
_atom_site_charge
Eu	Eu	0.68102 0.07748 0.70312 1.91900
C 	C 	0.70180 0.47220 0.72680 -0.11400
C 	C 	0.67850 0.41770 0.82850 -0.06200
H 	H 	0.67290 0.33080 0.84690 0.06800
C 	C 	0.66360 0.49050 0.90240 0.13900
C 	C 	0.66500 0.62080 0.87450 -0.09700
H 	H 	0.65350 0.67100 0.92350 0.10300
C 	C 	0.68370 0.67520 0.77360 -0.04700
C 	C 	0.70370 0.60170 0.69990 0.02300
H 	H 	0.71840 0.63920 0.63210 0.02800
C 	C 	0.68700 0.81490 0.74750 0.31800
C 	C 	0.73260 0.39410 0.64620 0.45000
C 	C 	0.66580 0.48230 0.08210 0.22400
C 	C 	0.65160 0.40030 0.18390 0.00900
C 	C 	0.65120 0.26970 0.20190 -0.09200
H 	H 	0.65460 0.22610 0.14920 0.06600
C 	C 	0.64570 0.20620 0.29910 0.06300
H 	H 	0.64530 0.11890 0.31010 0.01400
C 	C 	0.63930 0.38740 0.36060 0.05800
H 	H 	0.63460 0.42870 0.41470 0.02000
C 	C 	0.64440 0.45780 0.26610 -0.09000
H 	H 	0.64300 0.54510 0.25740 0.08000
C 	C 	0.26250 0.11400 0.83210 -0.06500
C 	C 	0.15860 0.10370 0.78340 0.02400
H 	H 	0.17670 0.08590 0.71840 0.03000
C 	C 	0.02590 0.12020 0.83170 -0.13200
C 	C 	0.99900 0.14980 0.92710 0.01400
H 	H 	0.91050 0.16140 0.95900 0.06600
C 	C 	0.10410 0.16240 0.97550 0.08400
C 	C 	0.23470 0.14190 0.92980 -0.06500
H 	H 	0.30480 0.14660 0.96370 0.09300
C 	C 	0.40670 0.09800 0.78490 0.31800
C 	C 	0.90920 0.10970 0.78220 0.34300
C 	C 	0.99360 0.29560 0.09200 0.22500
C 	C 	0.99030 0.33810 0.19050 0.03300
C 	C 	0.98300 0.25740 0.28100 -0.11300
H 	H 	0.98300 0.17090 0.28400 0.07000
C 	C 	0.97550 0.30630 0.36740 0.08200
H 	H 	0.96770 0.25100 0.42860 -0.02500
C 	C 	0.98520 0.50640 0.27860 0.08600
H 	H 	0.98680 0.59250 0.27710 -0.00800
C 	C 	0.98940 0.46550 0.18920 -0.11500
H 	H 	0.99150 0.52250 0.12920 0.11500
N 	N 	0.64590 0.43040 0.00430 -0.24000
H 	H 	0.62020 0.35400 0.01800 0.14000
N 	N 	0.64080 0.26110 0.37830 -0.13800
N 	N 	0.07920 0.19790 0.07230 -0.24600
H 	H 	0.11900 0.15690 0.11890 0.14900
N 	N 	0.97910 0.42960 0.36770 -0.23200
O 	O 	0.80700 0.43560 0.56480 -0.46200
O 	O 	0.67980 0.28710 0.66430 -0.53500
O 	O 	0.67080 0.87100 0.66100 -0.44100
O 	O 	0.70580 0.87710 0.81070 -0.42000
O 	O 	0.69140 0.59180 0.07450 -0.23000
O 	O 	0.44100 0.09900 0.69070 -0.42000
O 	O 	0.49630 0.08400 0.83730 -0.41700
O 	O 	0.92690 0.09500 0.69050 -0.43000
O 	O 	0.79150 0.11470 0.83280 -0.41800
O 	O 	0.92430 0.35110 0.03320 -0.22000
Eu	Eu	0.31898 0.92252 0.29688 1.91000
C 	C 	0.29820 0.52780 0.27320 -0.12700
C 	C 	0.32150 0.58230 0.17150 -0.05600
H 	H 	0.32710 0.66920 0.15310 0.06000
C 	C 	0.33640 0.50950 0.09760 0.11700
C 	C 	0.33500 0.37920 0.12550 -0.09100
H 	H 	0.34650 0.32900 0.07650 0.09600
C 	C 	0.31630 0.32480 0.22640 -0.06100
C 	C 	0.29630 0.39830 0.30010 0.02400
H 	H 	0.28160 0.36080 0.36790 0.02000
C 	C 	0.31300 0.18510 0.25250 0.31600
C 	C 	0.26740 0.60590 0.35380 0.45000
C 	C 	0.33420 0.51770 0.91790 0.22100
C 	C 	0.34840 0.59970 0.81610 0.00900
C 	C 	0.34880 0.73030 0.79810 -0.09200
H 	H 	0.34540 0.77390 0.85080 0.06500
C 	C 	0.35430 0.79380 0.70090 0.06200
H 	H 	0.35470 0.88110 0.68990 0.01400
C 	C 	0.36070 0.61260 0.63940 0.05800
H 	H 	0.36540 0.57130 0.58530 0.02000
C 	C 	0.35560 0.54220 0.73390 -0.09000
H 	H 	0.35700 0.45490 0.74260 0.07900
C 	C 	0.73750 0.88600 0.16790 0.03700
C 	C 	0.84140 0.89630 0.21660 -0.12300
H 	H 	0.82330 0.91410 0.28160 0.08900
C 	C 	0.97410 0.87980 0.16830 0.10900
C 	C 	0.00100 0.85020 0.07290 -0.27300
H 	H 	0.08950 0.83860 0.04100 0.14800
C 	C 	0.89590 0.83760 0.02450 0.24600
C 	C 	0.76530 0.85810 0.07020 -0.18100
H 	H 	0.69520 0.85340 0.03630 0.12800
C 	C 	0.59330 0.90200 0.21510 0.28300
C 	C 	0.09080 0.89030 0.21780 0.22100
C 	C 	0.00640 0.70440 0.90800 0.18100
C 	C 	0.00970 0.66190 0.80950 0.03100
C 	C 	0.01700 0.74260 0.71900 -0.12400
H 	H 	0.01700 0.82910 0.71600 0.05800
C 	C 	0.02450 0.69370 0.63260 0.07500
H 	H 	0.03230 0.74900 0.57140 -0.03600
C 	C 	0.01480 0.49360 0.72140 0.07800
H 	H 	0.01320 0.40750 0.72290 -0.02200
C 	C 	0.01060 0.53450 0.81080 -0.12400
H 	H 	0.00850 0.47750 0.87080 0.10300
N 	N 	0.35410 0.56960 0.99570 -0.23200
H 	H 	0.37980 0.64600 0.98200 0.14000
N 	N 	0.35920 0.73890 0.62170 -0.13800
N 	N 	0.92080 0.80210 0.92770 -0.23700
H 	H 	0.88100 0.84310 0.88110 0.16200
N 	N 	0.02090 0.57040 0.63230 -0.24400
O 	O 	0.19300 0.56440 0.43520 -0.47600
O 	O 	0.32020 0.71290 0.33570 -0.53600
O 	O 	0.32920 0.12900 0.33900 -0.44800
O 	O 	0.29420 0.12290 0.18930 -0.42600
O 	O 	0.30860 0.40820 0.92550 -0.22900
O 	O 	0.55900 0.90100 0.30930 -0.40800
O 	O 	0.50370 0.91600 0.16270 -0.40800
O 	O 	0.07310 0.90500 0.30950 -0.42500
O 	O 	0.20850 0.88530 0.16720 -0.39400
O 	O 	0.07570 0.64890 0.96680 -0.22300
Ni	Ni	0.00000 0.50000 0.50000 1.03400
