data_crystal

_cell_length_a 12.99900
_cell_length_b 6.71520
_cell_length_c 16.54700
_cell_angle_alpha 90.00000
_cell_angle_beta  95.99900
_cell_angle_gamma 90.00000

_symmetry_space_group_name_	'P 1'
_symmetry_space_group_name_H-M	'P 1'

loop_
_symmetry_equiv_pos_as_xyz
  x,y,z

loop_
_atom_site_label
_atom_site_type_symbol
_atom_site_fract_x
_atom_site_fract_y
_atom_site_fract_z
_atom_site_charge
N 	N 	0.92840 0.39690 0.82540 -0.24800
N 	N 	0.89590 0.63180 0.91300 -0.16200
O 	O 	0.86160 0.18400 0.66120 -0.41100
C 	C 	0.75940 0.89650 0.64100 -0.16200
O 	O 	0.88690 0.96670 0.74880 -0.39700
C 	C 	0.74670 0.70040 0.66100 0.09700
H 	H 	0.78730 0.64700 0.70540 0.01200
C 	C 	0.00090 0.90750 0.97490 -0.44700
H 	H 	0.02420 0.94080 0.92270 0.15000
H 	H 	0.05020 0.81440 0.00190 0.14800
C 	C 	0.69730 0.97080 0.57560 0.08800
H 	H 	0.70530 0.10310 0.56070 0.01100
C 	C 	0.61160 0.65670 0.55290 0.09900
C 	C 	0.84130 0.02620 0.68770 0.41400
C 	C 	0.96000 0.56520 0.85970 0.20600
H 	H 	0.01980 0.63130 0.84870 -0.07100
C 	C 	0.67630 0.58230 0.61760 -0.16400
H 	H 	0.67160 0.44880 0.63170 0.09800
C 	C 	0.62340 0.85570 0.53120 -0.16200
H 	H 	0.58210 0.91010 0.48740 0.08800
C 	C 	0.81850 0.50390 0.91150 0.02200
H 	H 	0.76190 0.51060 0.94150 0.03300
C 	C 	0.89950 0.81200 0.96170 0.20700
H 	H 	0.87680 0.78000 0.01420 -0.01400
H 	H 	0.85070 0.90690 0.93540 -0.01600
C 	C 	0.83800 0.36350 0.85840 0.00300
H 	H 	0.79490 0.25510 0.84530 0.03000
C 	C 	0.52010 0.59700 0.48990 0.00300
C 	C 	0.53680 0.48300 0.52530 -0.03500
N 	N 	0.07160 0.39690 0.67460 -0.23600
N 	N 	0.10410 0.63180 0.58700 -0.06400
O 	O 	0.13840 0.18400 0.83880 -0.44500
C 	C 	0.24060 0.89650 0.85900 -0.16700
O 	O 	0.11310 0.96670 0.75120 -0.42200
C 	C 	0.25330 0.70040 0.83900 0.09300
H 	H 	0.21270 0.64700 0.79460 0.01200
C 	C 	0.99910 0.90750 0.52510 0.31000
H 	H 	0.97580 0.94080 0.57730 -0.04600
H 	H 	0.94980 0.81440 0.49810 -0.04400
C 	C 	0.30270 0.97080 0.92440 0.07900
H 	H 	0.29470 0.10310 0.93930 0.00800
C 	C 	0.38840 0.65670 0.94710 0.09300
C 	C 	0.15870 0.02620 0.81230 0.41500
C 	C 	0.04000 0.56520 0.64030 -0.00000
H 	H 	0.98020 0.63130 0.65130 0.06500
C 	C 	0.32370 0.58230 0.88240 -0.16300
H 	H 	0.32840 0.44880 0.86830 0.09600
C 	C 	0.37660 0.85570 0.96880 -0.13700
H 	H 	0.41790 0.91010 0.01260 0.07000
C 	C 	0.18150 0.50390 0.58850 -0.02800
H 	H 	0.23810 0.51060 0.55850 0.04500
C 	C 	0.10050 0.81200 0.53830 -0.32200
H 	H 	0.12320 0.78000 0.48580 0.13500
H 	H 	0.14930 0.90690 0.56460 0.13000
C 	C 	0.16200 0.36350 0.64160 0.01700
H 	H 	0.20510 0.25510 0.65470 0.01600
C 	C 	0.47990 0.59700 0.01010 -0.00400
C 	C 	0.46320 0.48300 0.97470 -0.02700
N 	N 	0.07160 0.60310 0.17460 -0.23700
N 	N 	0.10410 0.36820 0.08700 -0.06700
O 	O 	0.13840 0.81600 0.33880 -0.44700
C 	C 	0.24060 0.10350 0.35900 -0.17900
O 	O 	0.11310 0.03330 0.25120 -0.42300
C 	C 	0.25330 0.29960 0.33900 0.10400
H 	H 	0.21270 0.35300 0.29460 0.00800
C 	C 	0.99910 0.09250 0.02510 0.24900
H 	H 	0.97580 0.05920 0.07730 -0.02800
H 	H 	0.94980 0.18560 0.99810 -0.02300
C 	C 	0.30270 0.02920 0.42440 0.09600
H 	H 	0.29470 0.89690 0.43930 0.00100
C 	C 	0.38840 0.34330 0.44710 0.10600
C 	C 	0.15870 0.97380 0.31230 0.41900
C 	C 	0.04000 0.43480 0.14030 0.00000
H 	H 	0.98020 0.36870 0.15130 0.06400
C 	C 	0.32370 0.41770 0.38240 -0.17500
H 	H 	0.32840 0.55120 0.36830 0.10000
C 	C 	0.37660 0.14430 0.46880 -0.17300
H 	H 	0.41790 0.08990 0.51260 0.09100
C 	C 	0.18150 0.49610 0.08850 -0.02700
H 	H 	0.23810 0.48940 0.05850 0.04200
C 	C 	0.10050 0.18800 0.03830 -0.30400
H 	H 	0.12320 0.22000 0.98580 0.13400
H 	H 	0.14930 0.09310 0.06460 0.12400
C 	C 	0.16200 0.63650 0.14160 0.01600
H 	H 	0.20510 0.74490 0.15470 0.01600
C 	C 	0.47990 0.40300 0.51010 -0.00000
C 	C 	0.46320 0.51700 0.47470 -0.03900
N 	N 	0.92840 0.60310 0.32540 -0.24900
N 	N 	0.89590 0.36820 0.41300 -0.16700
O 	O 	0.86160 0.81600 0.16120 -0.41400
C 	C 	0.75940 0.10350 0.14100 -0.17100
O 	O 	0.88690 0.03330 0.24880 -0.39600
C 	C 	0.74670 0.29960 0.16100 0.10500
H 	H 	0.78730 0.35300 0.20540 0.00900
C 	C 	0.00090 0.09250 0.47490 -0.51600
H 	H 	0.02420 0.05920 0.42270 0.16900
H 	H 	0.05020 0.18560 0.50190 0.17600
C 	C 	0.69730 0.02920 0.07560 0.11000
H 	H 	0.70530 0.89690 0.06070 -0.00100
C 	C 	0.61160 0.34330 0.05290 0.10800
C 	C 	0.84130 0.97380 0.18770 0.41400
C 	C 	0.96000 0.43480 0.35970 0.20800
H 	H 	0.01980 0.36870 0.34870 -0.07300
C 	C 	0.67630 0.41770 0.11760 -0.17300
H 	H 	0.67160 0.55120 0.13170 0.10100
C 	C 	0.62340 0.14430 0.03120 -0.18800
H 	H 	0.58210 0.08990 0.98740 0.10100
C 	C 	0.81850 0.49610 0.41150 0.02300
H 	H 	0.76190 0.48940 0.44150 0.03000
C 	C 	0.89950 0.18800 0.46170 0.22500
H 	H 	0.87680 0.22000 0.51420 -0.01200
H 	H 	0.85070 0.09310 0.43540 -0.02200
C 	C 	0.83800 0.63650 0.35840 0.00200
H 	H 	0.79490 0.74490 0.34530 0.03000
C 	C 	0.52010 0.40300 0.98990 0.01600
C 	C 	0.53680 0.51700 0.02530 -0.05700
Co	Co	0.00000 0.21765 0.75000 1.13300
Co	Co	0.00000 0.78235 0.25000 1.13200
