data_crystal

_cell_length_a 13.63760
_cell_length_b 13.63760
_cell_length_c 6.20540
_cell_angle_alpha 90.00000
_cell_angle_beta  90.00000
_cell_angle_gamma 90.00000

_symmetry_space_group_name_	'P 1'
_symmetry_space_group_name_H-M	'P 1'

loop_
_symmetry_equiv_pos_as_xyz
  x,y,z

loop_
_atom_site_label
_atom_site_type_symbol
_atom_site_fract_x
_atom_site_fract_y
_atom_site_fract_z
_atom_site_charge
S 	S 	0.47262 0.60431 0.24374 -0.01600
N 	N 	0.32630 0.65270 0.74980 -0.18400
C 	C 	0.38030 0.55840 0.08440 -0.03600
C 	C 	0.34740 0.46910 0.15460 -0.02700
H 	H 	0.29740 0.43230 0.08520 0.04000
C 	C 	0.39660 0.43870 0.34170 -0.06300
H 	H 	0.38240 0.37930 0.41500 0.05200
C 	C 	0.46710 0.50330 0.40780 0.00800
C 	C 	0.34970 0.61030 0.89840 0.09200
S 	S 	0.02738 0.89569 0.24374 -0.01700
N 	N 	0.17370 0.84730 0.74980 -0.18500
C 	C 	0.11970 0.94160 0.08440 -0.03700
C 	C 	0.15260 0.03090 0.15460 -0.02800
H 	H 	0.20260 0.06770 0.08520 0.03900
C 	C 	0.10340 0.06130 0.34170 -0.06400
H 	H 	0.11760 0.12070 0.41500 0.05200
C 	C 	0.03290 0.99670 0.40780 0.00800
C 	C 	0.15030 0.88970 0.89840 0.09200
S 	S 	0.89569 0.47262 0.24374 -0.01700
N 	N 	0.84730 0.32630 0.74980 -0.18500
C 	C 	0.94160 0.38030 0.08440 -0.03700
C 	C 	0.03090 0.34740 0.15460 -0.02800
H 	H 	0.06770 0.29740 0.08520 0.03900
C 	C 	0.06130 0.39660 0.34170 -0.06400
H 	H 	0.12070 0.38240 0.41500 0.05200
C 	C 	0.99670 0.46710 0.40780 0.00800
C 	C 	0.88970 0.34970 0.89840 0.09200
S 	S 	0.60431 0.02738 0.24374 -0.01700
N 	N 	0.65270 0.17370 0.74980 -0.18500
C 	C 	0.55840 0.11970 0.08440 -0.03700
C 	C 	0.46910 0.15260 0.15460 -0.02800
H 	H 	0.43230 0.20260 0.08520 0.03900
C 	C 	0.43870 0.10340 0.34170 -0.06400
H 	H 	0.37930 0.11760 0.41500 0.05200
C 	C 	0.50330 0.03290 0.40780 0.00800
C 	C 	0.61030 0.15030 0.89840 0.09200
S 	S 	0.52738 0.39569 0.75626 -0.01700
N 	N 	0.67370 0.34730 0.25020 -0.18500
C 	C 	0.61970 0.44160 0.91560 -0.03700
C 	C 	0.65260 0.53090 0.84540 -0.02800
H 	H 	0.70260 0.56770 0.91480 0.03900
C 	C 	0.60340 0.56130 0.65830 -0.06400
H 	H 	0.61760 0.62070 0.58500 0.05200
C 	C 	0.53290 0.49670 0.59220 0.00800
C 	C 	0.65030 0.38970 0.10160 0.09200
S 	S 	0.97262 0.10431 0.75626 -0.01700
N 	N 	0.82630 0.15270 0.25020 -0.18500
C 	C 	0.88030 0.05840 0.91560 -0.03700
C 	C 	0.84740 0.96910 0.84540 -0.02800
H 	H 	0.79740 0.93230 0.91480 0.03900
C 	C 	0.89660 0.93870 0.65830 -0.06400
H 	H 	0.88240 0.87930 0.58500 0.05200
C 	C 	0.96710 0.00330 0.59220 0.00800
C 	C 	0.84970 0.11030 0.10160 0.09200
S 	S 	0.10431 0.52738 0.75626 -0.01700
N 	N 	0.15270 0.67370 0.25020 -0.18500
C 	C 	0.05840 0.61970 0.91560 -0.03700
C 	C 	0.96910 0.65260 0.84540 -0.02800
H 	H 	0.93230 0.70260 0.91480 0.03900
C 	C 	0.93870 0.60340 0.65830 -0.06400
H 	H 	0.87930 0.61760 0.58500 0.05200
C 	C 	0.00330 0.53290 0.59220 0.00800
C 	C 	0.11030 0.65030 0.10160 0.09200
S 	S 	0.39569 0.97262 0.75626 -0.01700
N 	N 	0.34730 0.82630 0.25020 -0.18500
C 	C 	0.44160 0.88030 0.91560 -0.03700
C 	C 	0.53090 0.84740 0.84540 -0.02800
H 	H 	0.56770 0.79740 0.91480 0.03900
C 	C 	0.56130 0.89660 0.65830 -0.06400
H 	H 	0.62070 0.88240 0.58500 0.05200
C 	C 	0.49670 0.96710 0.59220 0.00800
C 	C 	0.38970 0.84970 0.10160 0.09200
Ag	Ag	0.25000 0.75000 0.50000 0.55700
Ag	Ag	0.75000 0.25000 0.50000 0.55700
