data_crystal

_cell_length_a 9.43270
_cell_length_b 10.19540
_cell_length_c 11.24520
_cell_angle_alpha 63.98300
_cell_angle_beta  73.21200
_cell_angle_gamma 83.22000

_symmetry_space_group_name_	'P 1'
_symmetry_space_group_name_H-M	'P 1'

loop_
_symmetry_equiv_pos_as_xyz
  x,y,z

loop_
_atom_site_label
_atom_site_type_symbol
_atom_site_fract_x
_atom_site_fract_y
_atom_site_fract_z
_atom_site_charge
Cd	Cd	0.01420 0.34120 0.18680 1.21000
O 	O 	0.01630 0.99520 0.29130 -0.34800
O 	O 	0.12910 0.18840 0.10330 -0.40600
O 	O 	0.99710 0.55770 0.20430 -0.23100
O 	O 	0.78470 0.26080 0.30530 -0.37900
O 	O 	0.78070 0.10850 0.52240 -0.39600
O 	O 	0.48840 0.24270 0.36440 -0.15100
O 	O 	0.07610 0.83190 0.14630 -0.20000
O 	O 	0.10690 0.23170 0.38390 -0.50400
C 	C 	0.08950 0.05670 0.17020 0.17100
C 	C 	0.07780 0.63020 0.08510 0.16800
O 	O 	0.12230 0.58180 0.99600 -0.37700
C 	C 	0.12450 0.77810 0.04840 0.01400
C 	C 	0.24250 0.27540 0.33170 0.30400
C 	C 	0.34030 0.21920 0.42470 0.02300
O 	O 	0.29070 0.36240 0.21100 -0.28500
C 	C 	0.72170 0.18270 0.42900 0.34300
C 	C 	0.55690 0.18070 0.46650 0.02800
C 	C 	0.31410 0.14400 0.56300 -0.05600
H 	H 	0.22250 0.11530 0.62670 0.04700
C 	C 	0.45490 0.11810 0.59060 -0.03700
H 	H 	0.47400 0.06850 0.67610 0.05600
C 	C 	0.13360 0.96960 0.08820 0.18900
C 	C 	0.21090 0.87860 0.93210 0.08700
H 	H 	0.25920 0.86780 0.85220 0.03200
C 	C 	0.21320 0.00380 0.95600 -0.23400
H 	H 	0.26010 0.09240 0.89330 0.13000
Cd	Cd	0.98580 0.65880 0.81320 1.26300
O 	O 	0.98370 0.00480 0.70870 -0.40000
O 	O 	0.87090 0.81160 0.89670 -0.40800
O 	O 	0.00290 0.44230 0.79570 -0.42000
O 	O 	0.21530 0.73920 0.69470 -0.41300
O 	O 	0.21930 0.89150 0.47760 -0.40300
O 	O 	0.51160 0.75730 0.63560 -0.14700
O 	O 	0.92390 0.16810 0.85370 -0.11000
O 	O 	0.89310 0.76830 0.61610 -0.42800
C 	C 	0.91050 0.94330 0.82980 0.42200
C 	C 	0.92220 0.36980 0.91490 0.36100
O 	O 	0.87770 0.41820 0.00400 -0.39800
C 	C 	0.87550 0.22190 0.95160 0.07000
C 	C 	0.75750 0.72460 0.66830 0.29600
C 	C 	0.65970 0.78080 0.57530 0.05500
O 	O 	0.70930 0.63760 0.78900 -0.26000
C 	C 	0.27830 0.81730 0.57100 0.35400
C 	C 	0.44310 0.81930 0.53350 0.03300
C 	C 	0.68590 0.85600 0.43700 -0.06200
H 	H 	0.77750 0.88470 0.37330 0.09400
C 	C 	0.54510 0.88190 0.40940 -0.01400
H 	H 	0.52600 0.93150 0.32390 0.07000
C 	C 	0.86640 0.03040 0.91180 -0.06000
C 	C 	0.78910 0.12140 0.06790 -0.14500
H 	H 	0.74080 0.13220 0.14780 0.10000
C 	C 	0.78680 0.99620 0.04400 0.12500
H 	H 	0.73990 0.90760 0.10670 0.02800
Cd	Cd	0.00000 -0.00000 0.50000 1.19900
