data_crystal

_cell_length_a 9.61030
_cell_length_b 9.61030
_cell_length_c 6.97230
_cell_angle_alpha 90.00000
_cell_angle_beta  90.00000
_cell_angle_gamma 120.00000

_symmetry_space_group_name_	'P 1'
_symmetry_space_group_name_H-M	'P 1'

loop_
_symmetry_equiv_pos_as_xyz
  x,y,z

loop_
_atom_site_label
_atom_site_type_symbol
_atom_site_fract_x
_atom_site_fract_y
_atom_site_fract_z
_atom_site_charge
Ni	Ni	-0.00000 0.00000 -0.00000 1.16400
N 	N 	-0.00000 0.00000 0.30050 -0.18300
N 	N 	0.00000 0.00000 0.69950 -0.17800
O 	O 	0.76290 0.00000 -0.00000 -0.45000
O 	O 	-0.00000 0.76290 -0.00000 -0.45000
O 	O 	0.23710 0.23710 -0.00000 -0.43500
O 	O 	0.23710 0.00000 -0.00000 -0.43200
O 	O 	-0.00000 0.23710 -0.00000 -0.43200
O 	O 	0.76290 0.76290 -0.00000 -0.49100
C 	C 	0.74670 0.25330 -0.00000 -0.11400
C 	C 	0.82960 0.17040 -0.00000 -0.00600
O 	O 	0.88190 0.11810 -0.00000 -0.06500
C 	C 	0.74670 0.49340 -0.00000 -0.11700
C 	C 	0.82960 0.65920 -0.00000 -0.02800
O 	O 	0.88190 0.76380 -0.00000 -0.04100
C 	C 	0.50660 0.25330 -0.00000 -0.10000
C 	C 	0.34080 0.17040 -0.00000 0.01900
O 	O 	0.23620 0.11810 -0.00000 -0.07500
C 	C 	0.25330 0.74670 -0.00000 -0.11400
C 	C 	0.17040 0.82960 -0.00000 -0.00600
O 	O 	0.11810 0.88190 -0.00000 -0.06500
C 	C 	0.25330 0.50660 -0.00000 -0.10000
C 	C 	0.17040 0.34080 -0.00000 0.01900
O 	O 	0.11810 0.23620 -0.00000 -0.07500
C 	C 	0.49340 0.74670 -0.00000 -0.11700
C 	C 	0.65920 0.82960 -0.00000 -0.02800
O 	O 	0.76380 0.88190 -0.00000 -0.04100
C 	C 	0.58240 0.16480 -0.00000 0.01600
H 	H 	0.52535 0.05070 -0.00000 -0.00200
C 	C 	0.83520 0.41760 -0.00000 0.02600
H 	H 	0.94930 0.47465 -0.00000 -0.02300
C 	C 	0.58240 0.41760 -0.00000 0.01400
H 	H 	0.52535 0.47465 -0.00000 -0.01300
C 	C 	0.41760 0.83520 -0.00000 0.02600
H 	H 	0.47465 0.94930 -0.00000 -0.02300
C 	C 	0.16480 0.58240 -0.00000 0.01600
H 	H 	0.05070 0.52535 -0.00000 -0.00200
C 	C 	0.41760 0.58240 -0.00000 0.01400
H 	H 	0.47465 0.52535 -0.00000 -0.01300
C 	C 	0.06950 0.13900 0.40100 0.00900
C 	C 	0.86100 0.93050 0.40100 0.01600
C 	C 	0.06950 0.93050 0.40100 0.03400
C 	C 	0.93050 0.86100 0.40100 0.01600
C 	C 	0.13900 0.06950 0.40100 0.00900
C 	C 	0.93050 0.06950 0.40100 0.03400
C 	C 	0.13900 0.06950 0.59900 0.01100
C 	C 	0.93050 0.86100 0.59900 0.01800
C 	C 	0.93050 0.06950 0.59900 0.03600
C 	C 	0.86100 0.93050 0.59900 0.01800
C 	C 	0.06950 0.13900 0.59900 0.01100
C 	C 	0.06950 0.93050 0.59900 0.03600
C 	C 	0.65730 0.18520 -0.00000 -0.00300
C 	C 	0.71970 0.07020 -0.00000 0.24600
C 	C 	0.81480 0.47210 -0.00000 -0.00200
C 	C 	0.92980 0.64950 -0.00000 0.22500
C 	C 	0.52790 0.34270 -0.00000 -0.01100
C 	C 	0.35050 0.28030 -0.00000 0.22000
C 	C 	0.34270 0.81480 -0.00000 -0.01000
C 	C 	0.28030 0.92980 -0.00000 0.22400
C 	C 	0.18520 0.52790 -0.00000 -0.01600
C 	C 	0.07020 0.35050 -0.00000 0.22300
C 	C 	0.47210 0.65730 -0.00000 -0.00300
C 	C 	0.64950 0.71970 -0.00000 0.25900
C 	C 	0.18520 0.65730 -0.00000 -0.00300
C 	C 	0.07020 0.71970 -0.00000 0.24600
C 	C 	0.47210 0.81480 -0.00000 -0.00200
C 	C 	0.64950 0.92980 -0.00000 0.22500
C 	C 	0.34270 0.52790 -0.00000 -0.01100
C 	C 	0.28030 0.35050 -0.00000 0.22000
C 	C 	0.81480 0.34270 -0.00000 -0.01000
C 	C 	0.92980 0.28030 -0.00000 0.22400
C 	C 	0.52790 0.18520 -0.00000 -0.01600
C 	C 	0.35050 0.07020 -0.00000 0.22300
C 	C 	0.65730 0.47210 -0.00000 -0.00300
C 	C 	0.71970 0.64950 -0.00000 0.25900
C 	C 	0.11800 0.11800 0.40100 0.02700
C 	C 	0.88200 0.00000 0.40100 0.00300
C 	C 	-0.00000 0.88200 0.40100 0.00300
C 	C 	0.88200 0.88200 0.40100 -0.02400
C 	C 	0.11800 0.00000 0.40100 -0.01900
C 	C 	0.00000 0.11800 0.40100 -0.01900
C 	C 	0.11800 0.11800 0.59900 0.03100
C 	C 	-0.00000 0.88200 0.59900 0.00500
C 	C 	0.88200 0.00000 0.59900 0.00500
C 	C 	0.88200 0.88200 0.59900 -0.02300
C 	C 	-0.00000 0.11800 0.59900 -0.01800
C 	C 	0.11800 0.00000 0.59900 -0.01800
