data_crystal

_cell_length_a 17.50300
_cell_length_b 18.34100
_cell_length_c 18.34100
_cell_angle_alpha 90.00000
_cell_angle_beta  90.00000
_cell_angle_gamma 90.00000

_symmetry_space_group_name_	'P 1'
_symmetry_space_group_name_H-M	'P 1'

loop_
_symmetry_equiv_pos_as_xyz
  x,y,z

loop_
_atom_site_label
_atom_site_type_symbol
_atom_site_fract_x
_atom_site_fract_y
_atom_site_fract_z
_atom_site_charge
Co	Co	0.33623 0.43261 0.84636 1.09400
Co	Co	0.50000 0.84010 0.84010 1.11100
Co	Co	0.75000 0.05608 0.94392 1.07100
Co	Co	0.83623 0.56739 0.15364 1.09600
Co	Co	0.41377 0.93261 0.65364 1.09500
Co	Co	0.91377 0.06739 0.34636 1.10700
Co	Co	0.16377 0.15364 0.56739 1.09400
Co	Co	0.25000 0.34010 0.65990 1.11100
Co	Co	0.00000 0.55608 0.55608 1.04900
Co	Co	0.50000 0.44392 0.44392 1.06900
Co	Co	0.00000 0.15990 0.15990 1.09100
Co	Co	0.58623 0.65364 0.93261 1.09500
Co	Co	0.08623 0.34636 0.06739 1.08400
Co	Co	0.75000 0.65990 0.34010 1.11200
Co	Co	0.66377 0.84636 0.43261 1.09500
Co	Co	0.25000 0.94392 0.05608 1.06700
H 	H 	0.47630 0.81450 0.16450 0.03200
H 	H 	0.15660 0.46920 0.31670 0.01900
H 	H 	0.98050 0.55800 0.73760 0.03200
H 	H 	0.53530 0.34740 0.02390 0.03400
H 	H 	0.48050 0.44200 0.26240 0.01600
H 	H 	0.84620 0.11460 0.68320 0.04100
H 	H 	0.09620 0.81680 0.61460 0.02900
H 	H 	0.40380 0.38540 0.18320 0.03500
H 	H 	0.77370 0.68550 0.66450 0.03300
H 	H 	0.89220 0.76150 0.27780 -0.00300
H 	H 	0.60780 0.72220 0.23850 -0.01000
H 	H 	0.46470 0.02390 0.34740 0.04300
H 	H 	0.34340 0.68330 0.53080 0.02400
H 	H 	0.84220 0.74390 0.11230 0.01200
H 	H 	0.49900 0.45300 0.75640 -0.01000
H 	H 	0.65780 0.88770 0.25610 0.00900
H 	H 	0.09220 0.38770 0.24390 -0.00200
H 	H 	0.90660 0.81670 0.03080 0.02900
H 	H 	0.01950 0.73760 0.55800 0.00200
H 	H 	0.90780 0.24390 0.38770 0.02100
H 	H 	0.39220 0.23850 0.72220 -0.01000
H 	H 	0.65380 0.31680 0.88540 0.03600
H 	H 	0.15780 0.11230 0.74390 0.00700
H 	H 	0.10780 0.27780 0.76150 -0.01700
H 	H 	0.64220 0.77780 0.73850 -0.01000
H 	H 	0.50100 0.75640 0.45300 -0.01000
H 	H 	0.96470 0.97610 0.65260 0.10500
H 	H 	0.27370 0.31450 0.33550 0.03100
H 	H 	0.90380 0.61460 0.81680 0.04100
H 	H 	0.76950 0.05800 0.76240 0.01800
H 	H 	0.59340 0.96920 0.18330 0.02500
H 	H 	0.00100 0.24360 0.54700 -0.02200
H 	H 	0.40780 0.75610 0.61230 0.01000
H 	H 	0.85780 0.26150 0.22220 -0.00800
H 	H 	0.84340 0.31670 0.46920 0.03100
H 	H 	0.34220 0.25610 0.88770 0.01000
H 	H 	0.09340 0.03080 0.81670 0.02000
H 	H 	0.24900 0.25640 0.04700 -0.01100
H 	H 	0.40660 0.18330 0.96920 0.02400
H 	H 	0.15380 0.68320 0.11460 0.02900
H 	H 	0.74900 0.74360 0.95300 -0.00900
H 	H 	0.23050 0.76240 0.05800 0.01500
H 	H 	0.03530 0.65260 0.97610 -0.02800
H 	H 	0.14220 0.22220 0.26150 -0.01100
H 	H 	0.25100 0.95300 0.74360 -0.01100
H 	H 	0.35780 0.73850 0.77780 -0.01100
H 	H 	0.72630 0.33550 0.31450 0.03300
H 	H 	0.78530 0.47610 0.84740 0.04200
H 	H 	0.99900 0.54700 0.24360 0.00300
H 	H 	0.59620 0.18320 0.38540 0.03500
H 	H 	0.52370 0.16450 0.81450 0.03200
H 	H 	0.51950 0.26240 0.44200 0.01700
H 	H 	0.59220 0.61230 0.75610 0.01000
H 	H 	0.02370 0.83550 0.18550 0.01700
H 	H 	0.28530 0.52390 0.15260 0.03700
H 	H 	0.75100 0.04700 0.25640 -0.00900
H 	H 	0.97630 0.18550 0.83550 0.04700
H 	H 	0.73050 0.23760 0.94200 0.01800
H 	H 	0.71470 0.15260 0.52390 0.03900
H 	H 	0.22630 0.66450 0.68550 0.03100
H 	H 	0.34620 0.88540 0.31680 0.03400
H 	H 	0.26950 0.94200 0.23760 0.01500
H 	H 	0.65660 0.53080 0.68330 0.02500
H 	H 	0.21470 0.84740 0.47610 0.03400
C 	C 	0.44171 0.62098 0.85826 0.04100
C 	C 	0.06030 0.72040 0.58560 -0.00500
C 	C 	0.93970 0.58560 0.72040 0.00400
C 	C 	0.68320 0.32030 0.34000 0.01300
C 	C 	0.79370 0.12818 0.44850 0.01100
C 	C 	0.46170 0.43370 0.72580 0.10000
C 	C 	0.36600 0.37020 0.37340 -0.00500
C 	C 	0.56030 0.27960 0.41440 -0.00000
C 	C 	0.85840 0.79010 0.30450 0.09300
C 	C 	0.53837 0.89503 0.55388 0.07000
C 	C 	0.72375 0.56396 0.94915 0.08700
C 	C 	0.67080 0.53550 0.73190 0.01000
C 	C 	0.46163 0.55388 0.89503 0.07000
C 	C 	0.38150 0.27620 0.91530 0.01300
C 	C 	0.80829 0.87902 0.35826 0.04400
C 	C 	0.35390 0.36500 0.44970 0.07600
C 	C 	0.37673 0.37987 0.56152 0.06100
C 	C 	0.93320 0.16000 0.82030 0.01700
C 	C 	0.60830 0.23240 0.38220 0.01500
C 	C 	0.10830 0.76760 0.61780 0.01100
C 	C 	0.38400 0.87020 0.12660 -0.00500
C 	C 	0.78837 0.94612 0.39503 0.07000
C 	C 	0.61600 0.12660 0.87020 -0.00400
C 	C 	0.10390 0.94970 0.13500 0.07200
C 	C 	0.43970 0.41440 0.27960 -0.00100
C 	C 	0.89170 0.61780 0.76760 0.01900
C 	C 	0.13400 0.62660 0.62980 -0.00800
C 	C 	0.14160 0.30450 0.79010 0.08700
C 	C 	0.19171 0.35826 0.87902 0.03900
C 	C 	0.27625 0.94915 0.56396 0.08600
C 	C 	0.31030 0.91440 0.22040 -0.00100
C 	C 	0.63400 0.37340 0.37020 -0.00400
C 	C 	0.18320 0.67970 0.66000 0.01100
C 	C 	0.62673 0.93848 0.87987 0.06000
C 	C 	0.09656 0.36611 0.60106 0.03900
C 	C 	0.40344 0.39894 0.63389 0.04300
C 	C 	0.04370 0.05150 0.62818 0.04800
C 	C 	0.63150 0.58470 0.77620 0.01400
C 	C 	0.11850 0.08470 0.72380 0.01500
C 	C 	0.89160 0.29010 0.19550 0.09400
C 	C 	0.07920 0.03550 0.76810 0.00100
C 	C 	0.96163 0.44612 0.10497 0.11300
C 	C 	0.31680 0.34000 0.32030 0.01400
C 	C 	0.43320 0.84000 0.17970 0.01300
C 	C 	0.35830 0.88220 0.26760 0.01400
C 	C 	0.34656 0.89894 0.86611 0.04200
C 	C 	0.94171 0.37902 0.14174 0.03800
C 	C 	0.53830 0.72580 0.43370 0.10000
C 	C 	0.60840 0.80450 0.70990 0.09000
C 	C 	0.85390 0.63500 0.55030 0.08100
C 	C 	0.39170 0.38220 0.23240 0.01500
C 	C 	0.20630 0.44850 0.12818 0.00900
C 	C 	0.69171 0.64174 0.12098 0.04100
C 	C 	0.47375 0.44915 0.93604 0.08800
C 	C 	0.71163 0.60497 0.05388 0.06800
C 	C 	0.18970 0.77960 0.08560 -0.00500
C 	C 	0.88150 0.72380 0.08470 0.01200
C 	C 	0.24550 0.49640 0.17190 0.00500
C 	C 	0.65344 0.86611 0.89894 0.04400
C 	C 	0.54370 0.94850 0.37182 0.01300
C 	C 	0.39160 0.70990 0.80450 0.09000
C 	C 	0.90344 0.60106 0.36611 0.04900
C 	C 	0.49550 0.32810 0.99640 0.01400
C 	C 	0.30829 0.12098 0.64174 0.04100
C 	C 	0.86600 0.62980 0.62660 0.00100
C 	C 	0.59656 0.63389 0.39894 0.04300
C 	C 	0.10840 0.19550 0.29010 0.08600
C 	C 	0.75450 0.17190 0.49640 0.00900
C 	C 	0.50450 0.99640 0.32810 -0.00300
C 	C 	0.32920 0.73190 0.53550 0.01000
C 	C 	0.68970 0.22040 0.91440 -0.00000
C 	C 	0.39610 0.86500 0.05030 0.07500
C 	C 	0.96170 0.56630 0.27420 0.10400
C 	C 	0.95630 0.62818 0.05150 -0.02800
C 	C 	0.97375 0.55085 0.06396 0.14300
C 	C 	0.82920 0.26810 0.46450 0.01400
C 	C 	0.36850 0.77620 0.58470 0.01300
C 	C 	0.64160 0.69550 0.20990 0.09000
C 	C 	0.61850 0.91530 0.27620 0.01600
C 	C 	0.00450 0.00360 0.67190 -0.09600
C 	C 	0.55829 0.85826 0.62098 0.04100
C 	C 	0.45630 0.37182 0.94850 0.00800
C 	C 	0.70630 0.55150 0.87182 0.01100
C 	C 	0.52625 0.93604 0.44915 0.08500
C 	C 	0.28830 0.93370 0.77420 0.09900
C 	C 	0.17080 0.46450 0.26810 0.00500
C 	C 	0.99550 0.67190 0.00360 0.11000
C 	C 	0.77625 0.05085 0.43604 0.08800
C 	C 	0.57920 0.96450 0.23190 0.00500
C 	C 	0.86850 0.22380 0.41530 0.01800
C 	C 	0.56680 0.17970 0.84000 0.01400
C 	C 	0.11600 0.87340 0.12980 -0.01100
C 	C 	0.81030 0.08560 0.77960 0.00400
C 	C 	0.42080 0.23190 0.96450 0.01300
C 	C 	0.78830 0.06630 0.22580 0.10100
C 	C 	0.06680 0.82030 0.16000 0.01000
C 	C 	0.12673 0.06152 0.12013 0.06000
C 	C 	0.35840 0.20990 0.69550 0.09000
C 	C 	0.84656 0.10106 0.13389 0.04700
C 	C 	0.21170 0.22580 0.06630 0.09800
C 	C 	0.74550 0.50360 0.82810 0.00600
C 	C 	0.64170 0.26760 0.88220 0.01600
C 	C 	0.62327 0.56152 0.37987 0.06100
C 	C 	0.87327 0.12013 0.06152 0.06400
C 	C 	0.22375 0.43604 0.05085 0.08500
C 	C 	0.12327 0.43848 0.62013 0.05600
C 	C 	0.85830 0.11780 0.73240 0.01800
C 	C 	0.14170 0.73240 0.11780 0.01200
C 	C 	0.13150 0.41530 0.22380 0.01000
C 	C 	0.15344 0.13389 0.10106 0.04000
C 	C 	0.21163 0.39503 0.94612 0.07000
C 	C 	0.02625 0.06396 0.55085 0.03000
C 	C 	0.03837 0.10497 0.44612 0.02800
C 	C 	0.81680 0.66000 0.67970 0.01600
C 	C 	0.28837 0.05388 0.60497 0.07200
C 	C 	0.14610 0.55030 0.63500 0.07200
C 	C 	0.25450 0.82810 0.50360 0.00700
C 	C 	0.92080 0.76810 0.03550 0.01800
C 	C 	0.29370 0.87182 0.55150 0.00900
C 	C 	0.05829 0.14174 0.37902 0.04400
C 	C 	0.71170 0.77420 0.93370 0.10100
C 	C 	0.64610 0.44970 0.36500 0.07600
C 	C 	0.37327 0.87987 0.93848 0.06300
C 	C 	0.88400 0.12980 0.87340 0.00200
C 	C 	0.03830 0.27420 0.56630 0.09600
C 	C 	0.89610 0.13500 0.94970 0.08000
C 	C 	0.87673 0.62013 0.43848 0.06700
C 	C 	0.60390 0.05030 0.86500 0.07700
N 	N 	0.21884 0.98562 0.53533 -0.10100
N 	N 	0.26160 0.17761 0.63140 -0.22100
N 	N 	0.17838 0.85262 0.09330 -0.21300
N 	N 	0.39386 0.88852 0.81101 -0.21600
N 	N 	0.36999 0.13714 0.68116 -0.14400
N 	N 	0.17882 0.39120 0.01077 -0.25400
N 	N 	0.54401 0.83261 0.73514 -0.22400
N 	N 	0.97630 0.74330 0.99630 -0.11000
N 	N 	0.52370 0.00370 0.25670 -0.10100
N 	N 	0.30710 0.35199 0.55711 -0.20700
N 	N 	0.95777 0.15928 0.98362 -0.10000
N 	N 	0.51160 0.86860 0.67761 -0.22100
N 	N 	0.27239 0.43764 0.94567 -0.20700
N 	N 	0.64386 0.68899 0.38852 -0.21600
N 	N 	0.33020 0.34700 0.24930 -0.10700
N 	N 	0.92838 0.59330 0.64738 -0.20000
N 	N 	0.96884 0.03533 0.51438 -0.06500
N 	N 	0.98840 0.32239 0.13140 -0.20300
N 	N 	0.77239 0.56236 0.05433 -0.20700
N 	N 	0.04223 0.98362 0.15928 -0.12300
N 	N 	0.45599 0.73514 0.83261 -0.22400
N 	N 	0.47630 0.25670 0.00370 -0.10900
N 	N 	0.08020 0.74930 0.15300 -0.11900
N 	N 	0.10614 0.18899 0.11148 -0.22300
N 	N 	0.52820 0.65462 0.42610 -0.15200
N 	N 	0.57162 0.35262 0.40670 -0.21200
N 	N 	0.77820 0.07390 0.15462 -0.15100
N 	N 	0.60599 0.75003 0.41158 -0.23100
N 	N 	0.86999 0.86286 0.31884 -0.13800
N 	N 	0.79223 0.65928 0.51638 -0.11100
N 	N 	0.52239 0.55433 0.93764 -0.20700
N 	N 	0.70599 0.66739 0.23514 -0.22300
N 	N 	0.11999 0.18116 0.36286 -0.14700
N 	N 	0.69290 0.55711 0.35199 -0.20700
N 	N 	0.38001 0.63714 0.81884 -0.14500
N 	N 	0.44290 0.85199 0.94289 -0.20600
N 	N 	0.22630 0.50370 0.24330 -0.10800
N 	N 	0.94290 0.14801 0.05711 -0.19500
N 	N 	0.07162 0.64738 0.59330 -0.22000
N 	N 	0.02239 0.44567 0.06236 -0.23800
N 	N 	0.22761 0.05433 0.56236 -0.20700
N 	N 	0.67882 0.60880 0.98923 -0.25000
N 	N 	0.09090 0.50420 0.61033 -0.26600
N 	N 	0.27370 0.75670 0.49630 -0.10800
N 	N 	0.82118 0.01077 0.39120 -0.24800
N 	N 	0.91980 0.15300 0.74930 -0.09400
N 	N 	0.16980 0.75070 0.65300 -0.10800
N 	N 	0.32162 0.90670 0.14738 -0.21300
N 	N 	0.35599 0.91158 0.74997 -0.23100
N 	N 	0.34090 0.88967 0.00420 -0.26300
N 	N 	0.07118 0.10880 0.51077 -0.23900
N 	N 	0.02370 0.99630 0.74330 -0.10200
N 	N 	0.14386 0.31101 0.61148 -0.21700
N 	N 	0.79401 0.76486 0.33261 -0.22300
N 	N 	0.23840 0.36860 0.82239 -0.22200
N 	N 	0.66980 0.24930 0.34700 -0.10600
N 	N 	0.19290 0.44289 0.64801 -0.20700
N 	N 	0.10140 0.09309 0.65400 -0.21300
N 	N 	0.61999 0.81884 0.63714 -0.14400
N 	N 	0.47761 0.93764 0.55433 -0.20700
N 	N 	0.71884 0.01438 0.46467 -0.09600
N 	N 	0.73840 0.63140 0.17761 -0.22100
N 	N 	0.60140 0.90691 0.34600 -0.20500
N 	N 	0.04401 0.16739 0.26486 -0.23100
N 	N 	0.59090 0.49580 0.38967 -0.26000
N 	N 	0.35614 0.38852 0.68899 -0.21600
N 	N 	0.64401 0.74997 0.91158 -0.23100
N 	N 	0.85140 0.15400 0.40691 -0.20100
N 	N 	0.53116 0.48562 0.96467 -0.09800
N 	N 	0.39860 0.34600 0.90691 -0.20400
N 	N 	0.47180 0.42610 0.65462 -0.15200
N 	N 	0.15910 0.99580 0.11033 -0.26300
N 	N 	0.54223 0.01638 0.84072 -0.11000
N 	N 	0.14860 0.40691 0.15400 -0.20800
N 	N 	0.76160 0.82239 0.36860 -0.22100
N 	N 	0.80710 0.64801 0.44289 -0.20700
N 	N 	0.92882 0.51077 0.10880 -0.26300
N 	N 	0.29223 0.34072 0.48362 -0.11200
N 	N 	0.28116 0.46467 0.01438 -0.10000
N 	N 	0.55710 0.94289 0.85199 -0.20700
N 	N 	0.40910 0.38967 0.49580 -0.26000
N 	N 	0.42838 0.40670 0.35262 -0.21300
N 	N 	0.78116 0.53533 0.98562 -0.09600
N 	N 	0.29401 0.23514 0.66739 -0.22400
N 	N 	0.10599 0.24997 0.58842 -0.23300
N 	N 	0.20599 0.33261 0.76486 -0.22400
N 	N 	0.41980 0.84700 0.25070 -0.10700
N 	N 	0.95599 0.26486 0.16739 -0.21100
N 	N 	0.57118 0.89120 0.48923 -0.25100
N 	N 	0.13001 0.31884 0.86286 -0.15100
N 	N 	0.83020 0.65300 0.75070 -0.10500
N 	N 	0.89401 0.58842 0.24997 -0.22900
N 	N 	0.46884 0.96467 0.48562 -0.09800
N 	N 	0.35140 0.84600 0.59309 -0.20400
N 	N 	0.39401 0.41158 0.75003 -0.23100
N 	N 	0.45777 0.84072 0.01638 -0.11300
N 	N 	0.72180 0.84538 0.92610 -0.15000
N 	N 	0.05710 0.05711 0.14801 -0.21400
N 	N 	0.65910 0.00420 0.88967 -0.25800
N 	N 	0.48840 0.67761 0.86860 -0.22100
N 	N 	0.88001 0.36286 0.18116 -0.14200
N 	N 	0.02820 0.34538 0.57390 -0.16200
N 	N 	0.42882 0.48923 0.89120 -0.25100
N 	N 	0.72761 0.94567 0.43764 -0.20700
N 	N 	0.63001 0.68116 0.13714 -0.14500
N 	N 	0.89386 0.11148 0.18899 -0.20500
N 	N 	0.64860 0.59309 0.84600 -0.20400
N 	N 	0.85599 0.08842 0.25003 -0.22600
N 	N 	0.77370 0.24330 0.50370 -0.10400
N 	N 	0.97180 0.57390 0.34538 -0.14000
N 	N 	0.01160 0.13140 0.32239 -0.23900
N 	N 	0.67838 0.14738 0.90670 -0.21200
N 	N 	0.22180 0.15462 0.07390 -0.15200
N 	N 	0.90910 0.61033 0.50420 -0.24900
N 	N 	0.20777 0.51638 0.65928 -0.11300
N 	N 	0.32118 0.98923 0.60880 -0.25200
N 	N 	0.97761 0.06236 0.44567 -0.17500
N 	N 	0.58020 0.25070 0.84700 -0.10600
N 	N 	0.27820 0.92610 0.84538 -0.15300
N 	N 	0.03116 0.51438 0.03533 -0.13100
N 	N 	0.82162 0.09330 0.85262 -0.21200
N 	N 	0.60614 0.81101 0.88852 -0.21600
N 	N 	0.89860 0.65400 0.09309 -0.19600
N 	N 	0.84090 0.11033 0.99580 -0.25900
N 	N 	0.70777 0.48362 0.34072 -0.11100
N 	N 	0.85614 0.61148 0.31101 -0.21600
N 	N 	0.14401 0.25003 0.08842 -0.23500
N 	N 	0.72630 0.49630 0.75670 -0.10400
