data_crystal

_cell_length_a 9.98400
_cell_length_b 12.35400
_cell_length_c 12.83400
_cell_angle_alpha 88.32000
_cell_angle_beta  74.57000
_cell_angle_gamma 75.81000

_symmetry_space_group_name_	'P 1'
_symmetry_space_group_name_H-M	'P 1'

loop_
_symmetry_equiv_pos_as_xyz
  x,y,z

loop_
_atom_site_label
_atom_site_type_symbol
_atom_site_fract_x
_atom_site_fract_y
_atom_site_fract_z
_atom_site_charge
Zn	Zn	0.14229 0.73851 0.23476 1.22200
Zn	Zn	0.93247 0.97599 0.38030 1.19600
Zn	Zn	0.52642 0.73893 0.25653 1.22900
Zn	Zn	0.85309 0.57195 0.40013 1.22500
Zn	Zn	0.34002 0.61074 0.46378 1.22500
Zn	Zn	0.45874 0.44227 0.15085 1.23200
P 	P 	0.81200 0.79527 0.29361 0.53000
P 	P 	0.22059 0.85946 0.41431 0.54900
P 	P 	0.62959 0.49280 0.31305 0.54000
P 	P 	0.19950 0.49768 0.34943 0.53300
P 	P 	0.41204 0.68510 0.06067 0.51300
O 	O 	0.10840 0.85640 0.34950 -0.64300
O 	O 	0.95720 0.74030 0.21630 -0.48900
O 	O 	0.27290 0.77690 0.10580 -0.44700
O 	O 	0.21720 0.61290 0.31380 -0.59000
O 	O 	0.80280 0.91810 0.32150 -0.45700
O 	O 	0.16780 0.97180 0.47630 -0.51000
O 	O 	0.69480 0.79650 0.23730 -0.42500
O 	O 	0.51820 0.60710 0.34700 -0.65000
O 	O 	0.52800 0.70040 0.11210 -0.46900
O 	O 	0.36550 0.85210 0.33580 -0.48500
O 	O 	0.79000 0.73200 0.40020 -0.48900
O 	O 	0.78020 0.51320 0.29200 -0.45600
O 	O 	0.04820 0.48330 0.36470 -0.48300
O 	O 	0.22340 0.76420 0.49230 -0.50000
O 	O 	0.23910 0.48720 0.46050 -0.60000
O 	O 	0.59910 0.41550 0.40530 -0.49900
O 	O 	0.61930 0.44630 0.20830 -0.44600
O 	O 	0.30550 0.40480 0.27090 -0.42500
O 	O 	0.37620 0.57180 0.08220 -0.52800
O 	O 	0.46700 0.69630 0.93790 -0.40300
Zn	Zn	0.85771 0.26149 0.76524 1.22200
Zn	Zn	0.06753 0.02401 0.61970 1.19600
Zn	Zn	0.47358 0.26107 0.74347 1.22900
Zn	Zn	0.14691 0.42805 0.59987 1.22500
Zn	Zn	0.65998 0.38926 0.53622 1.22500
Zn	Zn	0.54126 0.55773 0.84915 1.23200
P 	P 	0.18800 0.20473 0.70639 0.53000
P 	P 	0.77941 0.14054 0.58569 0.54900
P 	P 	0.37041 0.50720 0.68695 0.54000
P 	P 	0.80050 0.50232 0.65057 0.53300
P 	P 	0.58796 0.31490 0.93933 0.51300
O 	O 	0.89160 0.14360 0.65050 -0.64300
O 	O 	0.04280 0.25970 0.78370 -0.48900
O 	O 	0.72710 0.22310 0.89420 -0.44700
O 	O 	0.78280 0.38710 0.68620 -0.59000
O 	O 	0.19720 0.08190 0.67850 -0.45700
O 	O 	0.83220 0.02820 0.52370 -0.51000
O 	O 	0.30520 0.20350 0.76270 -0.42500
O 	O 	0.48180 0.39290 0.65300 -0.65000
O 	O 	0.47200 0.29960 0.88790 -0.46900
O 	O 	0.63450 0.14790 0.66420 -0.48500
O 	O 	0.21000 0.26800 0.59980 -0.48900
O 	O 	0.21980 0.48680 0.70800 -0.45600
O 	O 	0.95180 0.51670 0.63530 -0.48300
O 	O 	0.77660 0.23580 0.50770 -0.50000
O 	O 	0.76090 0.51280 0.53950 -0.60000
O 	O 	0.40090 0.58450 0.59470 -0.49900
O 	O 	0.38070 0.55370 0.79170 -0.44600
O 	O 	0.69450 0.59520 0.72910 -0.42500
O 	O 	0.62380 0.42820 0.91780 -0.52800
O 	O 	0.53300 0.30370 0.06210 -0.40300
