data_crystal

_cell_length_a 13.78830
_cell_length_b 13.78830
_cell_length_c 9.34500
_cell_angle_alpha 90.00000
_cell_angle_beta  90.00000
_cell_angle_gamma 120.00000

_symmetry_space_group_name_	'P 1'
_symmetry_space_group_name_H-M	'P 1'

loop_
_symmetry_equiv_pos_as_xyz
  x,y,z

loop_
_atom_site_label
_atom_site_type_symbol
_atom_site_fract_x
_atom_site_fract_y
_atom_site_fract_z
_atom_site_charge
O 	O 	0.92930 0.07550 0.62880 -0.52100
O 	O 	0.83140 0.38510 0.08570 -0.56200
O 	O 	0.71280 0.14460 0.99820 -0.51300
O 	O 	0.99950 0.43290 0.84440 -0.38300
O 	O 	0.75990 0.31260 0.76060 -0.51300
O 	O 	0.02790 0.14050 0.87210 -0.67300
O 	O 	0.87630 0.18110 0.79150 -0.52200
In	In	0.85380 0.29300 0.92422 2.01300
P 	P 	0.87616 0.50638 0.11850 0.55900
P 	P 	0.97197 0.16373 0.74659 0.69300
H 	H 	0.82100 0.51600 0.23500 -0.03100
H 	H 	0.06200 0.26800 0.70600 -0.14000
O 	O 	0.92450 0.85380 0.62880 -0.37900
O 	O 	0.61490 0.44630 0.08570 -0.57600
O 	O 	0.85540 0.56820 0.99820 -0.49100
O 	O 	0.56710 0.56660 0.84440 -0.51500
O 	O 	0.68740 0.44730 0.76060 -0.51200
O 	O 	0.85950 0.88740 0.87210 -0.40700
O 	O 	0.81890 0.69520 0.79150 -0.47600
In	In	0.70700 0.56080 0.92422 2.00600
P 	P 	0.49362 0.36978 0.11850 0.43100
P 	P 	0.83627 0.80824 0.74659 0.47500
H 	H 	0.48400 0.30500 0.23500 -0.04500
H 	H 	0.73200 0.79400 0.70600 -0.01900
O 	O 	0.14620 0.07070 0.62880 -0.55300
O 	O 	0.55370 0.16860 0.08570 -0.58800
O 	O 	0.43180 0.28720 0.99820 -0.50900
O 	O 	0.43340 0.00050 0.84440 -0.65700
O 	O 	0.55270 0.24010 0.76060 -0.53200
O 	O 	0.11260 0.97210 0.87210 -0.38900
O 	O 	0.30480 0.12370 0.79150 -0.49800
In	In	0.43920 0.14620 0.92422 1.99600
P 	P 	0.63022 0.12384 0.11850 0.32100
P 	P 	0.19176 0.02803 0.74659 0.24300
H 	H 	0.69500 0.17900 0.23500 -0.03100
H 	H 	0.20600 0.93800 0.70600 0.05500
O 	O 	0.07070 0.92450 0.37120 -0.44000
O 	O 	0.16860 0.61490 0.91430 -0.53000
O 	O 	0.28720 0.85540 0.00180 -0.63000
O 	O 	0.00050 0.56710 0.15560 -0.68400
O 	O 	0.24010 0.68740 0.23940 -0.54300
O 	O 	0.97210 0.85950 0.12790 -0.37100
O 	O 	0.12370 0.81890 0.20850 -0.49700
In	In	0.14620 0.70700 0.07578 1.97400
P 	P 	0.12384 0.49362 0.88150 0.43500
P 	P 	0.02803 0.83627 0.25341 0.25500
H 	H 	0.17900 0.48400 0.76500 -0.04300
H 	H 	0.93800 0.73200 0.29400 0.05800
O 	O 	0.07550 0.14620 0.37120 -0.60100
O 	O 	0.38510 0.55370 0.91430 -0.51900
O 	O 	0.14460 0.43180 0.00180 -0.65900
O 	O 	0.43290 0.43340 0.15560 -0.54000
O 	O 	0.31260 0.55270 0.23940 -0.54400
O 	O 	0.14050 0.11260 0.12790 -0.64900
O 	O 	0.18110 0.30480 0.20850 -0.54600
In	In	0.29300 0.43920 0.07578 1.98100
P 	P 	0.50638 0.63022 0.88150 0.54100
P 	P 	0.16373 0.19176 0.25341 0.47100
H 	H 	0.51600 0.69500 0.76500 -0.02900
H 	H 	0.26800 0.20600 0.29400 -0.06400
O 	O 	0.85380 0.92930 0.37120 -0.41900
O 	O 	0.44630 0.83140 0.91430 -0.51100
O 	O 	0.56820 0.71280 0.00180 -0.62400
O 	O 	0.56660 0.99950 0.15560 -0.40300
O 	O 	0.44730 0.75990 0.23940 -0.52400
O 	O 	0.88740 0.02790 0.12790 -0.62400
O 	O 	0.69520 0.87630 0.20850 -0.51800
In	In	0.56080 0.85380 0.07578 1.99100
P 	P 	0.36978 0.87616 0.88150 0.66500
P 	P 	0.80824 0.97197 0.25341 0.68000
H 	H 	0.30500 0.82100 0.76500 -0.04200
H 	H 	0.79400 0.06200 0.29400 -0.12400
In	In	-0.00000 0.00000 0.50000 1.92500
In	In	-0.00000 0.00000 -0.00000 1.90000
P 	P 	0.66667 0.33333 0.72000 0.53800
H 	H 	0.66667 0.33333 0.57200 -0.01300
P 	P 	0.33333 0.66667 0.28000 0.53100
H 	H 	0.33333 0.66667 0.42800 -0.01100
