data_crystal

_cell_length_a 20.79400
_cell_length_b 5.22720
_cell_length_c 17.96280
_cell_angle_alpha 90.00000
_cell_angle_beta  90.00000
_cell_angle_gamma 90.00000

_symmetry_space_group_name_	'P 1'
_symmetry_space_group_name_H-M	'P 1'

loop_
_symmetry_equiv_pos_as_xyz
  x,y,z

loop_
_atom_site_label
_atom_site_type_symbol
_atom_site_fract_x
_atom_site_fract_y
_atom_site_fract_z
_atom_site_charge
Zn	Zn	0.64889 0.28434 0.46652 1.21900
Zn	Zn	0.74644 0.77233 0.49751 1.21000
Zn	Zn	0.50064 0.72630 0.44990 1.22500
Zn	Zn	0.74987 0.61330 0.26270 1.20300
Zn	Zn	0.37115 0.34858 0.48363 1.22000
P 	P 	0.75730 0.26350 0.58705 0.54500
P 	P 	0.63930 0.76980 0.36921 0.52700
P 	P 	0.51169 0.25110 0.54428 0.56200
P 	P 	0.85888 0.64840 0.38579 0.54100
O 	O 	0.68090 0.62480 0.42900 -0.66200
O 	O 	0.71980 0.12210 0.52200 -0.65600
O 	O 	0.57640 0.36510 0.52520 -0.52800
O 	O 	0.64940 0.06030 0.37940 -0.48900
O 	O 	0.74280 0.54710 0.57990 -0.51700
O 	O 	0.56990 0.69050 0.37830 -0.47300
O 	O 	0.46340 0.39980 0.49280 -0.62300
O 	O 	0.93040 0.69290 0.38060 -0.46900
O 	O 	0.50670 0.96690 0.52760 -0.51200
O 	O 	0.66200 0.69460 0.29150 -0.44900
O 	O 	0.82690 0.73090 0.31310 -0.47100
O 	O 	0.73170 0.16320 0.66050 -0.47800
O 	O 	0.83200 0.81590 0.45170 -0.65600
O 	O 	0.84180 0.36880 0.40210 -0.51600
O 	O 	0.82870 0.20500 0.57640 -0.50500
O 	O 	0.49550 0.30220 0.62360 -0.24300
Zn	Zn	0.35111 0.71566 0.96652 1.13000
Zn	Zn	0.25356 0.22767 0.99751 1.12200
Zn	Zn	0.49936 0.27370 0.94990 1.17100
Zn	Zn	0.25013 0.38670 0.76270 1.20000
Zn	Zn	0.62885 0.65142 0.98363 1.16200
P 	P 	0.24270 0.73650 0.08705 0.54100
P 	P 	0.36070 0.23020 0.86921 0.53400
P 	P 	0.48831 0.74890 0.04428 0.71900
P 	P 	0.14112 0.35160 0.88579 0.54100
O 	O 	0.31910 0.37520 0.92900 -0.74800
O 	O 	0.28020 0.87790 0.02200 -0.48800
O 	O 	0.42360 0.63490 0.02520 -0.40700
O 	O 	0.35060 0.93970 0.87940 -0.55500
O 	O 	0.25720 0.45290 0.07990 -0.41300
O 	O 	0.43010 0.30950 0.87830 -0.52200
O 	O 	0.53660 0.60020 0.99280 -0.83900
O 	O 	0.06960 0.30710 0.88060 -0.48100
O 	O 	0.49330 0.03310 0.02760 -0.36700
O 	O 	0.33800 0.30540 0.79150 -0.45700
O 	O 	0.17310 0.26910 0.81310 -0.47100
O 	O 	0.26830 0.83680 0.16050 -0.46900
O 	O 	0.16800 0.18410 0.95170 -0.73200
O 	O 	0.15820 0.63120 0.90210 -0.56300
O 	O 	0.17130 0.79500 0.07640 -0.38800
O 	O 	0.50450 0.69780 0.12360 -0.22900
Zn	Zn	0.14889 0.21566 0.46652 1.22000
Zn	Zn	0.24644 0.72767 0.49751 1.21200
Zn	Zn	0.00064 0.77370 0.44990 1.22900
Zn	Zn	0.24987 0.88670 0.26270 1.20200
Zn	Zn	0.87115 0.15142 0.48363 1.22100
P 	P 	0.25730 0.23650 0.58705 0.55000
P 	P 	0.13930 0.73020 0.36921 0.53600
P 	P 	0.01169 0.24890 0.54428 0.57600
P 	P 	0.35888 0.85160 0.38579 0.53500
O 	O 	0.18090 0.87520 0.42900 -0.66500
O 	O 	0.21980 0.37790 0.52200 -0.66100
O 	O 	0.07640 0.13490 0.52520 -0.52500
O 	O 	0.14940 0.43970 0.37940 -0.49700
O 	O 	0.24280 0.95290 0.57990 -0.51900
O 	O 	0.06990 0.80950 0.37830 -0.47200
O 	O 	0.96340 0.10020 0.49280 -0.63200
O 	O 	0.43040 0.80710 0.38060 -0.46200
O 	O 	0.00670 0.53310 0.52760 -0.50100
O 	O 	0.16200 0.80540 0.29150 -0.44800
O 	O 	0.32690 0.76910 0.31310 -0.46700
O 	O 	0.23170 0.33680 0.66050 -0.48000
O 	O 	0.33200 0.68410 0.45170 -0.65000
O 	O 	0.34180 0.13120 0.40210 -0.51000
O 	O 	0.32870 0.29500 0.57640 -0.50600
O 	O 	0.99550 0.19780 0.62360 -0.25600
Zn	Zn	0.85111 0.78434 0.96652 1.12800
Zn	Zn	0.75356 0.27233 0.99751 1.12100
Zn	Zn	0.99936 0.22630 0.94990 1.16800
Zn	Zn	0.75013 0.11330 0.76270 1.20100
Zn	Zn	0.12885 0.84858 0.98363 1.16300
P 	P 	0.74270 0.76350 0.08705 0.53100
P 	P 	0.86070 0.26980 0.86921 0.53000
P 	P 	0.98831 0.75110 0.04428 0.70500
P 	P 	0.64112 0.14840 0.88579 0.54900
O 	O 	0.81910 0.12480 0.92900 -0.74400
O 	O 	0.78020 0.62210 0.02200 -0.48300
O 	O 	0.92360 0.86510 0.02520 -0.41200
O 	O 	0.85060 0.56030 0.87940 -0.55400
O 	O 	0.75720 0.04710 0.07990 -0.40400
O 	O 	0.93010 0.19050 0.87830 -0.52300
O 	O 	0.03660 0.89980 0.99280 -0.82400
O 	O 	0.56960 0.19290 0.88060 -0.48900
O 	O 	0.99330 0.46690 0.02760 -0.37700
O 	O 	0.83800 0.19460 0.79150 -0.45600
O 	O 	0.67310 0.23090 0.81310 -0.47400
O 	O 	0.76830 0.66320 0.16050 -0.46700
O 	O 	0.66800 0.31590 0.95170 -0.73700
O 	O 	0.65820 0.86880 0.90210 -0.57200
O 	O 	0.67130 0.70500 0.07640 -0.38700
O 	O 	0.00450 0.80220 0.12360 -0.21900
