data_crystal

_cell_length_a 20.72300
_cell_length_b 5.20950
_cell_length_c 17.87410
_cell_angle_alpha 90.00000
_cell_angle_beta  90.00000
_cell_angle_gamma 90.00000

_symmetry_space_group_name_	'P 1'
_symmetry_space_group_name_H-M	'P 1'

loop_
_symmetry_equiv_pos_as_xyz
  x,y,z

loop_
_atom_site_label
_atom_site_type_symbol
_atom_site_fract_x
_atom_site_fract_y
_atom_site_fract_z
_atom_site_charge
Zn	Zn	0.14899 0.78467 0.42511 1.21900
Zn	Zn	0.24657 0.27287 0.39400 1.21600
Zn	Zn	0.37154 0.65091 0.40747 1.22000
Zn	Zn	0.00102 0.22523 0.44115 1.22700
Zn	Zn	0.24991 0.61516 0.12879 1.21000
P 	P 	0.25749 0.76460 0.30388 0.55400
P 	P 	0.13943 0.26940 0.52174 0.54300
P 	P 	0.01207 0.75000 0.34610 0.53900
P 	P 	0.35927 0.14880 0.50469 0.55200
O 	O 	0.22073 0.62330 0.36910 -0.66300
O 	O 	0.32875 0.70410 0.31356 -0.50500
O 	O 	0.23178 0.66180 0.23078 -0.48300
O 	O 	0.24308 0.04760 0.31130 -0.50900
O 	O 	0.16251 0.19390 0.60005 -0.45600
O 	O 	0.18145 0.12490 0.46230 -0.66500
O 	O 	0.14948 0.55940 0.51157 -0.51000
O 	O 	0.07017 0.18830 0.51322 -0.47900
O 	O 	0.96370 0.90040 0.39790 -0.62600
O 	O 	0.07755 0.86570 0.36480 -0.52600
O 	O 	0.00720 0.46500 0.36210 -0.49900
O 	O 	0.99616 0.80140 0.26500 -0.22700
O 	O 	0.33178 0.31710 0.43984 -0.65500
O 	O 	0.34200 0.86780 0.48901 -0.52500
O 	O 	0.32733 0.23160 0.57776 -0.46900
O 	O 	0.43096 0.19200 0.51010 -0.46800
Zn	Zn	0.85101 0.21533 0.92511 1.20700
Zn	Zn	0.75343 0.72713 0.89400 1.21400
Zn	Zn	0.62846 0.34909 0.90747 1.21800
Zn	Zn	0.99898 0.77477 0.94115 1.20700
Zn	Zn	0.75009 0.38484 0.62879 1.20400
P 	P 	0.74251 0.23540 0.80388 0.56200
P 	P 	0.86057 0.73060 0.02174 0.58900
P 	P 	0.98793 0.25000 0.84610 0.54000
P 	P 	0.64073 0.85120 0.00469 0.64200
O 	O 	0.77927 0.37670 0.86910 -0.67100
O 	O 	0.67125 0.29590 0.81356 -0.50600
O 	O 	0.76822 0.33820 0.73078 -0.48700
O 	O 	0.75692 0.95240 0.81130 -0.51900
O 	O 	0.83749 0.80610 0.10005 -0.45400
O 	O 	0.81855 0.87510 0.96230 -0.72000
O 	O 	0.85052 0.44060 0.01157 -0.47500
O 	O 	0.92983 0.81170 0.01322 -0.45200
O 	O 	0.03630 0.09960 0.89790 -0.63900
O 	O 	0.92245 0.13430 0.86480 -0.53500
O 	O 	0.99280 0.53500 0.86210 -0.51200
O 	O 	0.00384 0.19860 0.76500 -0.23000
O 	O 	0.66822 0.68290 0.93984 -0.70300
O 	O 	0.65800 0.13220 0.98901 -0.58300
O 	O 	0.67267 0.76840 0.07776 -0.46300
O 	O 	0.56904 0.80800 0.01010 -0.44600
Zn	Zn	0.64899 0.71533 0.42511 1.21900
Zn	Zn	0.74657 0.22713 0.39400 1.21600
Zn	Zn	0.87154 0.84909 0.40747 1.22100
Zn	Zn	0.50102 0.27477 0.44115 1.22700
Zn	Zn	0.74991 0.88484 0.12879 1.21000
P 	P 	0.75749 0.73540 0.30388 0.56000
P 	P 	0.63943 0.23060 0.52174 0.54300
P 	P 	0.51207 0.75000 0.34610 0.53900
P 	P 	0.85927 0.35120 0.50469 0.54800
O 	O 	0.72073 0.87670 0.36910 -0.66300
O 	O 	0.82875 0.79590 0.31356 -0.50400
O 	O 	0.73178 0.83820 0.23078 -0.48300
O 	O 	0.74308 0.45240 0.31130 -0.51500
O 	O 	0.66251 0.30610 0.60005 -0.45700
O 	O 	0.68145 0.37510 0.46230 -0.66700
O 	O 	0.64948 0.94060 0.51157 -0.50900
O 	O 	0.57017 0.31170 0.51322 -0.48000
O 	O 	0.46370 0.59960 0.39790 -0.62700
O 	O 	0.57755 0.63430 0.36480 -0.52300
O 	O 	0.50720 0.03500 0.36210 -0.49500
O 	O 	0.49616 0.69860 0.26500 -0.23000
O 	O 	0.83178 0.18290 0.43984 -0.65500
O 	O 	0.84200 0.63220 0.48901 -0.52000
O 	O 	0.82733 0.26840 0.57776 -0.46900
O 	O 	0.93096 0.30800 0.51010 -0.46700
Zn	Zn	0.35101 0.28467 0.92511 1.20700
Zn	Zn	0.25343 0.77287 0.89400 1.21200
Zn	Zn	0.12846 0.15091 0.90747 1.21900
Zn	Zn	0.49898 0.72523 0.94115 1.20700
Zn	Zn	0.25009 0.11516 0.62879 1.20500
P 	P 	0.24251 0.26460 0.80388 0.56100
P 	P 	0.36057 0.76940 0.02174 0.58000
P 	P 	0.48793 0.25000 0.84610 0.54400
P 	P 	0.14073 0.64880 0.00469 0.63900
O 	O 	0.27927 0.12330 0.86910 -0.66800
O 	O 	0.17125 0.20410 0.81356 -0.50500
O 	O 	0.26822 0.16180 0.73078 -0.48500
O 	O 	0.25692 0.54760 0.81130 -0.52000
O 	O 	0.33749 0.69390 0.10005 -0.45400
O 	O 	0.31855 0.62490 0.96230 -0.71700
O 	O 	0.35052 0.05940 0.01157 -0.47100
O 	O 	0.42983 0.68830 0.01322 -0.45300
O 	O 	0.53630 0.40040 0.89790 -0.64400
O 	O 	0.42245 0.36570 0.86480 -0.53600
O 	O 	0.49280 0.96500 0.86210 -0.51500
O 	O 	0.50384 0.30140 0.76500 -0.23200
O 	O 	0.16822 0.81710 0.93984 -0.70300
O 	O 	0.15800 0.36780 0.98901 -0.58000
O 	O 	0.17267 0.73160 0.07776 -0.46500
O 	O 	0.06904 0.69200 0.01010 -0.44800
