data_crystal

_cell_length_a 12.65280
_cell_length_b 5.19090
_cell_length_c 21.14570
_cell_angle_alpha 90.00000
_cell_angle_beta  95.08800
_cell_angle_gamma 90.00000

_symmetry_space_group_name_	'P 1'
_symmetry_space_group_name_H-M	'P 1'

loop_
_symmetry_equiv_pos_as_xyz
  x,y,z

loop_
_atom_site_label
_atom_site_type_symbol
_atom_site_fract_x
_atom_site_fract_y
_atom_site_fract_z
_atom_site_charge
Zn	Zn	0.00597 0.21510 0.07054 1.21700
Zn	Zn	0.99888 0.73311 0.17272 1.22600
Zn	Zn	0.39935 0.77804 0.05465 1.24400
P 	P 	0.13998 0.73232 0.05251 0.54600
P 	P 	0.87328 0.24183 0.18659 0.55900
P 	P 	0.47221 0.70089 0.91682 0.55500
O 	O 	0.11566 0.44570 0.04952 -0.50200
O 	O 	0.11773 0.85730 0.98692 -0.49100
O 	O 	0.96283 0.37470 0.15073 -0.63000
O 	O 	0.06544 0.87020 0.09755 -0.61300
O 	O 	0.89830 0.29630 0.25764 -0.48900
O 	O 	0.87660 0.95550 0.17088 -0.48000
O 	O 	0.39430 0.67090 0.96735 -0.45400
O 	O 	0.56889 0.86120 0.93865 -0.47100
O 	O 	0.50500 0.43930 0.89308 -0.41400
O 	O 	0.25407 0.78020 0.07987 -0.41900
O 	O 	0.76807 0.36220 0.16567 -0.43400
H 	H 	0.72270 0.24950 0.16070 0.22600
O 	O 	0.41077 0.85010 0.85977 -0.39900
H 	H 	0.35260 0.78310 0.85110 0.22200
Zn	Zn	0.99403 0.71510 0.42946 1.22000
Zn	Zn	0.00112 0.23311 0.32728 1.22300
Zn	Zn	0.60065 0.27804 0.44535 1.24400
P 	P 	0.86002 0.23232 0.44749 0.55000
P 	P 	0.12672 0.74183 0.31341 0.56000
P 	P 	0.52779 0.20089 0.58318 0.55700
O 	O 	0.88434 0.94570 0.45048 -0.50300
O 	O 	0.88227 0.35730 0.51308 -0.49400
O 	O 	0.03717 0.87470 0.34927 -0.62600
O 	O 	0.93456 0.37020 0.40245 -0.61500
O 	O 	0.10170 0.79630 0.24236 -0.48700
O 	O 	0.12340 0.45550 0.32912 -0.48300
O 	O 	0.60570 0.17090 0.53265 -0.45500
O 	O 	0.43111 0.36120 0.56135 -0.46900
O 	O 	0.49500 0.93930 0.60692 -0.41900
O 	O 	0.74593 0.28020 0.42013 -0.42000
O 	O 	0.23193 0.86220 0.33433 -0.43100
H 	H 	0.27730 0.74950 0.33930 0.22500
O 	O 	0.58923 0.35010 0.64023 -0.39800
H 	H 	0.64740 0.28310 0.64890 0.22200
Zn	Zn	0.99403 0.78490 0.92946 1.21700
Zn	Zn	0.00112 0.26689 0.82728 1.22600
Zn	Zn	0.60065 0.22196 0.94535 1.24400
P 	P 	0.86002 0.26768 0.94749 0.54600
P 	P 	0.12672 0.75817 0.81341 0.55900
P 	P 	0.52779 0.29911 0.08318 0.55500
O 	O 	0.88434 0.55430 0.95048 -0.50200
O 	O 	0.88227 0.14270 0.01308 -0.49100
O 	O 	0.03717 0.62530 0.84927 -0.63000
O 	O 	0.93456 0.12980 0.90245 -0.61300
O 	O 	0.10170 0.70370 0.74236 -0.48900
O 	O 	0.12340 0.04450 0.82912 -0.48000
O 	O 	0.60570 0.32910 0.03265 -0.45400
O 	O 	0.43111 0.13880 0.06135 -0.47100
O 	O 	0.49500 0.56070 0.10692 -0.41400
O 	O 	0.74593 0.21980 0.92013 -0.41900
O 	O 	0.23193 0.63780 0.83433 -0.43400
H 	H 	0.27730 0.75050 0.83930 0.22600
O 	O 	0.58923 0.14990 0.14023 -0.39900
H 	H 	0.64740 0.21690 0.14890 0.22200
Zn	Zn	0.00597 0.28490 0.57054 1.22000
Zn	Zn	0.99888 0.76689 0.67272 1.22300
Zn	Zn	0.39935 0.72196 0.55465 1.24400
P 	P 	0.13998 0.76768 0.55251 0.55000
P 	P 	0.87328 0.25817 0.68659 0.56000
P 	P 	0.47221 0.79911 0.41682 0.55700
O 	O 	0.11566 0.05430 0.54952 -0.50300
O 	O 	0.11773 0.64270 0.48692 -0.49400
O 	O 	0.96283 0.12530 0.65073 -0.62600
O 	O 	0.06544 0.62980 0.59755 -0.61500
O 	O 	0.89830 0.20370 0.75764 -0.48700
O 	O 	0.87660 0.54450 0.67088 -0.48300
O 	O 	0.39430 0.82910 0.46735 -0.45500
O 	O 	0.56889 0.63880 0.43865 -0.46900
O 	O 	0.50500 0.06070 0.39308 -0.41900
O 	O 	0.25407 0.71980 0.57987 -0.42000
O 	O 	0.76807 0.13780 0.66567 -0.43100
H 	H 	0.72270 0.25050 0.66070 0.22500
O 	O 	0.41077 0.64990 0.35977 -0.39800
H 	H 	0.35260 0.71690 0.35110 0.22200
