data_crystal

_cell_length_a 13.87830
_cell_length_b 20.36740
_cell_length_c 21.03440
_cell_angle_alpha 62.57200
_cell_angle_beta  82.48900
_cell_angle_gamma 73.85000

_symmetry_space_group_name_	'P 1'
_symmetry_space_group_name_H-M	'P 1'

loop_
_symmetry_equiv_pos_as_xyz
  x,y,z

loop_
_atom_site_label
_atom_site_type_symbol
_atom_site_fract_x
_atom_site_fract_y
_atom_site_fract_z
_atom_site_charge
Mn	Mn	0.08736 0.31757 0.33984 1.30700
Mn	Mn	0.31424 0.29190 0.42329 1.22400
Mn	Mn	0.87694 0.24908 0.44151 1.25700
H 	H 	0.32540 0.09730 0.18690 0.09700
H 	H 	0.04250 0.06550 0.70140 0.10000
H 	H 	0.28410 0.87040 0.92930 0.30600
H 	H 	0.63090 0.14280 0.93220 0.28900
H 	H 	0.20400 0.92640 0.86940 0.31300
H 	H 	0.78930 0.12000 0.59540 -0.01700
H 	H 	0.09720 0.54150 0.17460 -0.00800
H 	H 	0.66380 0.84220 0.96210 0.28500
H 	H 	0.18720 0.26780 0.56820 -0.05900
H 	H 	0.06800 0.16520 0.96380 0.30400
H 	H 	0.31620 0.52450 0.29170 -0.01200
H 	H 	0.20140 0.20800 0.69260 0.09500
H 	H 	0.00830 0.16120 0.90780 0.30500
H 	H 	0.62920 0.61750 0.21110 0.08500
H 	H 	0.03290 0.12300 0.57900 -0.05200
H 	H 	0.96080 0.52790 0.28440 0.01100
H 	H 	0.69130 0.49010 0.28530 0.01500
H 	H 	0.87570 0.14170 0.29820 0.00000
H 	H 	0.91490 0.07770 0.22750 0.08700
H 	H 	0.17930 0.85350 0.93350 0.31300
H 	H 	0.05750 0.27510 0.17820 0.00300
H 	H 	0.48410 0.20640 0.27760 -0.01100
H 	H 	0.18780 0.86890 0.17580 0.30800
H 	H 	0.54640 0.14640 0.98870 0.28100
H 	H 	0.78530 0.02770 0.72640 0.08200
H 	H 	0.52350 0.13840 0.92190 0.29100
H 	H 	0.23710 0.15140 0.25920 -0.00200
H 	H 	0.09870 0.66490 0.10020 0.09900
H 	H 	0.12060 0.16570 0.89300 0.30900
H 	H 	0.65110 0.90980 0.21430 0.29300
H 	H 	0.64090 0.83520 0.21400 0.29100
H 	H 	0.31810 0.64990 0.21650 0.09900
H 	H 	0.09470 0.21430 0.10620 0.09000
H 	H 	0.07780 0.86610 0.16960 0.30400
H 	H 	0.54500 0.90060 0.20740 0.29700
H 	H 	0.55890 0.27000 0.62070 -0.00200
H 	H 	0.09710 0.93490 0.17630 0.31200
H 	H 	0.55450 0.19330 0.74120 0.07300
H 	H 	0.76970 0.82060 0.99500 0.28200
H 	H 	0.90100 0.65430 0.21030 0.08500
H 	H 	0.74080 0.89160 0.92060 0.29000
H 	H 	0.57220 0.14910 0.20650 0.09800
C 	C 	0.96580 0.21340 0.24680 -0.17200
C 	C 	0.12680 0.12750 0.71140 0.17600
C 	C 	0.73300 0.52330 0.27060 0.08100
C 	C 	0.14190 0.56320 0.18300 0.13900
C 	C 	0.60070 0.17560 0.71290 -0.17900
C 	C 	0.17250 0.93820 0.96170 0.44200
C 	C 	0.57350 0.12430 0.95650 -0.88800
C 	C 	0.14260 0.63680 0.13880 -0.22700
C 	C 	0.60150 0.22140 0.64120 0.08100
C 	C 	0.10130 0.02000 0.04120 -0.35100
C 	C 	0.20890 0.67150 0.15040 0.17400
C 	C 	0.73950 0.13060 0.62580 0.06000
C 	C 	0.50960 0.08240 0.14590 -0.17600
C 	C 	0.64490 0.99230 0.96390 -0.30400
C 	C 	0.30410 0.15200 0.24830 0.11900
C 	C 	0.07350 0.10510 0.67490 -0.24400
C 	C 	0.85860 0.62150 0.22510 -0.18300
C 	C 	0.00920 0.14020 0.15880 0.15500
C 	C 	0.35770 0.11930 0.20520 -0.22200
C 	C 	0.10600 0.06040 0.96600 0.42600
C 	C 	0.87300 0.41110 0.34630 0.38100
C 	C 	0.66470 0.87990 0.07850 -0.33700
C 	C 	0.54900 0.04920 0.11010 0.12600
C 	C 	0.16820 0.19040 0.67030 -0.23900
C 	C 	0.20450 0.75070 0.10700 -0.18000
C 	C 	0.62540 0.92550 0.11400 0.38600
C 	C 	0.35230 0.18600 0.27520 -0.19700
C 	C 	0.73950 0.07510 0.70710 -0.17300
C 	C 	0.05130 0.19890 0.14490 -0.20900
C 	C 	0.66580 0.19360 0.60160 -0.16100
C 	C 	0.60410 0.03890 0.99810 0.37000
C 	C 	0.50460 0.15020 0.21640 -0.22400
C 	C 	0.06620 0.14020 0.60160 0.15100
C 	C 	0.12220 0.89900 0.15680 -0.95000
C 	C 	0.65650 0.02720 0.88770 0.11900
C 	C 	0.45680 0.11840 0.18900 0.17800
C 	C 	0.92080 0.15540 0.26040 0.10200
C 	C 	0.69590 0.59920 0.22570 -0.17400
C 	C 	0.19180 0.81900 0.07260 0.12400
C 	C 	0.06370 0.06290 0.08300 0.13500
C 	C 	0.95190 0.24880 0.29800 0.40000
C 	C 	0.76090 0.64980 0.20150 0.13200
C 	C 	0.14010 0.01740 0.92730 -0.37400
C 	C 	0.72180 0.73000 0.15610 -0.15200
C 	C 	0.29220 0.22430 0.32080 0.45400
C 	C 	0.10060 0.24010 0.48190 0.40800
C 	C 	0.94330 0.11770 0.21750 -0.20400
C 	C 	0.16430 0.90110 0.03650 -0.38300
C 	C 	0.15910 0.22660 0.59540 0.13800
C 	C 	0.10830 0.20110 0.56160 -0.25700
C 	C 	0.45140 0.18450 0.25950 0.12500
C 	C 	0.83180 0.49500 0.29470 -0.14700
C 	C 	0.07280 0.14580 0.92940 -0.95200
C 	C 	0.02910 0.23500 0.18840 0.11200
C 	C 	0.66080 0.24640 0.51590 0.36200
C 	C 	0.67050 0.09830 0.74830 0.12000
C 	C 	0.61460 0.88940 0.19480 -0.90500
C 	C 	0.27270 0.55310 0.25290 0.12700
C 	C 	0.21370 0.89300 0.91960 -0.96000
C 	C 	0.66330 0.05820 0.82440 -0.16200
C 	C 	0.27350 0.62820 0.20790 -0.22200
C 	C 	0.20680 0.43800 0.28980 0.44200
C 	C 	0.71600 0.86210 0.96710 -0.87900
C 	C 	0.89410 0.54600 0.26990 0.08200
C 	C 	0.14010 0.05720 0.85050 0.15300
C 	C 	0.69540 0.79830 0.11990 0.09600
C 	C 	0.13590 0.08860 0.78810 -0.20400
C 	C 	0.59300 0.00380 0.07450 -0.31900
C 	C 	0.03830 0.09720 0.11630 -0.18200
C 	C 	0.20640 0.52040 0.23980 -0.20100
C 	C 	0.67450 0.91220 0.00430 0.37300
C 	C 	0.12850 0.94140 0.07620 0.43100
O 	O 	0.81340 0.36890 0.37010 -0.43900
O 	O 	0.20120 0.23250 0.32460 -0.48500
O 	O 	0.14980 0.40980 0.27420 -0.47200
O 	O 	0.04240 0.22660 0.45120 -0.56200
O 	O 	0.34230 0.24420 0.35040 -0.52100
O 	O 	0.58230 0.30220 0.49460 -0.30100
O 	O 	0.72580 0.23060 0.47870 -0.45900
O 	O 	0.90060 0.22170 0.35340 -0.46200
O 	O 	0.15570 0.28670 0.44580 -0.57300
O 	O 	0.26230 0.40540 0.34320 -0.50500
O 	O 	0.99030 0.30420 0.28020 -0.45700
O 	O 	0.96280 0.39210 0.36370 -0.47100
Mn	Mn	0.91264 0.68243 0.66016 1.30800
Mn	Mn	0.68576 0.70810 0.57671 1.22500
Mn	Mn	0.12306 0.75092 0.55849 1.25800
H 	H 	0.90530 0.78570 0.89380 0.09000
H 	H 	0.96710 0.87700 0.42100 -0.05200
H 	H 	0.08510 0.92230 0.77250 0.08700
H 	H 	0.23030 0.17940 0.00500 0.28200
H 	H 	0.67460 0.90270 0.81310 0.09800
H 	H 	0.44550 0.80670 0.25880 0.07300
H 	H 	0.33620 0.15780 0.03790 0.28500
H 	H 	0.82070 0.14650 0.06650 0.31300
H 	H 	0.30870 0.50990 0.71470 0.01500
H 	H 	0.76290 0.84860 0.74080 -0.00200
H 	H 	0.25920 0.10840 0.07940 0.29000
H 	H 	0.90280 0.45850 0.82540 -0.00800
H 	H 	0.81220 0.13110 0.82420 0.30800
H 	H 	0.79860 0.79200 0.30740 0.09500
H 	H 	0.36910 0.85720 0.06780 0.28900
H 	H 	0.09900 0.34570 0.78970 0.08500
H 	H 	0.34890 0.09020 0.78570 0.29300
H 	H 	0.45360 0.85360 0.01130 0.28100
H 	H 	0.21470 0.97230 0.27360 0.08200
H 	H 	0.44110 0.73000 0.37930 -0.00200
H 	H 	0.94250 0.72490 0.82180 0.00300
H 	H 	0.12430 0.85830 0.70180 0.00000
H 	H 	0.35910 0.16480 0.78600 0.29100
H 	H 	0.79600 0.07360 0.13060 0.31300
H 	H 	0.42780 0.85090 0.79350 0.09800
H 	H 	0.03920 0.47210 0.71560 0.01100
H 	H 	0.92220 0.13390 0.83040 0.30400
H 	H 	0.90130 0.33510 0.89980 0.09900
H 	H 	0.71590 0.12960 0.07070 0.30700
H 	H 	0.51590 0.79360 0.72240 -0.01100
H 	H 	0.99170 0.83880 0.09220 0.30500
H 	H 	0.68380 0.47550 0.70830 -0.01200
H 	H 	0.90290 0.06510 0.82370 0.31200
H 	H 	0.45500 0.09940 0.79260 0.29700
H 	H 	0.93200 0.83480 0.03620 0.30400
H 	H 	0.47650 0.86160 0.07810 0.29100
H 	H 	0.95750 0.93450 0.29860 0.10100
H 	H 	0.87940 0.83430 0.10700 0.30900
H 	H 	0.68190 0.35010 0.78350 0.09900
H 	H 	0.81280 0.73220 0.43180 -0.05900
H 	H 	0.21070 0.88000 0.40460 -0.01700
H 	H 	0.37080 0.38250 0.78890 0.08500
C 	C 	0.86410 0.91140 0.21190 -0.20400
C 	C 	0.89870 0.98000 0.95880 -0.35100
C 	C 	0.33670 0.94180 0.17560 -0.16200
C 	C 	0.30410 0.40080 0.77430 -0.17400
C 	C 	0.79110 0.32850 0.84960 0.17400
C 	C 	0.32550 0.08780 0.99570 0.37300
C 	C 	0.78630 0.10700 0.08040 -0.96000
C 	C 	0.79360 0.47960 0.76020 -0.20100
C 	C 	0.23910 0.35020 0.79850 0.13200
C 	C 	0.83570 0.09890 0.96350 -0.38300
C 	C 	0.54320 0.88160 0.81100 0.17800
C 	C 	0.16820 0.50500 0.70530 -0.14700
C 	C 	0.32950 0.90170 0.25170 0.12000
C 	C 	0.89940 0.75990 0.51810 0.40800
C 	C 	0.92650 0.89490 0.32510 -0.24400
C 	C 	0.92720 0.85420 0.07060 -0.95200
C 	C 	0.03420 0.78660 0.75320 -0.17200
C 	C 	0.89400 0.93960 0.03400 0.42600
C 	C 	0.87320 0.87250 0.28860 0.17600
C 	C 	0.79320 0.56200 0.71020 0.44200
C 	C 	0.27820 0.27000 0.84390 -0.15200
C 	C 	0.69590 0.84800 0.75170 0.11900
C 	C 	0.87780 0.10100 0.84320 -0.95000
C 	C 	0.49540 0.84980 0.78360 -0.22400
C 	C 	0.54860 0.81550 0.74050 0.12500
C 	C 	0.87150 0.05860 0.92380 0.43100
C 	C 	0.26700 0.47670 0.72940 0.08100
C 	C 	0.35510 0.00770 0.03610 -0.30400
C 	C 	0.12700 0.58890 0.65370 0.38100
C 	C 	0.64230 0.88070 0.79480 -0.22200
C 	C 	0.80820 0.18100 0.92740 0.12400
C 	C 	0.79550 0.24930 0.89300 -0.18000
C 	C 	0.93380 0.85980 0.39840 0.15100
C 	C 	0.97090 0.76500 0.81160 0.11200
C 	C 	0.83180 0.80960 0.32970 -0.23900
C 	C 	0.26050 0.86940 0.37420 0.06000
C 	C 	0.33920 0.75360 0.48410 0.36200
C 	C 	0.28400 0.13790 0.03290 -0.87900
C 	C 	0.05670 0.88230 0.78250 -0.20400
C 	C 	0.26050 0.92490 0.29290 -0.17300
C 	C 	0.04810 0.75120 0.70200 0.40000
C 	C 	0.99080 0.85980 0.84120 0.15500
C 	C 	0.82750 0.06180 0.03830 0.44200
C 	C 	0.14140 0.37850 0.77490 -0.18300
C 	C 	0.85990 0.94280 0.14950 0.15300
C 	C 	0.34350 0.97280 0.11230 0.11900
C 	C 	0.49040 0.91760 0.85410 -0.17600
C 	C 	0.39930 0.82440 0.28710 -0.17900
C 	C 	0.64770 0.81400 0.72480 -0.19700
C 	C 	0.40700 0.99620 0.92550 -0.31900
C 	C 	0.33530 0.12010 0.92150 -0.33700
C 	C 	0.37460 0.07450 0.88600 0.38600
C 	C 	0.33420 0.80640 0.39840 -0.16100
C 	C 	0.39590 0.96110 0.00190 0.37000
C 	C 	0.42650 0.87570 0.04350 -0.88800
C 	C 	0.85990 0.98260 0.07270 -0.37400
C 	C 	0.07920 0.84460 0.73960 0.10200
C 	C 	0.30460 0.20170 0.88010 0.09600
C 	C 	0.39850 0.77860 0.35880 0.08100
C 	C 	0.38540 0.11060 0.80520 -0.90500
C 	C 	0.94870 0.80110 0.85510 -0.20900
C 	C 	0.10590 0.45400 0.73010 0.08200
C 	C 	0.72730 0.44690 0.74710 0.12700
C 	C 	0.93630 0.93710 0.91700 0.13500
C 	C 	0.84090 0.77340 0.40460 0.13800
C 	C 	0.72650 0.37180 0.79210 -0.22200
C 	C 	0.85740 0.36320 0.86120 -0.22700
C 	C 	0.70780 0.77570 0.67920 0.45400
C 	C 	0.45100 0.95080 0.88990 0.12600
C 	C 	0.96170 0.90280 0.88370 -0.18200
C 	C 	0.85810 0.43680 0.81700 0.13900
C 	C 	0.89170 0.79890 0.43840 -0.25700
O 	O 	0.65770 0.75580 0.64960 -0.52100
O 	O 	0.27420 0.76940 0.52130 -0.45900
O 	O 	0.09940 0.77830 0.64660 -0.46200
O 	O 	0.03720 0.60790 0.63630 -0.47100
O 	O 	0.73770 0.59460 0.65680 -0.50500
O 	O 	0.84430 0.71330 0.55420 -0.57300
O 	O 	0.95760 0.77340 0.54880 -0.56200
O 	O 	0.41770 0.69780 0.50540 -0.30100
O 	O 	0.85020 0.59020 0.72580 -0.47200
O 	O 	0.00970 0.69580 0.71980 -0.45700
O 	O 	0.18660 0.63110 0.62990 -0.43900
O 	O 	0.79880 0.76750 0.67540 -0.48500
