data_crystal

_cell_length_a 6.44670
_cell_length_b 16.64850
_cell_length_c 21.69740
_cell_angle_alpha 90.00000
_cell_angle_beta  90.00000
_cell_angle_gamma 91.28300

_symmetry_space_group_name_	'P 1'
_symmetry_space_group_name_H-M	'P 1'

loop_
_symmetry_equiv_pos_as_xyz
  x,y,z

loop_
_atom_site_label
_atom_site_type_symbol
_atom_site_fract_x
_atom_site_fract_y
_atom_site_fract_z
_atom_site_charge
Na	Na	0.61170 0.53804 0.92583 0.58400
Na	Na	0.38830 0.96196 0.42583 0.58400
Na	Na	0.38830 0.46196 0.07417 0.58400
Na	Na	0.61170 0.03804 0.57417 0.58400
La	La	0.56246 0.78069 0.92227 1.59200
La	La	0.43754 0.71931 0.42227 1.59200
La	La	0.43754 0.21931 0.07773 1.59200
La	La	0.56246 0.28069 0.57773 1.59200
H 	H 	0.54350 0.64500 0.70720 0.05400
H 	H 	0.59700 0.64640 0.60130 0.03600
H 	H 	0.40340 0.84670 0.74540 0.04100
H 	H 	0.45760 0.84630 0.63990 0.04900
H 	H 	0.45650 0.85500 0.20720 0.05500
H 	H 	0.40300 0.85360 0.10130 0.03600
H 	H 	0.59660 0.65330 0.24540 0.04100
H 	H 	0.54240 0.65370 0.13990 0.04900
H 	H 	0.45650 0.35500 0.29280 0.05400
H 	H 	0.40300 0.35360 0.39870 0.03600
H 	H 	0.59660 0.15330 0.25460 0.04100
H 	H 	0.54240 0.15370 0.36010 0.04900
H 	H 	0.54350 0.14500 0.79280 0.05500
H 	H 	0.59700 0.14640 0.89870 0.03600
H 	H 	0.40340 0.34670 0.75460 0.04100
H 	H 	0.45760 0.34630 0.86010 0.04900
C 	C 	0.79410 0.71288 0.72982 -0.07600
C 	C 	0.65740 0.67290 0.69091 -0.02900
C 	C 	0.68940 0.67400 0.62699 -0.01300
C 	C 	0.85460 0.71516 0.60207 -0.08600
C 	C 	0.01850 0.74562 0.64147 0.05100
C 	C 	0.98670 0.74445 0.70626 0.04700
C 	C 	0.14890 0.77600 0.74568 -0.08000
C 	C 	0.31220 0.81787 0.72004 -0.01500
C 	C 	0.34440 0.81810 0.65625 -0.01900
C 	C 	0.21130 0.77719 0.61763 -0.07200
C 	C 	0.71450 0.73425 0.79249 0.32200
C 	C 	0.83570 0.74082 0.53582 0.32300
C 	C 	0.16680 0.75214 0.81252 0.33300
C 	C 	0.29020 0.75670 0.55443 0.32000
C 	C 	0.20590 0.78712 0.22982 -0.07500
C 	C 	0.34260 0.82710 0.19091 -0.02900
C 	C 	0.31060 0.82600 0.12699 -0.01200
C 	C 	0.14540 0.78484 0.10207 -0.08700
C 	C 	0.98150 0.75438 0.14147 0.05200
C 	C 	0.01330 0.75555 0.20626 0.04600
C 	C 	0.85110 0.72400 0.24568 -0.08000
C 	C 	0.68780 0.68213 0.22004 -0.01500
C 	C 	0.65560 0.68190 0.15625 -0.01800
C 	C 	0.78870 0.72281 0.11763 -0.07300
C 	C 	0.28550 0.76575 0.29249 0.32200
C 	C 	0.16430 0.75918 0.03582 0.32300
C 	C 	0.83320 0.74786 0.31252 0.33300
C 	C 	0.70980 0.74330 0.05443 0.32000
C 	C 	0.20590 0.28712 0.27018 -0.07600
C 	C 	0.34260 0.32710 0.30909 -0.02900
C 	C 	0.31060 0.32600 0.37301 -0.01300
C 	C 	0.14540 0.28484 0.39793 -0.08600
C 	C 	0.98150 0.25438 0.35853 0.05100
C 	C 	0.01330 0.25555 0.29374 0.04700
C 	C 	0.85110 0.22400 0.25432 -0.08000
C 	C 	0.68780 0.18213 0.27996 -0.01500
C 	C 	0.65560 0.18190 0.34375 -0.01900
C 	C 	0.78870 0.22281 0.38237 -0.07200
C 	C 	0.28550 0.26575 0.20751 0.32200
C 	C 	0.16430 0.25918 0.46418 0.32300
C 	C 	0.83320 0.24786 0.18748 0.33300
C 	C 	0.70980 0.24330 0.44557 0.32000
C 	C 	0.79410 0.21288 0.77018 -0.07500
C 	C 	0.65740 0.17290 0.80909 -0.02900
C 	C 	0.68940 0.17400 0.87301 -0.01200
C 	C 	0.85460 0.21516 0.89793 -0.08700
C 	C 	0.01850 0.24562 0.85853 0.05200
C 	C 	0.98670 0.24445 0.79374 0.04600
C 	C 	0.14890 0.27600 0.75432 -0.08000
C 	C 	0.31220 0.31787 0.77996 -0.01500
C 	C 	0.34440 0.31810 0.84375 -0.01800
C 	C 	0.21130 0.27719 0.88237 -0.07300
C 	C 	0.71450 0.23425 0.70751 0.32200
C 	C 	0.83570 0.24082 0.96418 0.32300
C 	C 	0.16680 0.25214 0.68748 0.33300
C 	C 	0.29020 0.25670 0.94557 0.32000
O 	O 	0.59450 0.68579 0.82068 -0.33700
O 	O 	0.75590 0.80302 0.81412 -0.36900
O 	O 	0.10190 0.68185 0.82613 -0.23300
O 	O 	0.25690 0.79956 0.84943 -0.38700
O 	O 	0.40650 0.80677 0.52663 -0.32800
O 	O 	0.24830 0.68818 0.53208 -0.36700
O 	O 	0.89850 0.81076 0.52214 -0.23000
O 	O 	0.74430 0.69358 0.49790 -0.37500
O 	O 	0.35450 0.64511 0.92482 -0.25600
O 	O 	0.83870 0.66700 0.92387 -0.25800
O 	O 	0.31220 0.46337 0.96330 -0.22400
O 	O 	0.40550 0.81421 0.32068 -0.33700
O 	O 	0.24410 0.69698 0.31412 -0.36900
O 	O 	0.89810 0.81815 0.32613 -0.23300
O 	O 	0.74310 0.70044 0.34943 -0.38700
O 	O 	0.59350 0.69323 0.02663 -0.32700
O 	O 	0.75170 0.81182 0.03208 -0.36600
O 	O 	0.10150 0.68924 0.02214 -0.23100
O 	O 	0.25570 0.80642 0.99790 -0.37500
O 	O 	0.64550 0.85489 0.42482 -0.25600
O 	O 	0.16130 0.83300 0.42387 -0.25700
O 	O 	0.68780 0.03663 0.46330 -0.22400
O 	O 	0.40550 0.31421 0.17932 -0.33700
O 	O 	0.24410 0.19698 0.18588 -0.36900
O 	O 	0.89810 0.31815 0.17387 -0.23300
O 	O 	0.74310 0.20044 0.15057 -0.38700
O 	O 	0.59350 0.19323 0.47337 -0.32800
O 	O 	0.75170 0.31182 0.46792 -0.36700
O 	O 	0.10150 0.18924 0.47786 -0.23000
O 	O 	0.25570 0.30642 0.50210 -0.37500
O 	O 	0.64550 0.35489 0.07518 -0.25600
O 	O 	0.16130 0.33300 0.07613 -0.25800
O 	O 	0.68780 0.53663 0.03670 -0.22400
O 	O 	0.59450 0.18579 0.67932 -0.33700
O 	O 	0.75590 0.30302 0.68588 -0.36900
O 	O 	0.10190 0.18185 0.67387 -0.23300
O 	O 	0.25690 0.29956 0.65057 -0.38700
O 	O 	0.40650 0.30677 0.97337 -0.32700
O 	O 	0.24830 0.18818 0.96792 -0.36600
O 	O 	0.89850 0.31076 0.97786 -0.23100
O 	O 	0.74430 0.19358 0.00210 -0.37500
O 	O 	0.35450 0.14511 0.57518 -0.25600
O 	O 	0.83870 0.16700 0.57613 -0.25700
O 	O 	0.31220 0.96337 0.53670 -0.22400
