data_crystal

_cell_length_a 5.50100
_cell_length_b 22.29700
_cell_length_c 20.79900
_cell_angle_alpha 97.54300
_cell_angle_beta  90.00000
_cell_angle_gamma 90.00000

_symmetry_space_group_name_	'P 1'
_symmetry_space_group_name_H-M	'P 1'

loop_
_symmetry_equiv_pos_as_xyz
  x,y,z

loop_
_atom_site_label
_atom_site_type_symbol
_atom_site_fract_x
_atom_site_fract_y
_atom_site_fract_z
_atom_site_charge
Mn	Mn	0.31180 0.21215 0.29929 1.23200
Mn	Mn	0.68820 0.78785 0.70071 1.23200
Mn	Mn	0.81180 0.78785 0.20071 1.22900
Mn	Mn	0.18820 0.21215 0.79929 1.22900
H 	H 	0.45550 0.49220 0.39230 0.07200
H 	H 	0.72610 0.91460 0.47250 0.06100
H 	H 	0.25270 0.70380 0.10760 0.00200
H 	H 	0.26260 0.59490 0.57110 0.04200
H 	H 	0.02000 0.11500 0.67520 -0.01200
H 	H 	0.75270 0.29620 0.39240 0.00400
H 	H 	0.20260 0.28140 0.54220 0.06500
H 	H 	0.50590 0.97780 0.90630 0.07100
H 	H 	0.27240 0.47100 0.85020 0.06800
H 	H 	0.77240 0.52900 0.64980 0.07000
H 	H 	0.35980 0.35630 0.83070 -0.01600
H 	H 	0.72760 0.52900 0.14980 0.06800
H 	H 	0.79740 0.71860 0.45780 0.06500
H 	H 	0.42890 0.17750 0.06520 0.05000
H 	H 	0.56580 0.35090 0.09580 0.05400
H 	H 	0.52000 0.88500 0.82480 -0.01000
H 	H 	0.56300 0.68790 0.01060 0.04300
H 	H 	0.16400 0.71070 0.85120 0.07400
H 	H 	0.22760 0.47100 0.35020 0.07000
H 	H 	0.86620 0.14280 0.52280 0.04000
H 	H 	0.76260 0.40510 0.92890 0.04200
H 	H 	0.20780 0.42670 0.00700 0.05800
H 	H 	0.54110 0.54320 0.90610 0.05200
H 	H 	0.13380 0.85720 0.47720 0.04000
H 	H 	0.73740 0.40510 0.42890 0.04200
H 	H 	0.87020 0.03430 0.38260 0.06800
H 	H 	0.78340 0.32370 0.05290 0.05100
H 	H 	0.29740 0.28140 0.04220 0.06100
H 	H 	0.20550 0.81770 0.87550 0.05700
H 	H 	0.71660 0.32370 0.55290 0.04900
H 	H 	0.36620 0.85720 0.97720 0.04300
H 	H 	0.63380 0.14280 0.02280 0.04300
H 	H 	0.45400 0.91940 0.55600 0.06400
H 	H 	0.57110 0.82250 0.93480 0.05000
H 	H 	0.99410 0.97780 0.40630 0.07100
H 	H 	0.43420 0.64910 0.90420 0.05400
H 	H 	0.19860 0.77120 0.53010 0.08200
H 	H 	0.21660 0.67630 0.94710 0.05100
H 	H 	0.04110 0.45680 0.59390 0.05100
H 	H 	0.95400 0.08060 0.94400 0.06500
H 	H 	0.62980 0.03430 0.88260 0.06800
H 	H 	0.54600 0.08060 0.44400 0.06400
H 	H 	0.44640 0.99810 0.30560 0.03600
H 	H 	0.83600 0.28930 0.14880 0.07400
H 	H 	0.09120 0.91110 0.72170 0.00200
H 	H 	0.55360 0.00190 0.69440 0.03600
H 	H 	0.79450 0.18230 0.12450 0.05700
H 	H 	0.49410 0.02220 0.09370 0.07100
H 	H 	0.93700 0.68790 0.51060 0.04700
H 	H 	0.74730 0.29620 0.89240 0.00200
H 	H 	0.95550 0.50780 0.10770 0.07000
H 	H 	0.59120 0.08890 0.77830 0.00300
H 	H 	0.33600 0.71070 0.35120 0.07000
H 	H 	0.07110 0.17750 0.56520 0.04300
H 	H 	0.06300 0.31210 0.48940 0.04700
H 	H 	0.70260 0.71860 0.95780 0.06100
H 	H 	0.98000 0.88500 0.32480 -0.01200
H 	H 	0.37020 0.96570 0.11740 0.06800
H 	H 	0.92890 0.82250 0.43480 0.04300
H 	H 	0.28340 0.67630 0.44710 0.04900
H 	H 	0.90880 0.08890 0.27830 0.00200
H 	H 	0.69860 0.22880 0.96990 0.08600
H 	H 	0.24730 0.70380 0.60760 0.00400
H 	H 	0.07410 0.78770 0.93020 0.06900
H 	H 	0.70550 0.18230 0.62450 0.06100
H 	H 	0.64020 0.64370 0.16930 -0.01600
H 	H 	0.95890 0.54320 0.40610 0.05100
H 	H 	0.92590 0.21230 0.06980 0.06900
H 	H 	0.80140 0.22880 0.46990 0.08200
H 	H 	0.94640 0.00190 0.19440 0.03100
H 	H 	0.42590 0.78770 0.43020 0.07100
H 	H 	0.40880 0.91110 0.22170 0.00300
H 	H 	0.00590 0.02220 0.59370 0.07100
H 	H 	0.77390 0.91460 0.97250 0.06200
H 	H 	0.29450 0.81770 0.37550 0.06100
H 	H 	0.45890 0.45680 0.09390 0.05200
H 	H 	0.23740 0.59490 0.07110 0.04200
H 	H 	0.27390 0.08540 0.52750 0.06100
H 	H 	0.04450 0.49220 0.89230 0.07000
H 	H 	0.14020 0.35630 0.33070 -0.01700
H 	H 	0.57410 0.21230 0.56980 0.07100
H 	H 	0.79220 0.57330 0.99300 0.05800
H 	H 	0.66400 0.28930 0.64880 0.07000
H 	H 	0.22610 0.08540 0.02750 0.06200
H 	H 	0.12980 0.96570 0.61740 0.06800
H 	H 	0.48000 0.11500 0.17520 -0.01000
H 	H 	0.05360 0.99810 0.80560 0.03100
H 	H 	0.43700 0.31210 0.98940 0.04300
H 	H 	0.29220 0.42670 0.50700 0.05900
H 	H 	0.04600 0.91940 0.05600 0.06500
H 	H 	0.70780 0.57330 0.49300 0.05900
H 	H 	0.06580 0.64910 0.40420 0.05500
H 	H 	0.93420 0.35090 0.59580 0.05500
H 	H 	0.85980 0.64370 0.66930 -0.01700
H 	H 	0.30140 0.77120 0.03010 0.08600
H 	H 	0.54450 0.50780 0.60770 0.07200
C 	C 	0.27190 0.79090 0.40821 -0.09900
C 	C 	0.47110 0.95260 0.53360 -0.07900
C 	C 	0.50720 0.73284 0.82564 0.33800
C 	C 	0.63570 0.80190 0.06148 0.34000
C 	C 	0.36510 0.05040 0.51680 -0.07000
C 	C 	0.47000 0.08340 0.74690 0.00900
C 	C 	0.45520 0.28550 0.02236 -0.06300
C 	C 	0.47610 0.47427 0.05590 -0.07800
C 	C 	0.15940 0.00620 0.60680 -0.13100
C 	C 	0.18320 0.46510 0.88910 -0.12500
C 	C 	0.99280 0.73284 0.32564 0.31800
C 	C 	0.77190 0.20910 0.09179 -0.09000
C 	C 	0.58100 0.18240 0.04291 -0.04400
C 	C 	0.36570 0.68640 0.92600 -0.07100
C 	C 	0.84680 0.51790 0.55230 0.06100
C 	C 	0.38040 0.61770 0.59520 -0.02100
C 	C 	0.13430 0.68640 0.42600 -0.06500
C 	C 	0.04160 0.77655 0.50929 -0.13600
C 	C 	0.55000 0.96490 0.29940 -0.01800
C 	C 	0.68320 0.53490 0.61090 -0.12700
C 	C 	0.65940 0.99380 0.89320 -0.13000
C 	C 	0.70910 0.64550 0.64940 0.08400
C 	C 	0.54480 0.71450 0.97764 -0.06300
C 	C 	0.11960 0.61770 0.09520 -0.01800
C 	C 	0.84060 0.99380 0.39320 -0.13100
C 	C 	0.87410 0.32190 0.88460 0.01400
C 	C 	0.82470 0.54370 0.49610 -0.07300
C 	C 	0.79090 0.64550 0.14940 0.08300
C 	C 	0.05000 0.03510 0.20060 -0.01100
C 	C 	0.29090 0.35450 0.35060 0.08400
C 	C 	0.52890 0.04740 0.46640 -0.07900
C 	C 	0.61960 0.38230 0.40480 -0.02100
C 	C 	0.33370 0.00270 0.55150 0.06400
C 	C 	0.45000 0.03510 0.70060 -0.01800
C 	C 	0.88040 0.38230 0.90480 -0.01800
C 	C 	0.00720 0.26716 0.67436 0.31800
C 	C 	0.97000 0.91660 0.75310 0.00800
C 	C 	0.95520 0.71450 0.47764 -0.07900
C 	C 	0.13490 0.05040 0.01680 -0.07300
C 	C 	0.20910 0.35450 0.85060 0.08300
C 	C 	0.04480 0.28550 0.52236 -0.07900
C 	C 	0.54160 0.22345 0.99071 -0.14600
C 	C 	0.52390 0.52573 0.94410 -0.07800
C 	C 	0.95000 0.96490 0.79940 -0.01100
C 	C 	0.15320 0.48210 0.44770 0.06100
C 	C 	0.81680 0.53490 0.11090 -0.12500
C 	C 	0.63430 0.31360 0.07400 -0.07100
C 	C 	0.86570 0.31360 0.57400 -0.06500
C 	C 	0.80560 0.27170 0.62461 -0.10600
C 	C 	0.69440 0.27170 0.12461 -0.11900
C 	C 	0.97610 0.52573 0.44410 -0.07900
C 	C 	0.19440 0.72830 0.37539 -0.10600
C 	C 	0.83370 0.99730 0.94850 0.06400
C 	C 	0.66630 0.99730 0.44850 0.06400
C 	C 	0.37410 0.67810 0.61540 0.00700
C 	C 	0.02390 0.47427 0.55590 -0.07900
C 	C 	0.03000 0.08340 0.24690 0.00800
C 	C 	0.45840 0.77655 0.00929 -0.14600
C 	C 	0.95840 0.22345 0.49071 -0.13600
C 	C 	0.86510 0.94960 0.98320 -0.07300
C 	C 	0.49280 0.26716 0.17436 0.33800
C 	C 	0.22810 0.79090 0.90821 -0.09000
C 	C 	0.34060 0.00620 0.10680 -0.13000
C 	C 	0.08100 0.81760 0.45709 -0.03200
C 	C 	0.86430 0.80190 0.56148 0.33400
C 	C 	0.41900 0.81760 0.95709 -0.04400
C 	C 	0.97110 0.04740 0.96640 -0.07700
C 	C 	0.34170 0.09770 0.19070 0.07700
C 	C 	0.84170 0.90230 0.30930 0.07700
C 	C 	0.91900 0.18240 0.54291 -0.03200
C 	C 	0.12590 0.67810 0.11540 0.01400
C 	C 	0.36430 0.19810 0.93852 0.34000
C 	C 	0.62590 0.32190 0.38460 0.00700
C 	C 	0.17530 0.45630 0.50390 -0.07300
C 	C 	0.72810 0.20910 0.59179 -0.09900
C 	C 	0.02890 0.95260 0.03360 -0.07700
C 	C 	0.32470 0.45630 0.00390 -0.07200
C 	C 	0.16630 0.00270 0.05150 0.06400
C 	C 	0.13570 0.19810 0.43852 0.33400
C 	C 	0.67530 0.54370 0.99610 -0.07200
C 	C 	0.31680 0.46510 0.38910 -0.12700
C 	C 	0.65320 0.51790 0.05230 0.05900
C 	C 	0.30560 0.72830 0.87539 -0.11900
C 	C 	0.15830 0.09770 0.69070 0.07700
C 	C 	0.53000 0.91660 0.25310 0.00900
C 	C 	0.34680 0.48210 0.94770 0.05900
C 	C 	0.63490 0.94960 0.48320 -0.07000
C 	C 	0.65830 0.90230 0.80930 0.07700
N 	N 	0.24890 0.04426 0.66456 -0.10600
N 	N 	0.41720 0.30417 0.35083 -0.24400
N 	N 	0.21520 0.12315 0.24049 -0.24900
N 	N 	0.25110 0.04426 0.16456 -0.10600
N 	N 	0.08280 0.30417 0.85083 -0.24800
N 	N 	0.40500 0.40269 0.38250 -0.10400
N 	N 	0.59500 0.59731 0.61750 -0.10400
N 	N 	0.58280 0.69583 0.64917 -0.24400
N 	N 	0.09500 0.40269 0.88250 -0.10700
N 	N 	0.91720 0.69583 0.14917 -0.24800
N 	N 	0.75110 0.95574 0.33544 -0.10600
N 	N 	0.74890 0.95574 0.83544 -0.10600
N 	N 	0.90500 0.59731 0.11750 -0.10700
N 	N 	0.71520 0.87685 0.25951 -0.25000
N 	N 	0.78480 0.87685 0.75951 -0.24900
N 	N 	0.28480 0.12315 0.74049 -0.25000
O 	O 	0.33970 0.18131 0.45509 -0.31100
O 	O 	0.66030 0.81869 0.54491 -0.31100
O 	O 	0.57170 0.80225 0.12041 -0.46500
O 	O 	0.46420 0.76826 0.78331 -0.45300
O 	O 	0.07170 0.19775 0.37959 -0.46400
O 	O 	0.96420 0.23174 0.71669 -0.44000
O 	O 	0.53580 0.23174 0.21669 -0.45300
O 	O 	0.03580 0.76826 0.28331 -0.44000
O 	O 	0.92830 0.80225 0.62041 -0.46400
O 	O 	0.19760 0.29659 0.67296 -0.30400
O 	O 	0.80240 0.70341 0.32704 -0.30400
O 	O 	0.42830 0.19775 0.87959 -0.46500
O 	O 	0.16030 0.18131 0.95509 -0.31500
O 	O 	0.69760 0.70341 0.82704 -0.30800
O 	O 	0.83970 0.81869 0.04491 -0.31500
O 	O 	0.30240 0.29659 0.17296 -0.30800
