data_crystal

_cell_length_a 8.81100
_cell_length_b 10.95100
_cell_length_c 21.94400
_cell_angle_alpha 77.15200
_cell_angle_beta  87.70300
_cell_angle_gamma 78.25100

_symmetry_space_group_name_	'P 1'
_symmetry_space_group_name_H-M	'P 1'

loop_
_symmetry_equiv_pos_as_xyz
  x,y,z

loop_
_atom_site_label
_atom_site_type_symbol
_atom_site_fract_x
_atom_site_fract_y
_atom_site_fract_z
_atom_site_charge
Yb	Yb	0.28680 0.46580 0.49518 1.51100
Yb	Yb	0.71320 0.53420 0.50482 1.51100
H 	H 	0.93770 0.18420 0.98490 0.07500
H 	H 	0.93220 0.79120 0.92990 0.09000
H 	H 	0.31300 0.11270 0.96040 0.08400
H 	H 	0.69390 0.53840 0.33730 -0.07400
H 	H 	0.06230 0.81580 0.01510 0.07400
H 	H 	0.89070 0.93460 0.93760 0.08200
H 	H 	0.61280 0.89970 0.37380 0.01500
H 	H 	0.26970 0.25730 0.96620 0.08400
H 	H 	0.40420 0.70600 0.78980 0.17200
H 	H 	0.70260 0.11280 0.78550 0.10000
H 	H 	0.42960 0.01410 0.13850 0.08100
H 	H 	0.35840 0.98690 0.72580 0.09800
H 	H 	0.06780 0.20880 0.07010 0.08900
H 	H 	0.27580 0.60060 0.87430 0.16400
H 	H 	0.73030 0.74270 0.03380 0.08400
H 	H 	0.88760 0.85410 0.21450 0.10700
H 	H 	0.74060 0.21990 0.68460 0.01300
H 	H 	0.57040 0.98590 0.86150 0.08100
H 	H 	0.38720 0.10030 0.62620 0.01500
H 	H 	0.86680 0.90250 0.87210 0.09000
H 	H 	0.25940 0.78010 0.31540 0.01300
H 	H 	0.93960 0.50650 0.15050 -0.02700
H 	H 	0.44170 0.13710 0.04630 0.07300
H 	H 	0.30280 0.92460 0.82530 0.04000
H 	H 	0.59580 0.29400 0.21020 0.17200
H 	H 	0.83640 0.77870 0.31780 0.00200
H 	H 	0.13320 0.09750 0.12790 0.09000
H 	H 	0.52100 0.71670 0.69370 -0.05100
H 	H 	0.32790 0.70840 0.14050 0.04700
H 	H 	0.29740 0.88720 0.21450 0.10000
H 	H 	0.11240 0.14590 0.78550 0.10700
H 	H 	0.79950 0.50920 0.67290 0.01200
H 	H 	0.25160 0.22160 0.90110 0.08800
H 	H 	0.80820 0.55620 0.24190 0.19200
H 	H 	0.30610 0.46160 0.66270 -0.07400
H 	H 	0.97960 0.17910 0.88450 0.08000
H 	H 	0.24630 0.56210 0.22090 0.10800
H 	H 	0.47900 0.28330 0.30630 -0.05100
H 	H 	0.69720 0.07540 0.17470 0.04000
H 	H 	0.64160 0.01310 0.27420 0.09800
H 	H 	0.74840 0.77840 0.09890 0.08800
H 	H 	0.10930 0.06540 0.06240 0.08200
H 	H 	0.19180 0.44380 0.75810 0.19200
H 	H 	0.75370 0.43790 0.77910 0.10800
H 	H 	0.02040 0.82090 0.11550 0.08000
H 	H 	0.55830 0.86290 0.95370 0.07300
H 	H 	0.72420 0.39940 0.12570 0.16400
H 	H 	0.20050 0.49080 0.32710 0.01200
H 	H 	0.68700 0.88730 0.03960 0.08400
H 	H 	0.06040 0.49350 0.84950 -0.02700
H 	H 	0.16360 0.22130 0.68220 0.00200
H 	H 	0.67210 0.29160 0.85950 0.04700
C 	C 	0.19320 0.86430 0.93970 0.11100
C 	C 	0.38600 0.65160 0.76440 -0.41100
C 	C 	0.36300 0.46200 0.08840 0.06400
C 	C 	0.95200 0.78010 0.23720 -0.21200
C 	C 	0.06850 0.12060 0.09070 -0.17700
C 	C 	0.45300 0.10330 0.65830 0.10100
C 	C 	0.63700 0.53800 0.91160 0.06400
C 	C 	0.27320 0.79570 0.04790 -0.00000
C 	C 	0.31330 0.20030 0.93900 -0.17100
C 	C 	0.61400 0.34840 0.23560 -0.41100
C 	C 	0.54700 0.89670 0.34170 0.10100
C 	C 	0.98500 0.37100 0.66920 -0.18300
C 	C 	0.07620 0.71860 0.20750 0.15600
C 	C 	0.45690 0.85400 0.96580 -0.11800
C 	C 	0.92380 0.28140 0.79250 0.15600
C 	C 	0.41900 0.74100 0.42040 0.38200
C 	C 	0.75690 0.24740 0.88550 -0.00400
C 	C 	0.06300 0.51720 0.94080 -0.11400
C 	C 	0.65900 0.17470 0.69260 0.10400
C 	C 	0.93150 0.87940 0.90930 -0.17700
C 	C 	0.43500 0.03680 0.71810 -0.19100
C 	C 	0.45300 0.66000 0.70680 0.30000
C 	C 	0.99200 0.57800 0.40250 0.43900
C 	C 	0.34100 0.82530 0.30740 0.10400
C 	C 	0.65540 0.11860 0.07880 -0.00600
C 	C 	0.52360 0.03990 0.76670 0.15600
C 	C 	0.84190 0.50520 0.00920 -0.01400
C 	C 	0.29380 0.56700 0.78550 0.39800
C 	C 	0.90400 0.52130 0.94850 0.12500
C 	C 	0.01500 0.62900 0.33080 -0.18300
C 	C 	0.89500 0.22840 0.85950 -0.13900
C 	C 	0.80680 0.13570 0.06030 0.11100
C 	C 	0.50380 0.01570 0.16780 -0.14100
C 	C 	0.24310 0.75260 0.11450 -0.00400
C 	C 	0.86300 0.43560 0.69630 0.10700
C 	C 	0.58100 0.25900 0.57960 0.38200
C 	C 	0.49620 0.98430 0.83220 -0.14100
C 	C 	0.47640 0.96010 0.23330 0.15600
C 	C 	0.49700 0.58400 0.60300 0.44900
C 	C 	0.04800 0.21990 0.76280 -0.21200
C 	C 	0.68670 0.79970 0.06100 -0.17100
C 	C 	0.09600 0.47870 0.05150 0.12500
C 	C 	0.16500 0.60840 0.24080 -0.19500
C 	C 	0.12000 0.52530 0.87460 0.22900
C 	C 	0.10500 0.77160 0.14050 -0.13900
C 	C 	0.26100 0.50000 0.74650 -0.43800
C 	C 	0.73900 0.50000 0.25350 -0.43800
C 	C 	0.88000 0.47470 0.12540 0.22900
C 	C 	0.16400 0.82390 0.00300 -0.12400
C 	C 	0.63800 0.10920 0.75320 -0.18900
C 	C 	0.07900 0.26400 0.70180 0.12400
C 	C 	0.83500 0.39160 0.75920 -0.19500
C 	C 	0.83600 0.17610 0.99700 -0.12400
C 	C 	0.54310 0.14600 0.03420 -0.11800
C 	C 	0.56800 0.17510 0.64550 -0.15400
C 	C 	0.50300 0.41600 0.39700 0.44900
C 	C 	0.42300 0.58700 0.66840 -0.34000
C 	C 	0.72680 0.20430 0.95210 -0.00000
C 	C 	0.62570 0.06920 0.14550 -0.00900
C 	C 	0.15810 0.49480 0.99080 -0.01400
C 	C 	0.42470 0.81250 0.02980 0.11200
C 	C 	0.36200 0.89080 0.24680 -0.18900
C 	C 	0.54700 0.34000 0.29320 0.30000
C 	C 	0.00800 0.42200 0.59750 0.43900
C 	C 	0.13700 0.56440 0.30370 0.10700
C 	C 	0.56500 0.96320 0.28190 -0.19100
C 	C 	0.22300 0.56310 0.84930 -0.38900
C 	C 	0.33000 0.51200 0.68910 0.33500
C 	C 	0.93700 0.48280 0.05920 -0.11400
C 	C 	0.92100 0.73600 0.29820 0.12400
C 	C 	0.34460 0.88140 0.92120 -0.00600
C 	C 	0.67000 0.48800 0.31090 0.33500
C 	C 	0.57700 0.41300 0.33160 -0.34000
C 	C 	0.43200 0.82490 0.35450 -0.15400
C 	C 	0.70620 0.43300 0.21450 0.39800
C 	C 	0.77700 0.43690 0.15070 -0.38900
C 	C 	0.37430 0.93080 0.85450 -0.00900
C 	C 	0.57530 0.18750 0.97020 0.11200
O 	O 	0.13500 0.37600 0.57650 -0.44300
O 	O 	0.53180 0.78590 0.07640 -0.17800
O 	O 	0.80000 0.53740 0.90050 -0.21600
O 	O 	0.46430 0.28210 0.54500 -0.41300
O 	O 	0.53570 0.71790 0.45500 -0.41300
O 	O 	0.30300 0.68900 0.42750 -0.39400
O 	O 	0.20000 0.46260 0.09950 -0.21600
O 	O 	0.57100 0.45940 0.43450 -0.50500
O 	O 	0.08800 0.49290 0.43200 -0.49800
O 	O 	0.69700 0.31100 0.57250 -0.39400
O 	O 	0.39800 0.36000 0.40700 -0.40100
O 	O 	0.42900 0.54060 0.56550 -0.50500
O 	O 	0.91200 0.50710 0.56800 -0.49800
O 	O 	0.60200 0.64000 0.59300 -0.40100
O 	O 	0.46820 0.21410 0.92360 -0.17800
O 	O 	0.08620 0.89390 0.89200 -0.18000
O 	O 	0.86500 0.62400 0.42350 -0.44300
O 	O 	0.91380 0.10610 0.10800 -0.18000
