data_crystal

_cell_length_a 15.95680
_cell_length_b 29.32900
_cell_length_c 28.65700
_cell_angle_alpha 90.00000
_cell_angle_beta  90.00000
_cell_angle_gamma 90.00000

_symmetry_space_group_name_	'P 1'
_symmetry_space_group_name_H-M	'P 1'

loop_
_symmetry_equiv_pos_as_xyz
  x,y,z

loop_
_atom_site_label
_atom_site_type_symbol
_atom_site_fract_x
_atom_site_fract_y
_atom_site_fract_z
_atom_site_charge
C 	C 	0.31490 0.20147 0.93789 0.37000
O 	O 	0.24570 0.18981 0.95199 -0.39900
O 	O 	0.35800 0.23645 0.95196 -0.38100
C 	C 	0.46600 0.04994 0.78568 0.15100
C 	C 	0.46360 0.09764 0.78693 -0.08900
C 	C 	0.31460 0.13614 0.88171 0.07700
H 	H 	0.26400 0.12670 0.89460 0.03100
C 	C 	0.35370 0.17511 0.89880 -0.12600
C 	C 	0.42990 0.18697 0.88033 0.07700
H 	H 	0.45780 0.21230 0.89220 0.03000
C 	C 	0.35070 0.11091 0.84534 -0.15300
H 	H 	0.32260 0.08550 0.83370 0.11100
C 	C 	0.42720 0.12301 0.82637 0.13500
C 	C 	0.46730 0.16187 0.84380 -0.15600
H 	H 	0.51830 0.17110 0.83140 0.09600
O 	O 	0.42760 0.02817 0.82291 -0.16500
C 	C 	0.81490 0.70147 0.93789 0.36900
O 	O 	0.74570 0.68981 0.95199 -0.40000
O 	O 	0.85800 0.73645 0.95196 -0.38200
C 	C 	0.96600 0.54994 0.78568 0.15100
C 	C 	0.96360 0.59764 0.78693 -0.08900
C 	C 	0.81460 0.63614 0.88171 0.07800
H 	H 	0.76400 0.62670 0.89460 0.03100
C 	C 	0.85370 0.67511 0.89880 -0.12600
C 	C 	0.92990 0.68697 0.88033 0.07700
H 	H 	0.95780 0.71230 0.89220 0.02900
C 	C 	0.85070 0.61091 0.84534 -0.15300
H 	H 	0.82260 0.58550 0.83370 0.11100
C 	C 	0.92720 0.62301 0.82637 0.13500
C 	C 	0.96730 0.66187 0.84380 -0.15600
H 	H 	0.01830 0.67110 0.83140 0.09600
O 	O 	0.92760 0.52817 0.82291 -0.16500
C 	C 	0.68510 0.79853 0.93789 0.36900
O 	O 	0.75430 0.81019 0.95199 -0.40000
O 	O 	0.64200 0.76355 0.95196 -0.38100
C 	C 	0.53400 0.95006 0.78568 0.15100
C 	C 	0.53640 0.90236 0.78693 -0.08900
C 	C 	0.68540 0.86386 0.88171 0.07700
H 	H 	0.73600 0.87330 0.89460 0.03100
C 	C 	0.64630 0.82489 0.89880 -0.12600
C 	C 	0.57010 0.81303 0.88033 0.07700
H 	H 	0.54220 0.78770 0.89220 0.03000
C 	C 	0.64930 0.88909 0.84534 -0.15300
H 	H 	0.67740 0.91450 0.83370 0.11100
C 	C 	0.57280 0.87699 0.82637 0.13500
C 	C 	0.53270 0.83813 0.84380 -0.15600
H 	H 	0.48170 0.82890 0.83140 0.09600
O 	O 	0.57240 0.97183 0.82291 -0.16500
C 	C 	0.18510 0.29853 0.93789 0.36900
O 	O 	0.25430 0.31019 0.95199 -0.40000
O 	O 	0.14200 0.26355 0.95196 -0.38200
C 	C 	0.03400 0.45006 0.78568 0.15100
C 	C 	0.03640 0.40236 0.78693 -0.08900
C 	C 	0.18540 0.36386 0.88171 0.07700
H 	H 	0.23600 0.37330 0.89460 0.03100
C 	C 	0.14630 0.32489 0.89880 -0.12500
C 	C 	0.07010 0.31303 0.88033 0.07600
H 	H 	0.04220 0.28770 0.89220 0.03000
C 	C 	0.14930 0.38909 0.84534 -0.15300
H 	H 	0.17740 0.41450 0.83370 0.11100
C 	C 	0.07280 0.37699 0.82637 0.13500
C 	C 	0.03270 0.33813 0.84380 -0.15500
H 	H 	0.98170 0.32890 0.83140 0.09500
O 	O 	0.07240 0.47183 0.82291 -0.16500
C 	C 	0.68510 0.20147 0.56211 0.37200
O 	O 	0.75430 0.18981 0.54801 -0.41700
O 	O 	0.64200 0.23645 0.54804 -0.39800
C 	C 	0.53400 0.04994 0.71432 0.15200
C 	C 	0.53640 0.09764 0.71307 -0.09000
C 	C 	0.68540 0.13614 0.61829 0.08000
H 	H 	0.73600 0.12670 0.60540 0.02600
C 	C 	0.64630 0.17511 0.60120 -0.13300
C 	C 	0.57010 0.18697 0.61967 0.07900
H 	H 	0.54220 0.21230 0.60780 0.02500
C 	C 	0.64930 0.11091 0.65466 -0.15700
H 	H 	0.67740 0.08550 0.66630 0.11000
C 	C 	0.57280 0.12301 0.67363 0.13600
C 	C 	0.53270 0.16187 0.65620 -0.16000
H 	H 	0.48170 0.17110 0.66860 0.09500
O 	O 	0.57240 0.02817 0.67709 -0.16900
C 	C 	0.18510 0.70147 0.56211 0.37200
O 	O 	0.25430 0.68981 0.54801 -0.41700
O 	O 	0.14200 0.73645 0.54804 -0.39800
C 	C 	0.03400 0.54994 0.71432 0.15200
C 	C 	0.03640 0.59764 0.71307 -0.09000
C 	C 	0.18540 0.63614 0.61829 0.08000
H 	H 	0.23600 0.62670 0.60540 0.02600
C 	C 	0.14630 0.67511 0.60120 -0.13200
C 	C 	0.07010 0.68697 0.61967 0.07900
H 	H 	0.04220 0.71230 0.60780 0.02500
C 	C 	0.14930 0.61091 0.65466 -0.15700
H 	H 	0.17740 0.58550 0.66630 0.11000
C 	C 	0.07280 0.62301 0.67363 0.13600
C 	C 	0.03270 0.66187 0.65620 -0.15900
H 	H 	0.98170 0.67110 0.66860 0.09500
O 	O 	0.07240 0.52817 0.67709 -0.16900
C 	C 	0.31490 0.79853 0.56211 0.37200
O 	O 	0.24570 0.81019 0.54801 -0.41700
O 	O 	0.35800 0.76355 0.54804 -0.39800
C 	C 	0.46600 0.95006 0.71432 0.15200
C 	C 	0.46360 0.90236 0.71307 -0.09000
C 	C 	0.31460 0.86386 0.61829 0.08000
H 	H 	0.26400 0.87330 0.60540 0.02600
C 	C 	0.35370 0.82489 0.60120 -0.13300
C 	C 	0.42990 0.81303 0.61967 0.07900
H 	H 	0.45780 0.78770 0.60780 0.02500
C 	C 	0.35070 0.88909 0.65466 -0.15700
H 	H 	0.32260 0.91450 0.66630 0.11100
C 	C 	0.42720 0.87699 0.67363 0.13600
C 	C 	0.46730 0.83813 0.65620 -0.16000
H 	H 	0.51830 0.82890 0.66860 0.09500
O 	O 	0.42760 0.97183 0.67709 -0.16900
C 	C 	0.81490 0.29853 0.56211 0.37200
O 	O 	0.74570 0.31019 0.54801 -0.41700
O 	O 	0.85800 0.26355 0.54804 -0.39800
C 	C 	0.96600 0.45006 0.71432 0.15100
C 	C 	0.96360 0.40236 0.71307 -0.09000
C 	C 	0.81460 0.36386 0.61829 0.08000
H 	H 	0.76400 0.37330 0.60540 0.02600
C 	C 	0.85370 0.32489 0.60120 -0.13300
C 	C 	0.92990 0.31303 0.61967 0.08000
H 	H 	0.95780 0.28770 0.60780 0.02400
C 	C 	0.85070 0.38909 0.65466 -0.15700
H 	H 	0.82260 0.41450 0.66630 0.11100
C 	C 	0.92720 0.37699 0.67363 0.13700
C 	C 	0.96730 0.33813 0.65620 -0.16100
H 	H 	0.01830 0.32890 0.66860 0.09600
O 	O 	0.92760 0.47183 0.67709 -0.16900
C 	C 	0.68510 0.79853 0.06211 0.37200
O 	O 	0.75430 0.81019 0.04801 -0.42600
O 	O 	0.64200 0.76355 0.04804 -0.40700
C 	C 	0.53400 0.95006 0.21432 0.15200
C 	C 	0.53640 0.90236 0.21307 -0.09300
C 	C 	0.68540 0.86386 0.11829 0.08100
H 	H 	0.73600 0.87330 0.10540 0.02100
C 	C 	0.64630 0.82489 0.10120 -0.13800
C 	C 	0.57010 0.81303 0.11967 0.08100
H 	H 	0.54220 0.78770 0.10780 0.02000
C 	C 	0.64930 0.88909 0.15466 -0.16100
H 	H 	0.67740 0.91450 0.16630 0.10900
C 	C 	0.57280 0.87699 0.17363 0.13700
C 	C 	0.53270 0.83813 0.15620 -0.16400
H 	H 	0.48170 0.82890 0.16860 0.09400
O 	O 	0.57240 0.97183 0.17709 -0.17300
C 	C 	0.18510 0.29853 0.06211 0.37200
O 	O 	0.25430 0.31019 0.04801 -0.42600
O 	O 	0.14200 0.26355 0.04804 -0.40700
C 	C 	0.03400 0.45006 0.21432 0.15200
C 	C 	0.03640 0.40236 0.21307 -0.09300
C 	C 	0.18540 0.36386 0.11829 0.08100
H 	H 	0.23600 0.37330 0.10540 0.02100
C 	C 	0.14630 0.32489 0.10120 -0.13800
C 	C 	0.07010 0.31303 0.11967 0.08000
H 	H 	0.04220 0.28770 0.10780 0.02000
C 	C 	0.14930 0.38909 0.15466 -0.16100
H 	H 	0.17740 0.41450 0.16630 0.10900
C 	C 	0.07280 0.37699 0.17363 0.13700
C 	C 	0.03270 0.33813 0.15620 -0.16300
H 	H 	0.98170 0.32890 0.16860 0.09400
O 	O 	0.07240 0.47183 0.17709 -0.17300
C 	C 	0.31490 0.20147 0.06211 0.37200
O 	O 	0.24570 0.18981 0.04801 -0.42600
O 	O 	0.35800 0.23645 0.04804 -0.40800
C 	C 	0.46600 0.04994 0.21432 0.15200
C 	C 	0.46360 0.09764 0.21307 -0.09300
C 	C 	0.31460 0.13614 0.11829 0.08100
H 	H 	0.26400 0.12670 0.10540 0.02100
C 	C 	0.35370 0.17511 0.10120 -0.13800
C 	C 	0.42990 0.18697 0.11967 0.08100
H 	H 	0.45780 0.21230 0.10780 0.02000
C 	C 	0.35070 0.11091 0.15466 -0.16100
H 	H 	0.32260 0.08550 0.16630 0.10900
C 	C 	0.42720 0.12301 0.17363 0.13700
C 	C 	0.46730 0.16187 0.15620 -0.16400
H 	H 	0.51830 0.17110 0.16860 0.09400
O 	O 	0.42760 0.02817 0.17709 -0.17300
C 	C 	0.81490 0.70147 0.06211 0.37200
O 	O 	0.74570 0.68981 0.04801 -0.42600
O 	O 	0.85800 0.73645 0.04804 -0.40700
C 	C 	0.96600 0.54994 0.21432 0.15200
C 	C 	0.96360 0.59764 0.21307 -0.09300
C 	C 	0.81460 0.63614 0.11829 0.08100
H 	H 	0.76400 0.62670 0.10540 0.02100
C 	C 	0.85370 0.67511 0.10120 -0.13900
C 	C 	0.92990 0.68697 0.11967 0.08100
H 	H 	0.95780 0.71230 0.10780 0.02000
C 	C 	0.85070 0.61091 0.15466 -0.16100
H 	H 	0.82260 0.58550 0.16630 0.10900
C 	C 	0.92720 0.62301 0.17363 0.13700
C 	C 	0.96730 0.66187 0.15620 -0.16400
H 	H 	0.01830 0.67110 0.16860 0.09400
O 	O 	0.92760 0.52817 0.17709 -0.17300
C 	C 	0.31490 0.79853 0.43789 0.37200
O 	O 	0.24570 0.81019 0.45199 -0.41700
O 	O 	0.35800 0.76355 0.45196 -0.39900
C 	C 	0.46600 0.95006 0.28568 0.15200
C 	C 	0.46360 0.90236 0.28693 -0.09200
C 	C 	0.31460 0.86386 0.38171 0.08000
H 	H 	0.26400 0.87330 0.39460 0.02500
C 	C 	0.35370 0.82489 0.39880 -0.13300
C 	C 	0.42990 0.81303 0.38033 0.07900
H 	H 	0.45780 0.78770 0.39220 0.02400
C 	C 	0.35070 0.88909 0.34534 -0.15800
H 	H 	0.32260 0.91450 0.33370 0.11000
C 	C 	0.42720 0.87699 0.32637 0.13600
C 	C 	0.46730 0.83813 0.34380 -0.16000
H 	H 	0.51830 0.82890 0.33140 0.09500
O 	O 	0.42760 0.97183 0.32291 -0.16900
C 	C 	0.81490 0.29853 0.43789 0.37200
O 	O 	0.74570 0.31019 0.45199 -0.41700
O 	O 	0.85800 0.26355 0.45196 -0.39900
C 	C 	0.96600 0.45006 0.28568 0.15200
C 	C 	0.96360 0.40236 0.28693 -0.09200
C 	C 	0.81460 0.36386 0.38171 0.08000
H 	H 	0.76400 0.37330 0.39460 0.02500
C 	C 	0.85370 0.32489 0.39880 -0.13300
C 	C 	0.92990 0.31303 0.38033 0.08000
H 	H 	0.95780 0.28770 0.39220 0.02400
C 	C 	0.85070 0.38909 0.34534 -0.15800
H 	H 	0.82260 0.41450 0.33370 0.11000
C 	C 	0.92720 0.37699 0.32637 0.13700
C 	C 	0.96730 0.33813 0.34380 -0.16100
H 	H 	0.01830 0.32890 0.33140 0.09500
O 	O 	0.92760 0.47183 0.32291 -0.16900
C 	C 	0.68510 0.20147 0.43789 0.37200
O 	O 	0.75430 0.18981 0.45199 -0.41700
O 	O 	0.64200 0.23645 0.45196 -0.39900
C 	C 	0.53400 0.04994 0.28568 0.15200
C 	C 	0.53640 0.09764 0.28693 -0.09200
C 	C 	0.68540 0.13614 0.38171 0.08000
H 	H 	0.73600 0.12670 0.39460 0.02500
C 	C 	0.64630 0.17511 0.39880 -0.13300
C 	C 	0.57010 0.18697 0.38033 0.07900
H 	H 	0.54220 0.21230 0.39220 0.02400
C 	C 	0.64930 0.11091 0.34534 -0.15800
H 	H 	0.67740 0.08550 0.33370 0.11000
C 	C 	0.57280 0.12301 0.32637 0.13600
C 	C 	0.53270 0.16187 0.34380 -0.16000
H 	H 	0.48170 0.17110 0.33140 0.09500
O 	O 	0.57240 0.02817 0.32291 -0.16900
C 	C 	0.18510 0.70147 0.43789 0.37200
O 	O 	0.25430 0.68981 0.45199 -0.41700
O 	O 	0.14200 0.73645 0.45196 -0.39900
C 	C 	0.03400 0.54994 0.28568 0.15200
C 	C 	0.03640 0.59764 0.28693 -0.09200
C 	C 	0.18540 0.63614 0.38171 0.07900
H 	H 	0.23600 0.62670 0.39460 0.02600
C 	C 	0.14630 0.67511 0.39880 -0.13300
C 	C 	0.07010 0.68697 0.38033 0.07900
H 	H 	0.04220 0.71230 0.39220 0.02400
C 	C 	0.14930 0.61091 0.34534 -0.15700
H 	H 	0.17740 0.58550 0.33370 0.10900
C 	C 	0.07280 0.62301 0.32637 0.13600
C 	C 	0.03270 0.66187 0.34380 -0.16000
H 	H 	0.98170 0.67110 0.33140 0.09400
O 	O 	0.07240 0.52817 0.32291 -0.16900
Cu	Cu	0.18503 0.22270 -0.00000 0.89300
Cu	Cu	0.68503 0.72270 -0.00000 0.89300
Cu	Cu	0.81497 0.77730 -0.00000 0.89300
Cu	Cu	0.31497 0.27730 -0.00000 0.89300
Cu	Cu	0.81497 0.22270 0.50000 0.90800
Cu	Cu	0.31497 0.72270 0.50000 0.90800
Cu	Cu	0.18503 0.77730 0.50000 0.90800
Cu	Cu	0.68503 0.27730 0.50000 0.90800
C 	C 	0.50000 0.02573 0.75000 -0.05000
C 	C 	0.50000 0.11992 0.75000 0.01600
H 	H 	0.50000 0.15160 0.75000 0.03000
C 	C 	-0.00000 0.52573 0.75000 -0.05000
C 	C 	-0.00000 0.61992 0.75000 0.01600
H 	H 	0.00000 0.65160 0.75000 0.03000
C 	C 	0.50000 0.97427 0.75000 -0.05000
C 	C 	0.50000 0.88008 0.75000 0.01600
H 	H 	0.50000 0.84840 0.75000 0.03000
C 	C 	0.00000 0.47427 0.75000 -0.05000
C 	C 	0.00000 0.38008 0.75000 0.01600
H 	H 	0.00000 0.34840 0.75000 0.03000
C 	C 	0.50000 0.97427 0.25000 -0.05200
C 	C 	0.50000 0.88008 0.25000 0.01700
H 	H 	0.50000 0.84840 0.25000 0.02900
C 	C 	0.00000 0.47427 0.25000 -0.05100
C 	C 	0.00000 0.38008 0.25000 0.01700
H 	H 	0.00000 0.34840 0.25000 0.02900
C 	C 	0.50000 0.02573 0.25000 -0.05200
C 	C 	0.50000 0.11992 0.25000 0.01700
H 	H 	0.50000 0.15160 0.25000 0.02900
C 	C 	0.00000 0.52573 0.25000 -0.05100
C 	C 	-0.00000 0.61992 0.25000 0.01700
H 	H 	0.00000 0.65160 0.25000 0.02900
