data_crystal

_cell_length_a 8.68420
_cell_length_b 9.94200
_cell_length_c 11.73300
_cell_angle_alpha 74.67000
_cell_angle_beta  69.85000
_cell_angle_gamma 86.02000

_symmetry_space_group_name_	'P 1'
_symmetry_space_group_name_H-M	'P 1'

loop_
_symmetry_equiv_pos_as_xyz
  x,y,z

loop_
_atom_site_label
_atom_site_type_symbol
_atom_site_fract_x
_atom_site_fract_y
_atom_site_fract_z
_atom_site_charge
Ce	Ce	0.74555 0.47777 0.51191 2.11300
Ce	Ce	0.25445 0.52223 0.48809 2.11300
H 	H 	0.20460 0.46200 0.83880 0.15400
H 	H 	0.23120 0.30090 0.86340 0.14200
H 	H 	0.37630 0.30720 0.99230 0.02500
H 	H 	0.37780 0.47060 0.95680 0.02100
H 	H 	0.09410 0.29900 0.10330 0.02200
H 	H 	0.08720 0.46200 0.06100 0.01900
H 	H 	0.26650 0.47220 0.17260 0.15100
H 	H 	0.24250 0.31080 0.22620 0.13300
H 	H 	0.97840 0.87650 0.59780 0.02800
H 	H 	0.03670 0.01980 0.60290 0.02900
H 	H 	0.75620 0.98170 0.72030 0.12200
H 	H 	0.72010 0.96760 0.60190 0.11600
H 	H 	0.79540 0.53800 0.16120 0.15400
H 	H 	0.76880 0.69910 0.13660 0.14200
H 	H 	0.62370 0.69280 0.00770 0.02500
H 	H 	0.62220 0.52940 0.04320 0.02100
H 	H 	0.90590 0.70100 0.89670 0.02200
H 	H 	0.91280 0.53800 0.93900 0.01900
H 	H 	0.73350 0.52780 0.82740 0.15100
H 	H 	0.75750 0.68920 0.77380 0.13300
H 	H 	0.02160 0.12350 0.40220 0.02800
H 	H 	0.96330 0.98020 0.39710 0.02900
H 	H 	0.24380 0.01830 0.27970 0.12200
H 	H 	0.27990 0.03240 0.39810 0.11600
C 	C 	0.43100 0.41330 0.74030 0.44000
C 	C 	0.28170 0.38950 0.85260 -0.43300
C 	C 	0.31270 0.38820 0.97150 0.01600
C 	C 	0.15500 0.38510 0.08380 0.02000
C 	C 	0.18870 0.39540 0.19780 -0.42700
C 	C 	0.04760 0.41590 0.30690 0.44500
C 	C 	0.96840 0.97680 0.57140 -0.01800
C 	C 	0.78930 0.01460 0.62960 -0.33600
C 	C 	0.76360 0.17090 0.59390 0.40500
C 	C 	0.56900 0.58670 0.25970 0.44000
C 	C 	0.71830 0.61050 0.14740 -0.43300
C 	C 	0.68730 0.61180 0.02850 0.01600
C 	C 	0.84500 0.61490 0.91620 0.02000
C 	C 	0.81130 0.60460 0.80220 -0.42700
C 	C 	0.95240 0.58410 0.69310 0.44500
C 	C 	0.03160 0.02320 0.42860 -0.01800
C 	C 	0.21070 0.98540 0.37040 -0.33600
C 	C 	0.23640 0.82910 0.40610 0.40500
O 	O 	0.42440 0.45520 0.62800 -0.66800
O 	O 	0.57430 0.39240 0.74840 -0.46300
O 	O 	0.90180 0.38370 0.31580 -0.46100
O 	O 	0.06550 0.46570 0.38930 -0.66300
O 	O 	0.86210 0.25200 0.59970 -0.48200
O 	O 	0.64250 0.21660 0.56010 -0.45000
O 	O 	0.57560 0.54480 0.37200 -0.66800
O 	O 	0.42570 0.60760 0.25160 -0.46300
O 	O 	0.09820 0.61630 0.68420 -0.46100
O 	O 	0.93450 0.53430 0.61070 -0.66300
O 	O 	0.13790 0.74800 0.40030 -0.48200
O 	O 	0.35750 0.78340 0.43990 -0.45000
