data_crystal

_cell_length_a 9.22750
_cell_length_b 9.77100
_cell_length_c 10.69900
_cell_angle_alpha 67.81000
_cell_angle_beta  84.49000
_cell_angle_gamma 61.84000

_symmetry_space_group_name_	'P 1'
_symmetry_space_group_name_H-M	'P 1'

loop_
_symmetry_equiv_pos_as_xyz
  x,y,z

loop_
_atom_site_label
_atom_site_type_symbol
_atom_site_fract_x
_atom_site_fract_y
_atom_site_fract_z
_atom_site_charge
Ce	Ce	0.72285 0.04384 0.98314 2.10100
Ce	Ce	0.27715 0.95616 0.01686 2.10100
H 	H 	0.10120 0.44900 0.13300 0.12900
H 	H 	0.06630 0.46070 0.27580 0.12200
H 	H 	0.88010 0.39700 0.13020 0.03600
H 	H 	0.82810 0.42600 0.26590 0.02600
H 	H 	0.13200 0.16190 0.24810 0.00400
H 	H 	0.07360 0.18890 0.38320 -0.00400
H 	H 	0.85970 0.12690 0.37030 0.16500
H 	H 	0.03330 0.97500 0.37920 0.15400
H 	H 	0.32980 0.09670 0.65120 0.15800
H 	H 	0.38330 0.23110 0.56060 0.15100
H 	H 	0.58700 0.88120 0.62770 0.01400
H 	H 	0.63280 0.01900 0.53150 0.01800
H 	H 	0.89880 0.55100 0.86700 0.12900
H 	H 	0.93370 0.53930 0.72420 0.12200
H 	H 	0.11990 0.60300 0.86980 0.03600
H 	H 	0.17190 0.57400 0.73410 0.02600
H 	H 	0.86800 0.83810 0.75190 0.00400
H 	H 	0.92640 0.81110 0.61680 -0.00400
H 	H 	0.14030 0.87310 0.62970 0.16500
H 	H 	0.96670 0.02500 0.62080 0.15400
H 	H 	0.67020 0.90330 0.34880 0.15800
H 	H 	0.61670 0.76890 0.43940 0.15100
H 	H 	0.41300 0.11880 0.37230 0.01400
H 	H 	0.36720 0.98100 0.46850 0.01800
C 	C 	0.90600 0.67270 0.12270 0.37000
C 	C 	0.01430 0.48510 0.19000 -0.33600
C 	C 	0.92160 0.38420 0.21600 -0.05200
C 	C 	0.03580 0.20040 0.29650 0.07800
C 	C 	0.95580 0.08860 0.32180 -0.46700
C 	C 	0.90340 0.08670 0.19310 0.48700
C 	C 	0.51060 0.09450 0.74890 0.46800
C 	C 	0.42380 0.11670 0.62570 -0.43600
C 	C 	0.54170 0.99480 0.56040 0.02200
C 	C 	0.09400 0.32730 0.87730 0.37000
C 	C 	0.98570 0.51490 0.81000 -0.33600
C 	C 	0.07840 0.61580 0.78400 -0.05200
C 	C 	0.96420 0.79960 0.70350 0.07800
C 	C 	0.04420 0.91140 0.67820 -0.46700
C 	C 	0.09660 0.91330 0.80690 0.48700
C 	C 	0.48940 0.90550 0.25110 0.46800
C 	C 	0.57620 0.88330 0.37430 -0.43600
C 	C 	0.45830 0.00520 0.43960 0.02200
O 	O 	0.92150 0.76770 0.17120 -0.46200
O 	O 	0.80710 0.73450 0.02150 -0.46300
O 	O 	0.75710 0.11960 0.17260 -0.54500
O 	O 	0.00820 0.05000 0.11100 -0.58500
O 	O 	0.62580 0.13390 0.73510 -0.51600
O 	O 	0.47480 0.03200 0.86600 -0.63700
O 	O 	0.07850 0.23230 0.82880 -0.46200
O 	O 	0.19290 0.26550 0.97850 -0.46300
O 	O 	0.24290 0.88040 0.82740 -0.54500
O 	O 	0.99180 0.95000 0.88900 -0.58500
O 	O 	0.37420 0.86610 0.26490 -0.51600
O 	O 	0.52520 0.96800 0.13400 -0.63700
