data_crystal

_cell_length_a 11.23200
_cell_length_b 11.36100
_cell_length_c 17.07200
_cell_angle_alpha 97.95000
_cell_angle_beta  108.88900
_cell_angle_gamma 91.40900

_symmetry_space_group_name_	'P 1'
_symmetry_space_group_name_H-M	'P 1'

loop_
_symmetry_equiv_pos_as_xyz
  x,y,z

loop_
_atom_site_label
_atom_site_type_symbol
_atom_site_fract_x
_atom_site_fract_y
_atom_site_fract_z
_atom_site_charge
Cd	Cd	0.08487 0.22571 0.46080 1.23600
Cd	Cd	0.78499 0.28570 0.45140 1.19600
Cd	Cd	0.17571 0.79405 0.95610 1.20100
Cd	Cd	0.18250 0.86696 0.75010 1.24100
Cd	Cd	0.25023 0.08766 0.95624 1.23300
Cd	Cd	0.91513 0.77429 0.53920 1.23600
Cd	Cd	0.21501 0.71430 0.54860 1.19600
Cd	Cd	0.82429 0.20595 0.04390 1.20100
Cd	Cd	0.81750 0.13304 0.24990 1.24100
Cd	Cd	0.74977 0.91234 0.04376 1.23300
H 	H 	0.36340 0.38230 0.84880 0.04100
H 	H 	0.43740 0.53030 0.78300 0.08800
H 	H 	0.35670 0.49780 0.63580 0.01900
H 	H 	0.06680 0.39370 0.85880 0.03400
H 	H 	0.00330 0.20310 0.78130 0.06900
H 	H 	0.98470 0.17080 0.63890 0.02100
H 	H 	0.10060 0.33380 0.11920 0.01500
H 	H 	0.16780 0.37380 0.26370 0.08300
H 	H 	0.37510 0.33090 0.33760 0.03000
H 	H 	0.37450 0.03180 0.36190 0.04100
H 	H 	0.50450 0.97100 0.28400 0.08500
H 	H 	0.42570 0.94320 0.14010 0.01300
H 	H 	0.87740 0.07640 0.40780 0.18500
H 	H 	0.35490 0.89160 0.90500 0.18700
H 	H 	0.63660 0.61770 0.15120 0.04200
H 	H 	0.56260 0.46970 0.21700 0.08900
H 	H 	0.64330 0.50220 0.36420 0.02000
H 	H 	0.93320 0.60630 0.14120 0.03500
H 	H 	0.99670 0.79690 0.21870 0.07000
H 	H 	0.01530 0.82920 0.36110 0.02200
H 	H 	0.89940 0.66620 0.88080 0.01500
H 	H 	0.83220 0.62620 0.73630 0.08300
H 	H 	0.62490 0.66910 0.66240 0.03000
H 	H 	0.62550 0.96820 0.63810 0.04100
H 	H 	0.49550 0.02900 0.71600 0.08500
H 	H 	0.57430 0.05680 0.85990 0.01300
H 	H 	0.12260 0.92360 0.59220 0.18500
H 	H 	0.64510 0.10840 0.09500 0.18700
C 	C 	0.29830 0.23370 0.66030 0.00700
C 	C 	0.25290 0.11760 0.60070 0.31700
C 	C 	0.32360 0.25170 0.74770 -0.09300
C 	C 	0.28990 0.15420 0.78950 0.38600
C 	C 	0.36040 0.36620 0.79330 0.03300
C 	C 	0.39340 0.45910 0.75270 -0.10500
C 	C 	0.35560 0.43590 0.66600 0.06800
C 	C 	0.04530 0.55310 0.62550 0.35200
C 	C 	0.03960 0.45670 0.67630 -0.00000
C 	C 	0.06190 0.47690 0.76200 -0.10000
C 	C 	0.05090 0.38200 0.80120 0.02800
C 	C 	0.01570 0.26650 0.75500 -0.08900
C 	C 	0.99930 0.24740 0.66910 0.00900
C 	C 	0.10060 0.59700 0.80690 0.35700
C 	C 	0.55820 0.25230 0.28540 0.41600
C 	C 	0.42710 0.27850 0.23620 -0.11300
C 	C 	0.46260 0.23540 0.09370 0.29000
C 	C 	0.38470 0.26620 0.15060 0.01700
C 	C 	0.18350 0.32310 0.14990 0.08000
C 	C 	0.22170 0.34430 0.23550 -0.12200
C 	C 	0.34660 0.31960 0.27940 0.05200
C 	C 	0.12920 0.07810 0.30940 0.37900
C 	C 	0.21030 0.02750 0.25830 -0.08300
C 	C 	0.34300 0.01660 0.30370 0.02000
C 	C 	0.42030 0.98270 0.25700 -0.09400
C 	C 	0.37350 0.96620 0.17120 0.02800
C 	C 	0.16940 0.00580 0.17580 -0.00200
C 	C 	0.03770 0.02320 0.12310 0.36200
C 	C 	0.70170 0.76630 0.33970 0.00700
C 	C 	0.74710 0.88240 0.39930 0.31700
C 	C 	0.67640 0.74830 0.25230 -0.09300
C 	C 	0.71010 0.84580 0.21050 0.38600
C 	C 	0.63960 0.63380 0.20670 0.03300
C 	C 	0.60660 0.54090 0.24730 -0.10500
C 	C 	0.64440 0.56410 0.33400 0.06800
C 	C 	0.95470 0.44690 0.37450 0.35200
C 	C 	0.96040 0.54330 0.32370 -0.00000
C 	C 	0.93810 0.52310 0.23800 -0.10000
C 	C 	0.94910 0.61800 0.19880 0.02800
C 	C 	0.98430 0.73350 0.24500 -0.08900
C 	C 	0.00070 0.75260 0.33090 0.00900
C 	C 	0.89940 0.40300 0.19310 0.35700
C 	C 	0.44180 0.74770 0.71460 0.41600
C 	C 	0.57290 0.72150 0.76380 -0.11300
C 	C 	0.53740 0.76460 0.90630 0.29000
C 	C 	0.61530 0.73380 0.84940 0.01700
C 	C 	0.81650 0.67690 0.85010 0.08000
C 	C 	0.77830 0.65570 0.76450 -0.12200
C 	C 	0.65340 0.68040 0.72060 0.05200
C 	C 	0.87080 0.92190 0.69060 0.37900
C 	C 	0.78970 0.97250 0.74170 -0.08300
C 	C 	0.65700 0.98340 0.69630 0.02000
C 	C 	0.57970 0.01730 0.74300 -0.09400
C 	C 	0.62650 0.03380 0.82880 0.02800
C 	C 	0.83060 0.99420 0.82420 -0.00200
C 	C 	0.96230 0.97680 0.87690 0.36200
N 	N 	0.31740 0.32470 0.62520 -0.07000
N 	N 	0.00540 0.34370 0.63150 -0.04900
N 	N 	0.26080 0.28830 0.11070 -0.06900
N 	N 	0.25410 0.98310 0.13280 -0.05500
N 	N 	0.68260 0.67530 0.37480 -0.07000
N 	N 	0.99460 0.65630 0.36850 -0.04900
N 	N 	0.73920 0.71170 0.88930 -0.06900
N 	N 	0.74590 0.01690 0.86720 -0.05500
O 	O 	0.28870 0.30890 0.53940 -0.24800
O 	O 	0.13890 0.09800 0.56430 -0.40200
O 	O 	0.33470 0.05010 0.59400 -0.28500
O 	O 	0.25640 0.05130 0.74430 -0.41700
O 	O 	0.29730 0.18320 0.86260 -0.43900
O 	O 	0.98620 0.33060 0.55040 -0.38600
O 	O 	0.94020 0.60450 0.59630 -0.40700
O 	O 	0.14060 0.56960 0.60860 -0.42200
O 	O 	0.11110 0.67980 0.76880 -0.43900
O 	O 	0.11370 0.61410 0.88810 -0.43000
O 	O 	0.88930 0.15420 0.39160 -0.69500
O 	O 	0.22510 0.27240 0.02780 -0.24700
O 	O 	0.45360 0.12650 0.05830 -0.38800
O 	O 	0.52890 0.31690 0.08670 -0.27800
O 	O 	0.62540 0.20700 0.24580 -0.43700
O 	O 	0.59110 0.28620 0.36150 -0.46700
O 	O 	0.26530 0.90660 0.88940 -0.69400
O 	O 	0.96770 0.92420 0.10050 -0.40900
O 	O 	0.00980 0.12140 0.10600 -0.42700
O 	O 	0.01440 0.06370 0.27100 -0.43800
O 	O 	0.18550 0.13370 0.38140 -0.42500
O 	O 	0.20970 0.97040 0.04720 -0.39800
O 	O 	0.71130 0.69110 0.46060 -0.24800
O 	O 	0.86110 0.90200 0.43570 -0.40200
O 	O 	0.66530 0.94990 0.40600 -0.28500
O 	O 	0.74360 0.94870 0.25570 -0.41700
O 	O 	0.70270 0.81680 0.13740 -0.43900
O 	O 	0.01380 0.66940 0.44960 -0.38600
O 	O 	0.05980 0.39550 0.40370 -0.40700
O 	O 	0.85940 0.43040 0.39140 -0.42200
O 	O 	0.88890 0.32020 0.23120 -0.43900
O 	O 	0.88630 0.38590 0.11190 -0.43000
O 	O 	0.11070 0.84580 0.60840 -0.69500
O 	O 	0.77490 0.72760 0.97220 -0.24700
O 	O 	0.54640 0.87350 0.94170 -0.38800
O 	O 	0.47110 0.68310 0.91330 -0.27800
O 	O 	0.37460 0.79300 0.75420 -0.43700
O 	O 	0.40890 0.71380 0.63850 -0.46700
O 	O 	0.73470 0.09340 0.11060 -0.69400
O 	O 	0.03230 0.07580 0.89950 -0.40900
O 	O 	0.99020 0.87860 0.89400 -0.42700
O 	O 	0.98560 0.93630 0.72900 -0.43800
O 	O 	0.81450 0.86630 0.61860 -0.42500
O 	O 	0.79030 0.02960 0.95280 -0.39800
