data_crystal

_cell_length_a 11.14000
_cell_length_b 11.24900
_cell_length_c 16.81500
_cell_angle_alpha 98.14100
_cell_angle_beta  108.84200
_cell_angle_gamma 91.33300

_symmetry_space_group_name_	'P 1'
_symmetry_space_group_name_H-M	'P 1'

loop_
_symmetry_equiv_pos_as_xyz
  x,y,z

loop_
_atom_site_label
_atom_site_type_symbol
_atom_site_fract_x
_atom_site_fract_y
_atom_site_fract_z
_atom_site_charge
Mn	Mn	0.58206 0.72938 0.96245 1.30000
Mn	Mn	0.67274 0.30154 0.45803 1.25700
Mn	Mn	0.74618 0.58399 0.45650 1.30100
Mn	Mn	0.68038 0.36585 0.25045 1.31100
Mn	Mn	0.29226 0.78996 0.95156 1.25700
Mn	Mn	0.41794 0.27062 0.03755 1.30100
Mn	Mn	0.32726 0.69846 0.54197 1.25800
Mn	Mn	0.25382 0.41601 0.54350 1.30200
Mn	Mn	0.31962 0.63415 0.74955 1.31200
Mn	Mn	0.70774 0.21004 0.04844 1.25700
H 	H 	0.87450 0.99870 0.14580 0.02800
H 	H 	0.92400 0.02420 0.29020 0.08400
H 	H 	0.87440 0.86790 0.35460 0.03700
H 	H 	0.56290 0.90450 0.36110 0.03200
H 	H 	0.50050 0.71180 0.28720 0.07300
H 	H 	0.46830 0.67570 0.14100 0.01900
H 	H 	0.86760 0.53350 0.86540 0.03500
H 	H 	0.00240 0.47350 0.79180 0.08900
H 	H 	0.92850 0.44090 0.64390 0.01600
H 	H 	0.60360 0.83960 0.62750 0.01700
H 	H 	0.69170 0.88450 0.77620 0.09100
H 	H 	0.87640 0.79940 0.83180 0.01400
H 	H 	0.83410 0.39460 0.40610 0.27700
H 	H 	0.37700 0.59780 0.90720 0.27500
H 	H 	0.12550 0.00130 0.85420 0.02800
H 	H 	0.07600 0.97580 0.70980 0.08400
H 	H 	0.12560 0.13210 0.64540 0.03700
H 	H 	0.43710 0.09550 0.63890 0.03200
H 	H 	0.49950 0.28820 0.71280 0.07300
H 	H 	0.53170 0.32430 0.85900 0.01900
H 	H 	0.13240 0.46650 0.13460 0.03500
H 	H 	0.99760 0.52650 0.20820 0.08900
H 	H 	0.07150 0.55910 0.35610 0.01600
H 	H 	0.39640 0.16040 0.37250 0.01700
H 	H 	0.30830 0.11550 0.22380 0.09100
H 	H 	0.12360 0.20060 0.16820 0.01400
H 	H 	0.16590 0.60540 0.59390 0.27700
H 	H 	0.62300 0.40220 0.09280 0.27500
C 	C 	0.85970 0.93540 0.17240 0.06300
C 	C 	0.88750 0.95060 0.25740 -0.10400
C 	C 	0.86160 0.85600 0.29650 0.04100
C 	C 	0.81690 0.74520 0.24790 -0.10100
C 	C 	0.78010 0.64470 0.28800 0.40700
C 	C 	0.79130 0.72850 0.16130 0.01000
C 	C 	0.74660 0.61390 0.09680 0.30500
C 	C 	0.53890 0.95960 0.17290 -0.00100
C 	C 	0.54070 0.05310 0.11800 0.38100
C 	C 	0.60050 0.11010 0.30540 0.42200
C 	C 	0.55940 0.98500 0.25890 -0.10600
C 	C 	0.54690 0.88950 0.30260 0.03400
C 	C 	0.51120 0.77450 0.25900 -0.09600
C 	C 	0.49120 0.75310 0.17150 0.01600
C 	C 	0.53220 0.52370 0.61880 0.36100
C 	C 	0.66730 0.51130 0.67390 0.00300
C 	C 	0.62020 0.58400 0.80730 0.39100
C 	C 	0.71020 0.53540 0.76280 -0.09700
C 	C 	0.83750 0.51980 0.80630 0.03500
C 	C 	0.91810 0.48460 0.76240 -0.10000
C 	C 	0.87460 0.46540 0.67430 0.02300
C 	C 	0.68720 0.82480 0.65590 0.08300
C 	C 	0.73540 0.84640 0.74240 -0.15300
C 	C 	0.85240 0.80750 0.77460 0.09600
C 	C 	0.93780 0.77920 0.73770 -0.13600
C 	C 	0.07120 0.74900 0.78180 0.42200
C 	C 	0.88830 0.76070 0.64910 0.01900
C 	C 	0.95860 0.72650 0.58790 0.29800
C 	C 	0.14030 0.06460 0.82760 0.06300
C 	C 	0.11250 0.04940 0.74260 -0.10400
C 	C 	0.13840 0.14400 0.70350 0.04100
C 	C 	0.18310 0.25480 0.75210 -0.10100
C 	C 	0.21990 0.35530 0.71200 0.40700
C 	C 	0.20870 0.27150 0.83870 0.01000
C 	C 	0.25340 0.38610 0.90320 0.30500
C 	C 	0.46110 0.04040 0.82710 -0.00100
C 	C 	0.45930 0.94690 0.88200 0.38100
C 	C 	0.39950 0.88990 0.69460 0.42200
C 	C 	0.44060 0.01500 0.74110 -0.10600
C 	C 	0.45310 0.11050 0.69740 0.03400
C 	C 	0.48880 0.22550 0.74100 -0.09600
C 	C 	0.50880 0.24690 0.82850 0.01600
C 	C 	0.46780 0.47630 0.38120 0.36100
C 	C 	0.33270 0.48870 0.32610 0.00300
C 	C 	0.37980 0.41600 0.19270 0.39100
C 	C 	0.28980 0.46460 0.23720 -0.09700
C 	C 	0.16250 0.48020 0.19370 0.03500
C 	C 	0.08190 0.51540 0.23760 -0.10000
C 	C 	0.12540 0.53460 0.32570 0.02300
C 	C 	0.31280 0.17520 0.34410 0.08300
C 	C 	0.26460 0.15360 0.25760 -0.15300
C 	C 	0.14760 0.19250 0.22540 0.09600
C 	C 	0.06220 0.22080 0.26230 -0.13600
C 	C 	0.92880 0.25100 0.21820 0.42200
C 	C 	0.11170 0.23930 0.35090 0.01900
C 	C 	0.04140 0.27350 0.41210 0.29800
N 	N 	0.80940 0.82550 0.12568 -0.06300
N 	N 	0.50540 0.84510 0.13240 -0.04700
N 	N 	0.75110 0.48310 0.63340 -0.05200
N 	N 	0.76510 0.78030 0.61140 -0.06900
N 	N 	0.19060 0.17450 0.87432 -0.06300
N 	N 	0.49460 0.15490 0.86760 -0.04700
N 	N 	0.24890 0.51690 0.36660 -0.05200
N 	N 	0.23490 0.21970 0.38860 -0.06900
O 	O 	0.77830 0.81300 0.04107 -0.25300
O 	O 	0.63020 0.59920 0.05513 -0.41200
O 	O 	0.83060 0.54750 0.08979 -0.28300
O 	O 	0.74800 0.54510 0.24240 -0.44500
O 	O 	0.78800 0.67280 0.36426 -0.45400
O 	O 	0.48170 0.82430 0.04890 -0.41400
O 	O 	0.63810 0.06930 0.10080 -0.44800
O 	O 	0.44090 0.10680 0.09264 -0.44100
O 	O 	0.61850 0.18750 0.26402 -0.47300
O 	O 	0.61350 0.12970 0.38237 -0.47900
O 	O 	0.70940 0.47040 0.54754 -0.42100
O 	O 	0.46120 0.42770 0.59629 -0.42900
O 	O 	0.50540 0.62630 0.60114 -0.43800
O 	O 	0.50460 0.56970 0.76473 -0.45600
O 	O 	0.67180 0.63750 0.88243 -0.44500
O 	O 	0.71750 0.76190 0.52573 -0.25800
O 	O 	0.11240 0.78410 0.86035 -0.49100
O 	O 	0.12840 0.69180 0.73774 -0.44800
O 	O 	0.02580 0.81300 0.58040 -0.27600
O 	O 	0.94080 0.62140 0.54858 -0.41700
O 	O 	0.75590 0.40820 0.39155 -0.81000
O 	O 	0.38860 0.66510 0.89230 -0.80900
O 	O 	0.22170 0.18700 0.95893 -0.25300
O 	O 	0.36980 0.40080 0.94487 -0.41200
O 	O 	0.16940 0.45250 0.91021 -0.28300
O 	O 	0.25200 0.45490 0.75760 -0.44500
O 	O 	0.21200 0.32720 0.63574 -0.45400
O 	O 	0.51830 0.17570 0.95110 -0.41400
O 	O 	0.36190 0.93070 0.89920 -0.44800
O 	O 	0.55910 0.89320 0.90736 -0.44100
O 	O 	0.38150 0.81250 0.73598 -0.47300
O 	O 	0.38650 0.87030 0.61763 -0.47900
O 	O 	0.29060 0.52960 0.45246 -0.42100
O 	O 	0.53880 0.57230 0.40371 -0.42900
O 	O 	0.49460 0.37370 0.39886 -0.43800
O 	O 	0.49540 0.43030 0.23527 -0.45600
O 	O 	0.32820 0.36250 0.11757 -0.44500
O 	O 	0.28250 0.23810 0.47427 -0.25800
O 	O 	0.88760 0.21590 0.13965 -0.49100
O 	O 	0.87160 0.30820 0.26226 -0.44800
O 	O 	0.97420 0.18700 0.41960 -0.27600
O 	O 	0.05920 0.37860 0.45142 -0.41700
O 	O 	0.24410 0.59180 0.60845 -0.81000
O 	O 	0.61140 0.33490 0.10770 -0.80900
