data_crystal

_cell_length_a 10.54410
_cell_length_b 10.54410
_cell_length_c 10.77740
_cell_angle_alpha 101.66900
_cell_angle_beta  117.57800
_cell_angle_gamma 108.66700

_symmetry_space_group_name_	'P 1'
_symmetry_space_group_name_H-M	'P 1'

loop_
_symmetry_equiv_pos_as_xyz
  x,y,z

loop_
_atom_site_label
_atom_site_type_symbol
_atom_site_fract_x
_atom_site_fract_y
_atom_site_fract_z
_atom_site_charge
Eu	Eu	0.91374 0.50116 0.12370 1.57100
Eu	Eu	0.22294 0.93435 0.85643 1.63800
Eu	Eu	0.12254 0.20996 0.62370 1.97600
Eu	Eu	0.42208 0.63349 0.35643 1.78700
H 	H 	0.80580 0.80830 0.87170 0.13200
H 	H 	0.87400 0.84800 0.04840 0.07100
H 	H 	0.77690 0.04890 0.08660 0.12800
H 	H 	0.62560 0.94890 0.91190 0.07500
H 	H 	0.28660 0.02700 0.45180 0.33100
H 	H 	0.41140 0.96310 0.52090 0.20700
H 	H 	0.56340 0.06590 0.37170 0.19900
H 	H 	0.70040 0.17440 0.54840 0.17100
H 	H 	0.53770 0.30970 0.58660 0.21800
H 	H 	0.46300 0.28630 0.41190 0.21800
H 	H 	0.92480 0.16520 0.95180 0.11100
H 	H 	0.05780 0.10950 0.02090 0.11500
C 	C 	0.69190 0.64190 0.90700 0.47800
C 	C 	0.83800 0.77060 0.95220 -0.47400
C 	C 	0.98200 0.75280 0.97800 0.42600
C 	C 	0.17190 0.79840 0.36130 0.59400
C 	C 	0.63040 0.14440 0.00300 0.50000
C 	C 	0.65850 0.01150 0.01440 -0.32700
C 	C 	0.56860 0.91060 0.06820 0.36400
C 	C 	0.27390 0.95200 0.61390 0.42100
C 	C 	0.30120 0.94960 0.48640 -0.82800
C 	C 	0.76510 0.21510 0.40700 0.51600
C 	C 	0.68160 0.11420 0.45220 -0.48900
C 	C 	0.72520 0.99600 0.47800 0.31400
C 	C 	0.06290 0.18940 0.86130 0.48400
C 	C 	0.35860 0.37260 0.50300 0.68900
C 	C 	0.50290 0.35590 0.51440 -0.67300
C 	C 	0.65760 0.49960 0.56820 0.55200
C 	C 	0.16190 0.34000 0.11390 0.40300
C 	C 	0.03680 0.18520 0.98640 -0.32300
O 	O 	0.70850 0.54940 0.96830 -0.46900
O 	O 	0.55610 0.62890 0.81220 -0.34000
O 	O 	0.01580 0.66250 0.02550 -0.43400
O 	O 	0.07090 0.83830 0.94200 -0.48000
O 	O 	0.21210 0.70130 0.32860 -0.60900
O 	O 	0.02810 0.76780 0.29610 -0.48400
O 	O 	0.48900 0.12670 0.95130 -0.38800
O 	O 	0.74300 0.25060 0.03200 -0.57600
O 	O 	0.42290 0.87120 0.01190 -0.51900
O 	O 	0.64840 0.87180 0.16440 -0.37300
O 	O 	0.21640 0.02780 0.64860 -0.49600
O 	O 	0.30530 0.86590 0.67860 -0.45800
O 	O 	0.91890 0.25980 0.46830 -0.56300
O 	O 	0.68330 0.25610 0.31220 -0.35900
O 	O 	0.86300 0.00970 0.52550 -0.40100
O 	O 	0.60370 0.87110 0.44200 -0.54700
O 	O 	0.12730 0.11650 0.82860 -0.54000
O 	O 	0.02830 0.26800 0.79610 -0.44100
O 	O 	0.32460 0.46230 0.45130 -0.53500
O 	O 	0.28140 0.28900 0.53200 -0.63100
O 	O 	0.64070 0.58900 0.51190 -0.54800
O 	O 	0.79260 0.51600 0.66440 -0.38100
O 	O 	0.12080 0.43220 0.14860 -0.54000
O 	O 	0.31270 0.37330 0.17860 -0.46300
