data_crystal

_cell_length_a 10.53030
_cell_length_b 10.53030
_cell_length_c 10.88010
_cell_angle_alpha 78.90160
_cell_angle_beta  62.49260
_cell_angle_gamma 108.89900

_symmetry_space_group_name_	'P 1'
_symmetry_space_group_name_H-M	'P 1'

loop_
_symmetry_equiv_pos_as_xyz
  x,y,z

loop_
_atom_site_label
_atom_site_type_symbol
_atom_site_fract_x
_atom_site_fract_y
_atom_site_fract_z
_atom_site_charge
Eu	Eu	0.55176 0.36522 0.37971 1.85800
Eu	Eu	0.24493 0.93147 0.12029 1.85100
Eu	Eu	0.44824 0.63478 0.62029 1.85800
Eu	Eu	0.75507 0.06853 0.87971 1.85100
H 	H 	0.96840 0.38720 0.31200 0.24400
H 	H 	0.10700 0.49270 0.14250 0.23800
H 	H 	0.60300 0.45300 0.78800 0.14600
H 	H 	0.19920 0.28040 0.18800 0.24400
H 	H 	0.13520 0.24950 0.35750 0.24300
H 	H 	0.74100 0.39100 0.71200 0.14600
H 	H 	0.03160 0.61280 0.68800 0.24400
H 	H 	0.89300 0.50730 0.85750 0.23800
H 	H 	0.39700 0.54700 0.21200 0.14600
H 	H 	0.80080 0.71960 0.81200 0.24400
H 	H 	0.86480 0.75050 0.64250 0.24300
H 	H 	0.25900 0.60900 0.28800 0.14600
C 	C 	0.90240 0.35100 0.16780 0.58900
C 	C 	0.99110 0.44910 0.21820 -0.76700
C 	C 	0.95160 0.57190 0.24370 0.68300
C 	C 	0.59950 0.37510 0.62360 0.50700
C 	C 	0.01880 0.07020 0.33220 0.57800
C 	C 	0.16730 0.20930 0.28180 -0.77200
C 	C 	0.31560 0.19530 0.25630 0.68000
C 	C 	0.49870 0.22310 0.87640 0.50700
C 	C 	0.09760 0.64900 0.83220 0.58900
C 	C 	0.00890 0.55090 0.78180 -0.76700
C 	C 	0.04840 0.42810 0.75630 0.68300
C 	C 	0.40050 0.62490 0.37640 0.50700
C 	C 	0.98120 0.92980 0.66780 0.57800
C 	C 	0.83270 0.79070 0.71820 -0.77200
C 	C 	0.68440 0.80470 0.74370 0.68000
C 	C 	0.50130 0.77690 0.12360 0.50700
C 	C 	0.62540 0.37540 0.75000 -0.53300
C 	C 	0.37460 0.62460 0.25000 -0.53300
O 	O 	0.75370 0.30970 0.22540 -0.55200
O 	O 	0.98390 0.31260 0.07210 -0.38100
O 	O 	0.06830 0.68580 0.21410 -0.62500
O 	O 	0.53890 0.45080 0.59170 -0.61800
O 	O 	0.63170 0.29320 0.55830 -0.49100
O 	O 	0.81350 0.55730 0.29180 -0.56100
O 	O 	0.03510 0.97910 0.27460 -0.54900
O 	O 	0.88470 0.05600 0.42790 -0.37800
O 	O 	0.39990 0.28240 0.28590 -0.62100
O 	O 	0.54250 0.13060 0.90830 -0.61700
O 	O 	0.35150 0.19000 0.94170 -0.49000
O 	O 	0.34910 0.10530 0.20820 -0.55900
O 	O 	0.24630 0.69030 0.77460 -0.55200
O 	O 	0.01610 0.68740 0.92790 -0.38100
O 	O 	0.93170 0.31420 0.78590 -0.62500
O 	O 	0.46110 0.54920 0.40830 -0.61800
O 	O 	0.36830 0.70680 0.44170 -0.49100
O 	O 	0.18650 0.44270 0.70820 -0.56100
O 	O 	0.96490 0.02090 0.72540 -0.54900
O 	O 	0.11530 0.94400 0.57210 -0.37800
O 	O 	0.60010 0.71760 0.71410 -0.62100
O 	O 	0.45750 0.86940 0.09170 -0.61700
O 	O 	0.64850 0.81000 0.05830 -0.49000
O 	O 	0.65090 0.89470 0.79180 -0.55900
