data_crystal

_cell_length_a 28.56600
_cell_length_b 9.26400
_cell_length_c 26.18800
_cell_angle_alpha 90.00000
_cell_angle_beta  117.25400
_cell_angle_gamma 90.00000

_symmetry_space_group_name_	'P 1'
_symmetry_space_group_name_H-M	'P 1'

loop_
_symmetry_equiv_pos_as_xyz
  x,y,z

loop_
_atom_site_label
_atom_site_type_symbol
_atom_site_fract_x
_atom_site_fract_y
_atom_site_fract_z
_atom_site_charge
Zn	Zn	0.73303 0.13839 0.02823 1.21500
O 	O 	0.71076 0.06570 0.94645 -0.48300
O 	O 	0.73669 0.22870 0.90275 -0.46500
O 	O 	0.30765 0.43430 0.55082 -0.46300
O 	O 	0.33171 0.26900 0.50559 -0.46400
N 	N 	0.70438 0.96380 0.05149 -0.22900
C 	C 	0.68972 0.02450 0.85030 -0.14300
C 	C 	0.70112 0.05250 0.80540 0.06600
H 	H 	0.72390 0.12760 0.80850 0.02100
C 	C 	0.65572 0.91310 0.84470 0.06400
H 	H 	0.64810 0.89250 0.87490 0.02000
C 	C 	0.67902 0.96980 0.75583 -0.13200
H 	H 	0.68750 0.98920 0.72620 0.07700
C 	C 	0.63266 0.83150 0.79509 -0.13000
H 	H 	0.60920 0.75840 0.79190 0.07500
C 	C 	0.64444 0.85840 0.74976 0.06100
C 	C 	0.62085 0.77020 0.69600 0.02300
C 	C 	0.64796 0.75080 0.66376 -0.08600
H 	H 	0.68140 0.79030 0.67650 0.06200
C 	C 	0.62564 0.67310 0.61286 0.00200
H 	H 	0.64360 0.66300 0.59100 0.03500
C 	C 	0.57152 0.70740 0.67674 -0.09600
H 	H 	0.55330 0.71920 0.69810 0.06100
C 	C 	0.57673 0.61110 0.59477 -0.08900
H 	H 	0.56210 0.55770 0.56100 0.05800
C 	C 	0.54872 0.62700 0.62626 0.02200
C 	C 	0.49552 0.56310 0.60503 0.05300
C 	C 	0.48253 0.43630 0.57279 -0.12600
H 	H 	0.50790 0.39050 0.56560 0.06800
C 	C 	0.45597 0.62730 0.61480 -0.12600
H 	H 	0.46350 0.71150 0.63640 0.07000
C 	C 	0.43226 0.37700 0.55119 0.05500
H 	H 	0.42440 0.29220 0.52990 0.02000
C 	C 	0.40623 0.56870 0.59306 0.05800
H 	H 	0.38060 0.61400 0.59990 0.02300
C 	C 	0.39421 0.44270 0.56114 -0.13800
C 	C 	0.34104 0.37590 0.53907 0.39600
C 	C 	0.72322 0.83150 0.05020 0.03700
H 	H 	0.75180 0.82290 0.04240 0.01700
C 	C 	0.66329 0.97440 0.06214 -0.01100
H 	H 	0.64980 0.06580 0.06220 0.02700
C 	C 	0.70160 0.70940 0.05990 -0.05700
H 	H 	0.71550 0.61910 0.05900 0.06200
C 	C 	0.65890 0.72200 0.07100 -0.06500
H 	H 	0.64340 0.63990 0.07700 0.05700
C 	C 	0.63950 0.85710 0.07309 0.04600
C 	C 	0.71326 0.11480 0.90395 0.41200
C 	C 	0.59350 0.88130 0.08570 -0.14700
H 	H 	0.59160 0.84530 0.11780 0.08100
C 	C 	0.55269 0.96780 0.04137 0.08800
H 	H 	0.56920 0.05520 0.03600 0.00800
C 	C 	0.52741 0.89290 0.98660 -0.14700
H 	H 	0.51060 0.80570 0.99070 0.07500
H 	H 	0.55370 0.86530 0.97470 0.07600
C 	C 	0.48694 0.98840 0.94167 -0.15100
H 	H 	0.50400 0.07330 0.93620 0.07400
H 	H 	0.47020 0.93690 0.90540 0.07600
Zn	Zn	0.23303 0.63839 0.02823 1.21600
O 	O 	0.21076 0.56570 0.94645 -0.48200
O 	O 	0.23669 0.72870 0.90275 -0.46400
O 	O 	0.80765 0.93430 0.55082 -0.46200
O 	O 	0.83171 0.76900 0.50559 -0.46300
N 	N 	0.20438 0.46380 0.05149 -0.22800
C 	C 	0.18972 0.52450 0.85030 -0.14300
C 	C 	0.20112 0.55250 0.80540 0.06500
H 	H 	0.22390 0.62760 0.80850 0.02100
C 	C 	0.15572 0.41310 0.84470 0.06500
H 	H 	0.14810 0.39250 0.87490 0.02000
C 	C 	0.17902 0.46980 0.75583 -0.13100
H 	H 	0.18750 0.48920 0.72620 0.07600
C 	C 	0.13266 0.33150 0.79509 -0.13000
H 	H 	0.10920 0.25840 0.79190 0.07500
C 	C 	0.14444 0.35840 0.74976 0.06100
C 	C 	0.12085 0.27020 0.69600 0.02300
C 	C 	0.14796 0.25080 0.66376 -0.08600
H 	H 	0.18140 0.29030 0.67650 0.06200
C 	C 	0.12564 0.17310 0.61286 0.00200
H 	H 	0.14360 0.16300 0.59100 0.03500
C 	C 	0.07152 0.20740 0.67674 -0.09600
H 	H 	0.05330 0.21920 0.69810 0.06100
C 	C 	0.07673 0.11110 0.59477 -0.08900
H 	H 	0.06210 0.05770 0.56100 0.05800
C 	C 	0.04872 0.12700 0.62626 0.02200
C 	C 	0.99552 0.06310 0.60503 0.05300
C 	C 	0.98253 0.93630 0.57279 -0.12600
H 	H 	0.00790 0.89050 0.56560 0.06800
C 	C 	0.95597 0.12730 0.61480 -0.12700
H 	H 	0.96350 0.21150 0.63640 0.07000
C 	C 	0.93226 0.87700 0.55119 0.05500
H 	H 	0.92440 0.79220 0.52990 0.02000
C 	C 	0.90623 0.06870 0.59306 0.05900
H 	H 	0.88060 0.11400 0.59990 0.02300
C 	C 	0.89421 0.94270 0.56114 -0.13800
C 	C 	0.84104 0.87590 0.53907 0.39600
C 	C 	0.22322 0.33150 0.05020 0.03700
H 	H 	0.25180 0.32290 0.04240 0.01700
C 	C 	0.16329 0.47440 0.06214 -0.01200
H 	H 	0.14980 0.56580 0.06220 0.02800
C 	C 	0.20160 0.20940 0.05990 -0.05700
H 	H 	0.21550 0.11910 0.05900 0.06200
C 	C 	0.15890 0.22200 0.07100 -0.06500
H 	H 	0.14340 0.13990 0.07700 0.05700
C 	C 	0.13950 0.35710 0.07309 0.04600
C 	C 	0.21326 0.61480 0.90395 0.41200
C 	C 	0.09350 0.38130 0.08570 -0.14600
H 	H 	0.09160 0.34530 0.11780 0.08100
C 	C 	0.05269 0.46780 0.04137 0.08500
H 	H 	0.06920 0.55520 0.03600 0.00900
C 	C 	0.02741 0.39290 0.98660 -0.14500
H 	H 	0.01060 0.30570 0.99070 0.07400
H 	H 	0.05370 0.36530 0.97470 0.07600
C 	C 	0.98694 0.48840 0.94167 -0.15000
H 	H 	0.00400 0.57330 0.93620 0.07400
H 	H 	0.97020 0.43690 0.90540 0.07600
Zn	Zn	0.26697 0.13839 0.47177 1.21600
O 	O 	0.28924 0.06570 0.55355 -0.48200
O 	O 	0.26331 0.22870 0.59725 -0.46400
O 	O 	0.69235 0.43430 0.94918 -0.46100
O 	O 	0.66829 0.26900 0.99441 -0.46300
N 	N 	0.29562 0.96380 0.44851 -0.22800
C 	C 	0.31028 0.02450 0.64970 -0.14300
C 	C 	0.29888 0.05250 0.69460 0.06600
H 	H 	0.27610 0.12760 0.69150 0.02100
C 	C 	0.34428 0.91310 0.65530 0.06500
H 	H 	0.35190 0.89250 0.62510 0.02000
C 	C 	0.32098 0.96980 0.74417 -0.13200
H 	H 	0.31250 0.98920 0.77380 0.07700
C 	C 	0.36734 0.83150 0.70491 -0.13000
H 	H 	0.39080 0.75840 0.70810 0.07500
C 	C 	0.35556 0.85840 0.75024 0.06100
C 	C 	0.37915 0.77020 0.80400 0.02300
C 	C 	0.35204 0.75080 0.83624 -0.08600
H 	H 	0.31860 0.79030 0.82350 0.06200
C 	C 	0.37436 0.67310 0.88714 0.00200
H 	H 	0.35640 0.66300 0.90900 0.03500
C 	C 	0.42848 0.70740 0.82326 -0.09600
H 	H 	0.44670 0.71920 0.80190 0.06100
C 	C 	0.42327 0.61110 0.90523 -0.08900
H 	H 	0.43790 0.55770 0.93900 0.05800
C 	C 	0.45128 0.62700 0.87374 0.02200
C 	C 	0.50448 0.56310 0.89497 0.05300
C 	C 	0.51747 0.43630 0.92721 -0.12600
H 	H 	0.49210 0.39050 0.93440 0.06800
C 	C 	0.54403 0.62730 0.88520 -0.12600
H 	H 	0.53650 0.71150 0.86360 0.07000
C 	C 	0.56774 0.37700 0.94881 0.05500
H 	H 	0.57560 0.29220 0.97010 0.02000
C 	C 	0.59377 0.56870 0.90694 0.05800
H 	H 	0.61940 0.61400 0.90010 0.02300
C 	C 	0.60579 0.44270 0.93886 -0.13800
C 	C 	0.65896 0.37590 0.96093 0.39600
C 	C 	0.27678 0.83150 0.44980 0.03700
H 	H 	0.24820 0.82290 0.45760 0.01700
C 	C 	0.33671 0.97440 0.43786 -0.01200
H 	H 	0.35020 0.06580 0.43780 0.02800
C 	C 	0.29840 0.70940 0.44010 -0.05700
H 	H 	0.28450 0.61910 0.44100 0.06200
C 	C 	0.34110 0.72200 0.42900 -0.06500
H 	H 	0.35660 0.63990 0.42300 0.05700
C 	C 	0.36050 0.85710 0.42691 0.04600
C 	C 	0.28674 0.11480 0.59605 0.41200
C 	C 	0.40650 0.88130 0.41430 -0.14600
H 	H 	0.40840 0.84530 0.38220 0.08100
C 	C 	0.44731 0.96780 0.45863 0.08600
H 	H 	0.43080 0.05520 0.46400 0.00900
C 	C 	0.47259 0.89290 0.51340 -0.14600
H 	H 	0.48940 0.80570 0.50930 0.07500
H 	H 	0.44630 0.86530 0.52530 0.07600
C 	C 	0.51306 0.98840 0.55833 -0.14900
H 	H 	0.49600 0.07330 0.56380 0.07300
H 	H 	0.52980 0.93690 0.59460 0.07500
Zn	Zn	0.76698 0.63839 0.47177 1.21600
O 	O 	0.78924 0.56570 0.55355 -0.48200
O 	O 	0.76331 0.72870 0.59725 -0.46400
O 	O 	0.19235 0.93430 0.94918 -0.46200
O 	O 	0.16829 0.76900 0.99441 -0.46300
N 	N 	0.79562 0.46380 0.44851 -0.22800
C 	C 	0.81028 0.52450 0.64970 -0.14300
C 	C 	0.79888 0.55250 0.69460 0.06500
H 	H 	0.77610 0.62760 0.69150 0.02100
C 	C 	0.84428 0.41310 0.65530 0.06500
H 	H 	0.85190 0.39250 0.62510 0.02000
C 	C 	0.82098 0.46980 0.74417 -0.13100
H 	H 	0.81250 0.48920 0.77380 0.07700
C 	C 	0.86734 0.33150 0.70491 -0.13100
H 	H 	0.89080 0.25840 0.70810 0.07500
C 	C 	0.85556 0.35840 0.75024 0.06200
C 	C 	0.87915 0.27020 0.80400 0.02300
C 	C 	0.85204 0.25080 0.83624 -0.08600
H 	H 	0.81860 0.29030 0.82350 0.06200
C 	C 	0.87436 0.17310 0.88714 0.00200
H 	H 	0.85640 0.16300 0.90900 0.03500
C 	C 	0.92848 0.20740 0.82326 -0.09500
H 	H 	0.94670 0.21920 0.80190 0.06000
C 	C 	0.92327 0.11110 0.90523 -0.08800
H 	H 	0.93790 0.05770 0.93900 0.05800
C 	C 	0.95128 0.12700 0.87374 0.02100
C 	C 	0.00448 0.06310 0.89497 0.05500
C 	C 	0.01747 0.93630 0.92721 -0.12700
H 	H 	0.99210 0.89050 0.93440 0.06800
C 	C 	0.04403 0.12730 0.88520 -0.12800
H 	H 	0.03650 0.21150 0.86360 0.07100
C 	C 	0.06774 0.87700 0.94881 0.05600
H 	H 	0.07560 0.79220 0.97010 0.02000
C 	C 	0.09377 0.06870 0.90694 0.06000
H 	H 	0.11940 0.11400 0.90010 0.02200
C 	C 	0.10579 0.94270 0.93886 -0.13900
C 	C 	0.15896 0.87590 0.96093 0.39600
C 	C 	0.77678 0.33150 0.44980 0.03700
H 	H 	0.74820 0.32290 0.45760 0.01700
C 	C 	0.83671 0.47440 0.43786 -0.01200
H 	H 	0.85020 0.56580 0.43780 0.02800
C 	C 	0.79840 0.20940 0.44010 -0.05700
H 	H 	0.78450 0.11910 0.44100 0.06200
C 	C 	0.84110 0.22200 0.42900 -0.06500
H 	H 	0.85660 0.13990 0.42300 0.05700
C 	C 	0.86050 0.35710 0.42691 0.04600
C 	C 	0.78674 0.61480 0.59605 0.41200
C 	C 	0.90650 0.38130 0.41430 -0.14600
H 	H 	0.90840 0.34530 0.38220 0.08100
C 	C 	0.94731 0.46780 0.45863 0.08500
H 	H 	0.93080 0.55520 0.46400 0.00900
C 	C 	0.97259 0.39290 0.51340 -0.14600
H 	H 	0.98940 0.30570 0.50930 0.07500
H 	H 	0.94630 0.36530 0.52530 0.07600
C 	C 	0.01306 0.48840 0.55833 -0.14800
H 	H 	0.99600 0.57330 0.56380 0.07300
H 	H 	0.02980 0.43690 0.59460 0.07500
Zn	Zn	0.26697 0.86161 0.97177 1.21600
O 	O 	0.28924 0.93430 0.05355 -0.48200
O 	O 	0.26331 0.77130 0.09725 -0.46400
O 	O 	0.69235 0.56570 0.44918 -0.46100
O 	O 	0.66829 0.73100 0.49441 -0.46300
N 	N 	0.29562 0.03620 0.94851 -0.22800
C 	C 	0.31028 0.97550 0.14970 -0.14300
C 	C 	0.29888 0.94750 0.19460 0.06600
H 	H 	0.27610 0.87240 0.19150 0.02100
C 	C 	0.34428 0.08690 0.15530 0.06400
H 	H 	0.35190 0.10750 0.12510 0.02000
C 	C 	0.32098 0.03020 0.24417 -0.13200
H 	H 	0.31250 0.01080 0.27380 0.07700
C 	C 	0.36734 0.16850 0.20491 -0.13000
H 	H 	0.39080 0.24160 0.20810 0.07500
C 	C 	0.35556 0.14160 0.25024 0.06100
C 	C 	0.37915 0.22980 0.30400 0.02300
C 	C 	0.35204 0.24920 0.33624 -0.08600
H 	H 	0.31860 0.20970 0.32350 0.06200
C 	C 	0.37436 0.32690 0.38714 0.00200
H 	H 	0.35640 0.33700 0.40900 0.03500
C 	C 	0.42848 0.29260 0.32326 -0.09600
H 	H 	0.44670 0.28080 0.30190 0.06100
C 	C 	0.42327 0.38890 0.40523 -0.08900
H 	H 	0.43790 0.44230 0.43900 0.05800
C 	C 	0.45128 0.37300 0.37374 0.02200
C 	C 	0.50448 0.43690 0.39497 0.05300
C 	C 	0.51747 0.56370 0.42721 -0.12600
H 	H 	0.49210 0.60950 0.43440 0.06800
C 	C 	0.54403 0.37270 0.38520 -0.12600
H 	H 	0.53650 0.28850 0.36360 0.07000
C 	C 	0.56774 0.62300 0.44881 0.05500
H 	H 	0.57560 0.70780 0.47010 0.02000
C 	C 	0.59377 0.43130 0.40694 0.05800
H 	H 	0.61940 0.38600 0.40010 0.02300
C 	C 	0.60579 0.55730 0.43886 -0.13800
C 	C 	0.65896 0.62410 0.46093 0.39600
C 	C 	0.27678 0.16850 0.94980 0.03700
H 	H 	0.24820 0.17710 0.95760 0.01700
C 	C 	0.33671 0.02560 0.93786 -0.01100
H 	H 	0.35020 0.93420 0.93780 0.02700
C 	C 	0.29840 0.29060 0.94010 -0.05700
H 	H 	0.28450 0.38090 0.94100 0.06200
C 	C 	0.34110 0.27800 0.92900 -0.06500
H 	H 	0.35660 0.36010 0.92300 0.05700
C 	C 	0.36050 0.14290 0.92691 0.04600
C 	C 	0.28674 0.88520 0.09605 0.41200
C 	C 	0.40650 0.11870 0.91430 -0.14700
H 	H 	0.40840 0.15470 0.88220 0.08100
C 	C 	0.44731 0.03220 0.95863 0.08800
H 	H 	0.43080 0.94480 0.96400 0.00800
C 	C 	0.47259 0.10710 0.01340 -0.14700
H 	H 	0.48940 0.19430 0.00930 0.07500
H 	H 	0.44630 0.13470 0.02530 0.07600
C 	C 	0.51306 0.01160 0.05833 -0.15100
H 	H 	0.49600 0.92670 0.06380 0.07400
H 	H 	0.52980 0.06310 0.09460 0.07600
Zn	Zn	0.76698 0.36161 0.97177 1.21600
O 	O 	0.78924 0.43430 0.05355 -0.48200
O 	O 	0.76331 0.27130 0.09725 -0.46400
O 	O 	0.19235 0.06570 0.44918 -0.46200
O 	O 	0.16829 0.23100 0.49441 -0.46300
N 	N 	0.79562 0.53620 0.94851 -0.22800
C 	C 	0.81028 0.47550 0.14970 -0.14300
C 	C 	0.79888 0.44750 0.19460 0.06500
H 	H 	0.77610 0.37240 0.19150 0.02100
C 	C 	0.84428 0.58690 0.15530 0.06500
H 	H 	0.85190 0.60750 0.12510 0.02000
C 	C 	0.82098 0.53020 0.24417 -0.13100
H 	H 	0.81250 0.51080 0.27380 0.07600
C 	C 	0.86734 0.66850 0.20491 -0.13000
H 	H 	0.89080 0.74160 0.20810 0.07500
C 	C 	0.85556 0.64160 0.25024 0.06100
C 	C 	0.87915 0.72980 0.30400 0.02300
C 	C 	0.85204 0.74920 0.33624 -0.08600
H 	H 	0.81860 0.70970 0.32350 0.06200
C 	C 	0.87436 0.82690 0.38714 0.00200
H 	H 	0.85640 0.83700 0.40900 0.03500
C 	C 	0.92848 0.79260 0.32326 -0.09600
H 	H 	0.94670 0.78080 0.30190 0.06100
C 	C 	0.92327 0.88890 0.40523 -0.08900
H 	H 	0.93790 0.94230 0.43900 0.05800
C 	C 	0.95128 0.87300 0.37374 0.02200
C 	C 	0.00448 0.93690 0.39497 0.05300
C 	C 	0.01747 0.06370 0.42721 -0.12600
H 	H 	0.99210 0.10950 0.43440 0.06800
C 	C 	0.04403 0.87270 0.38520 -0.12700
H 	H 	0.03650 0.78850 0.36360 0.07000
C 	C 	0.06774 0.12300 0.44881 0.05500
H 	H 	0.07560 0.20780 0.47010 0.02000
C 	C 	0.09377 0.93130 0.40694 0.05900
H 	H 	0.11940 0.88600 0.40010 0.02300
C 	C 	0.10579 0.05730 0.43886 -0.13800
C 	C 	0.15896 0.12410 0.46093 0.39600
C 	C 	0.77678 0.66850 0.94980 0.03700
H 	H 	0.74820 0.67710 0.95760 0.01700
C 	C 	0.83671 0.52560 0.93786 -0.01200
H 	H 	0.85020 0.43420 0.93780 0.02800
C 	C 	0.79840 0.79060 0.94010 -0.05700
H 	H 	0.78450 0.88090 0.94100 0.06200
C 	C 	0.84110 0.77800 0.92900 -0.06500
H 	H 	0.85660 0.86010 0.92300 0.05700
C 	C 	0.86050 0.64290 0.92691 0.04600
C 	C 	0.78674 0.38520 0.09605 0.41200
C 	C 	0.90650 0.61870 0.91430 -0.14600
H 	H 	0.90840 0.65470 0.88220 0.08100
C 	C 	0.94731 0.53220 0.95863 0.08500
H 	H 	0.93080 0.44480 0.96400 0.00900
C 	C 	0.97259 0.60710 0.01340 -0.14500
H 	H 	0.98940 0.69430 0.00930 0.07400
H 	H 	0.94630 0.63470 0.02530 0.07600
C 	C 	0.01306 0.51160 0.05833 -0.15000
H 	H 	0.99600 0.42670 0.06380 0.07400
H 	H 	0.02980 0.56310 0.09460 0.07600
Zn	Zn	0.73303 0.86161 0.52823 1.21600
O 	O 	0.71076 0.93430 0.44645 -0.48200
O 	O 	0.73669 0.77130 0.40275 -0.46400
O 	O 	0.30765 0.56570 0.05082 -0.46200
O 	O 	0.33171 0.73100 0.00559 -0.46300
N 	N 	0.70438 0.03620 0.55149 -0.22800
C 	C 	0.68972 0.97550 0.35030 -0.14300
C 	C 	0.70112 0.94750 0.30540 0.06600
H 	H 	0.72390 0.87240 0.30850 0.02100
C 	C 	0.65572 0.08690 0.34470 0.06500
H 	H 	0.64810 0.10750 0.37490 0.02000
C 	C 	0.67902 0.03020 0.25583 -0.13200
H 	H 	0.68750 0.01080 0.22620 0.07700
C 	C 	0.63266 0.16850 0.29509 -0.13000
H 	H 	0.60920 0.24160 0.29190 0.07500
C 	C 	0.64444 0.14160 0.24976 0.06100
C 	C 	0.62085 0.22980 0.19600 0.02300
C 	C 	0.64796 0.24920 0.16376 -0.08600
H 	H 	0.68140 0.20970 0.17650 0.06200
C 	C 	0.62564 0.32690 0.11286 0.00200
H 	H 	0.64360 0.33700 0.09100 0.03500
C 	C 	0.57152 0.29260 0.17674 -0.09600
H 	H 	0.55330 0.28080 0.19810 0.06100
C 	C 	0.57673 0.38890 0.09477 -0.08900
H 	H 	0.56210 0.44230 0.06100 0.05800
C 	C 	0.54872 0.37300 0.12626 0.02200
C 	C 	0.49552 0.43690 0.10503 0.05300
C 	C 	0.48253 0.56370 0.07279 -0.12600
H 	H 	0.50790 0.60950 0.06560 0.06800
C 	C 	0.45597 0.37270 0.11480 -0.12600
H 	H 	0.46350 0.28850 0.13640 0.07000
C 	C 	0.43226 0.62300 0.05119 0.05500
H 	H 	0.42440 0.70780 0.02990 0.02000
C 	C 	0.40623 0.43130 0.09306 0.05800
H 	H 	0.38060 0.38600 0.09990 0.02300
C 	C 	0.39421 0.55730 0.06114 -0.13800
C 	C 	0.34104 0.62410 0.03907 0.39600
C 	C 	0.72322 0.16850 0.55020 0.03700
H 	H 	0.75180 0.17710 0.54240 0.01700
C 	C 	0.66329 0.02560 0.56214 -0.01200
H 	H 	0.64980 0.93420 0.56220 0.02800
C 	C 	0.70160 0.29060 0.55990 -0.05700
H 	H 	0.71550 0.38090 0.55900 0.06200
C 	C 	0.65890 0.27800 0.57100 -0.06500
H 	H 	0.64340 0.36010 0.57700 0.05700
C 	C 	0.63950 0.14290 0.57309 0.04600
C 	C 	0.71326 0.88520 0.40395 0.41200
C 	C 	0.59350 0.11870 0.58570 -0.14600
H 	H 	0.59160 0.15470 0.61780 0.08100
C 	C 	0.55269 0.03220 0.54137 0.08600
H 	H 	0.56920 0.94480 0.53600 0.00900
C 	C 	0.52741 0.10710 0.48660 -0.14600
H 	H 	0.51060 0.19430 0.49070 0.07500
H 	H 	0.55370 0.13470 0.47470 0.07600
C 	C 	0.48694 0.01160 0.44167 -0.14900
H 	H 	0.50400 0.92670 0.43620 0.07300
H 	H 	0.47020 0.06310 0.40540 0.07500
Zn	Zn	0.23303 0.36161 0.52823 1.21600
O 	O 	0.21076 0.43430 0.44645 -0.48200
O 	O 	0.23669 0.27130 0.40275 -0.46400
O 	O 	0.80765 0.06570 0.05082 -0.46200
O 	O 	0.83171 0.23100 0.00559 -0.46300
N 	N 	0.20438 0.53620 0.55149 -0.22800
C 	C 	0.18972 0.47550 0.35030 -0.14300
C 	C 	0.20112 0.44750 0.30540 0.06500
H 	H 	0.22390 0.37240 0.30850 0.02100
C 	C 	0.15572 0.58690 0.34470 0.06500
H 	H 	0.14810 0.60750 0.37490 0.02000
C 	C 	0.17902 0.53020 0.25583 -0.13100
H 	H 	0.18750 0.51080 0.22620 0.07700
C 	C 	0.13266 0.66850 0.29509 -0.13100
H 	H 	0.10920 0.74160 0.29190 0.07500
C 	C 	0.14444 0.64160 0.24976 0.06200
C 	C 	0.12085 0.72980 0.19600 0.02300
C 	C 	0.14796 0.74920 0.16376 -0.08600
H 	H 	0.18140 0.70970 0.17650 0.06200
C 	C 	0.12564 0.82690 0.11286 0.00200
H 	H 	0.14360 0.83700 0.09100 0.03500
C 	C 	0.07152 0.79260 0.17674 -0.09500
H 	H 	0.05330 0.78080 0.19810 0.06000
C 	C 	0.07673 0.88890 0.09477 -0.08800
H 	H 	0.06210 0.94230 0.06100 0.05800
C 	C 	0.04872 0.87300 0.12626 0.02100
C 	C 	0.99552 0.93690 0.10503 0.05500
C 	C 	0.98253 0.06370 0.07279 -0.12700
H 	H 	0.00790 0.10950 0.06560 0.06800
C 	C 	0.95597 0.87270 0.11480 -0.12800
H 	H 	0.96350 0.78850 0.13640 0.07100
C 	C 	0.93226 0.12300 0.05119 0.05600
H 	H 	0.92440 0.20780 0.02990 0.02000
C 	C 	0.90623 0.93130 0.09306 0.06000
H 	H 	0.88060 0.88600 0.09990 0.02200
C 	C 	0.89421 0.05730 0.06114 -0.13900
C 	C 	0.84104 0.12410 0.03907 0.39600
C 	C 	0.22322 0.66850 0.55020 0.03700
H 	H 	0.25180 0.67710 0.54240 0.01700
C 	C 	0.16329 0.52560 0.56214 -0.01200
H 	H 	0.14980 0.43420 0.56220 0.02800
C 	C 	0.20160 0.79060 0.55990 -0.05700
H 	H 	0.21550 0.88090 0.55900 0.06200
C 	C 	0.15890 0.77800 0.57100 -0.06500
H 	H 	0.14340 0.86010 0.57700 0.05700
C 	C 	0.13950 0.64290 0.57309 0.04600
C 	C 	0.21326 0.38520 0.40395 0.41200
C 	C 	0.09350 0.61870 0.58570 -0.14600
H 	H 	0.09160 0.65470 0.61780 0.08100
C 	C 	0.05269 0.53220 0.54137 0.08500
H 	H 	0.06920 0.44480 0.53600 0.00900
C 	C 	0.02741 0.60710 0.48660 -0.14600
H 	H 	0.01060 0.69430 0.49070 0.07500
H 	H 	0.05370 0.63470 0.47470 0.07600
C 	C 	0.98694 0.51160 0.44167 -0.14800
H 	H 	0.00400 0.42670 0.43620 0.07300
H 	H 	0.97020 0.56310 0.40540 0.07500
