data_crystal

_cell_length_a 13.58740
_cell_length_b 13.58740
_cell_length_c 25.72430
_cell_angle_alpha 83.80190
_cell_angle_beta  75.09660
_cell_angle_gamma 107.97900

_symmetry_space_group_name_	'P 1'
_symmetry_space_group_name_H-M	'P 1'

loop_
_symmetry_equiv_pos_as_xyz
  x,y,z

loop_
_atom_site_label
_atom_site_type_symbol
_atom_site_fract_x
_atom_site_fract_y
_atom_site_fract_z
_atom_site_charge
Zn	Zn	0.67495 0.88669 0.05254 1.22400
Zn	Zn	0.23529 0.82606 0.08705 1.22500
Zn	Zn	0.49056 0.09265 0.12821 1.21700
Zn	Zn	0.43923 0.72749 0.44746 1.22100
Zn	Zn	0.41311 0.32234 0.41295 1.22500
Zn	Zn	0.72086 0.61877 0.37179 1.22400
Zn	Zn	0.32505 0.11331 0.94746 1.21800
Zn	Zn	0.76471 0.17394 0.91295 1.22500
Zn	Zn	0.50944 0.90735 0.87179 1.23000
Zn	Zn	0.56077 0.27251 0.55254 1.22100
Zn	Zn	0.58689 0.67766 0.58705 1.22600
Zn	Zn	0.27914 0.38123 0.62821 1.22400
Zn	Zn	0.50000 0.00000 -0.00000 1.21300
Zn	Zn	0.50000 0.50000 0.50000 1.23000
Cd	Cd	0.86747 0.73920 0.18309 1.19700
Cd	Cd	0.42229 0.05056 0.31691 1.18600
Cd	Cd	0.13253 0.26080 0.81691 1.19500
Cd	Cd	0.57771 0.94944 0.68309 1.20600
P 	P 	0.43933 0.85458 0.12305 0.43800
P 	P 	0.70739 0.12708 0.04087 0.42100
P 	P 	0.69320 0.92915 0.92779 0.46000
P 	P 	0.47763 0.56238 0.37695 0.43700
P 	P 	0.66795 0.74826 0.45913 0.43600
P 	P 	0.35694 0.62099 0.57221 0.43600
P 	P 	0.56067 0.14542 0.87695 0.43500
P 	P 	0.29261 0.87292 0.95913 0.44500
P 	P 	0.30680 0.07085 0.07221 0.40500
P 	P 	0.52237 0.43762 0.62305 0.43700
P 	P 	0.33205 0.25174 0.54087 0.43200
P 	P 	0.64306 0.37901 0.42779 0.43400
H 	H 	0.04380 0.48810 0.15090 0.03900
H 	H 	0.13430 0.46830 0.17420 0.03300
H 	H 	0.21430 0.49000 0.08090 0.05400
H 	H 	0.16910 0.58060 0.06670 0.05900
H 	H 	0.33570 0.59800 0.11810 0.04800
H 	H 	0.34550 0.67560 0.06510 0.02300
H 	H 	0.34180 0.69350 0.18490 0.11800
H 	H 	0.27940 0.77260 0.19620 0.09600
H 	H 	0.13330 0.61080 0.21050 0.08100
H 	H 	0.69470 0.30870 0.16740 0.08100
H 	H 	0.51690 0.36430 0.19000 0.02900
H 	H 	0.63310 0.44030 0.15240 0.02300
H 	H 	0.54260 0.43300 0.08860 0.06200
H 	H 	0.46320 0.31590 0.11630 0.06500
H 	H 	0.59040 0.29090 0.04250 0.02500
H 	H 	0.68850 0.37630 0.05320 0.04500
H 	H 	0.73170 0.16890 0.12340 0.08500
H 	H 	0.78640 0.27120 0.07680 0.11800
H 	H 	0.86650 0.76970 0.99320 0.08500
H 	H 	0.80410 0.59200 0.00430 0.05500
H 	H 	0.71210 0.57780 0.05950 0.06200
H 	H 	0.70070 0.62020 0.95130 0.01700
H 	H 	0.60870 0.53900 0.00230 -0.00400
H 	H 	0.56840 0.67170 0.04110 0.05800
H 	H 	0.58510 0.71040 0.97830 0.08500
H 	H 	0.77540 0.80180 0.91860 0.12300
H 	H 	0.84500 0.89490 0.93970 0.10300
H 	H 	0.13900 0.19470 0.34910 0.03300
H 	H 	0.14250 0.30850 0.32580 0.03200
H 	H 	0.07090 0.29520 0.41910 0.05700
H 	H 	0.14730 0.23580 0.43330 0.05800
H 	H 	0.21610 0.45380 0.38190 0.05000
H 	H 	0.24070 0.41060 0.43490 0.02700
H 	H 	0.37840 0.52670 0.31510 0.11700
H 	H 	0.46880 0.47560 0.30380 0.09200
H 	H 	0.32130 0.34380 0.28950 0.08000
H 	H 	0.97610 0.86210 0.33260 0.09000
H 	H 	0.05430 0.70690 0.31000 0.02700
H 	H 	0.09270 0.78550 0.34760 0.02400
H 	H 	0.02160 0.63120 0.41140 0.07100
H 	H 	0.93220 0.57950 0.38370 0.07100
H 	H 	0.83340 0.63290 0.45750 0.02600
H 	H 	0.92950 0.74170 0.44680 0.04700
H 	H 	0.79230 0.85510 0.37660 0.09800
H 	H 	0.84800 0.86320 0.42320 0.13000
H 	H 	0.26290 0.85970 0.50680 0.07900
H 	H 	0.09630 0.80840 0.49570 0.04600
H 	H 	0.13730 0.77160 0.44050 0.04400
H 	H 	0.07150 0.65200 0.54870 0.05500
H 	H 	0.04130 0.61100 0.49770 0.04700
H 	H 	0.21280 0.60950 0.45890 0.03000
H 	H 	0.18870 0.56340 0.52170 0.04700
H 	H 	0.22040 0.69400 0.58140 0.12300
H 	H 	0.33460 0.78470 0.56030 0.09900
H 	H 	0.95620 0.51190 0.84910 0.04100
H 	H 	0.86570 0.53170 0.82580 0.03600
H 	H 	0.78570 0.51000 0.91910 0.06200
H 	H 	0.83090 0.41940 0.93330 0.06400
H 	H 	0.66430 0.40200 0.88190 0.05200
H 	H 	0.65450 0.32440 0.93490 0.03200
H 	H 	0.65820 0.30650 0.81510 0.11600
H 	H 	0.72060 0.22740 0.80380 0.08900
H 	H 	0.86670 0.38920 0.78950 0.07900
H 	H 	0.30530 0.69130 0.83260 0.08400
H 	H 	0.48310 0.63570 0.81000 0.03100
H 	H 	0.36690 0.55970 0.84760 0.02600
H 	H 	0.45740 0.56700 0.91140 0.06200
H 	H 	0.53680 0.68410 0.88370 0.06500
H 	H 	0.40960 0.70910 0.95750 0.03100
H 	H 	0.31150 0.62370 0.94680 0.05300
H 	H 	0.26830 0.83110 0.87660 0.09800
H 	H 	0.21360 0.72880 0.92320 0.12700
H 	H 	0.13350 0.23030 0.00680 0.06000
H 	H 	0.19590 0.40800 0.99570 0.02200
H 	H 	0.28790 0.42220 0.94050 0.02000
H 	H 	0.29930 0.37980 0.04870 0.09100
H 	H 	0.39130 0.46100 0.99770 0.09900
H 	H 	0.43160 0.32830 0.95890 0.00100
H 	H 	0.41490 0.28960 0.02170 0.00700
H 	H 	0.22460 0.19820 0.08140 0.11500
H 	H 	0.15500 0.10510 0.06030 0.08200
H 	H 	0.86100 0.80530 0.65090 0.04700
H 	H 	0.85750 0.69150 0.67420 0.03700
H 	H 	0.92910 0.70480 0.58090 0.05800
H 	H 	0.85270 0.76420 0.56670 0.06400
H 	H 	0.78390 0.54620 0.61810 0.05000
H 	H 	0.75930 0.58940 0.56510 0.02700
H 	H 	0.62160 0.47330 0.68490 0.11600
H 	H 	0.53120 0.52440 0.69620 0.09200
H 	H 	0.67870 0.65620 0.71050 0.07900
H 	H 	0.02390 0.13790 0.66740 0.07600
H 	H 	0.94570 0.29310 0.69000 0.03000
H 	H 	0.90730 0.21450 0.65240 0.02300
H 	H 	0.97840 0.36880 0.58860 0.05900
H 	H 	0.06780 0.42050 0.61630 0.06400
H 	H 	0.16660 0.36710 0.54250 0.02900
H 	H 	0.07050 0.25830 0.55320 0.04800
H 	H 	0.20770 0.14490 0.62340 0.08500
H 	H 	0.15200 0.13680 0.57680 0.11600
H 	H 	0.73710 0.14030 0.49320 0.06800
H 	H 	0.90370 0.19160 0.50430 0.03400
H 	H 	0.86270 0.22840 0.55950 0.03800
H 	H 	0.92850 0.34800 0.45130 0.05300
H 	H 	0.95870 0.38900 0.50230 0.04600
H 	H 	0.78720 0.39050 0.54110 0.03000
H 	H 	0.81130 0.43660 0.47830 0.04600
H 	H 	0.77960 0.30600 0.41860 0.11700
H 	H 	0.66540 0.21530 0.43970 0.08800
C 	C 	0.11830 0.51890 0.15120 -0.03100
C 	C 	0.19740 0.55000 0.09280 -0.13100
C 	C 	0.29650 0.63190 0.10020 -0.05900
C 	C 	0.31930 0.74600 0.16750 -0.27200
C 	C 	0.13580 0.62240 0.17180 -0.14900
C 	C 	0.05070 0.66840 0.16450 0.33100
C 	C 	0.54580 0.19510 0.21290 0.32800
C 	C 	0.62140 0.28190 0.16390 -0.15700
C 	C 	0.57670 0.37230 0.15760 -0.01900
C 	C 	0.53750 0.36430 0.10680 -0.14700
C 	C 	0.61800 0.32140 0.07060 -0.05000
C 	C 	0.72210 0.20810 0.09240 -0.27000
C 	C 	0.80110 0.76340 0.07630 0.33400
C 	C 	0.79390 0.73940 0.02010 -0.13900
C 	C 	0.74710 0.61730 0.02200 -0.11600
C 	C 	0.66560 0.60810 0.99050 0.03000
C 	C 	0.62030 0.69330 0.00460 -0.16800
C 	C 	0.77140 0.84920 0.94400 -0.26100
C 	C 	0.17010 0.26950 0.34880 -0.02800
C 	C 	0.14280 0.29020 0.40720 -0.13200
C 	C 	0.23210 0.39670 0.39980 -0.06000
C 	C 	0.41350 0.48680 0.33250 -0.27100
C 	C 	0.29420 0.30760 0.32820 -0.15100
C 	C 	0.33290 0.21520 0.33550 0.32900
C 	C 	0.90800 0.75870 0.28710 0.33000
C 	C 	0.94580 0.78530 0.33610 -0.16400
C 	C 	0.02990 0.73430 0.34240 -0.00300
C 	C 	0.97110 0.64430 0.39320 -0.16600
C 	C 	0.89200 0.68860 0.42940 -0.04500
C 	C 	0.80050 0.81450 0.40760 -0.27700
C 	C 	0.33970 0.87740 0.42370 0.33500
C 	C 	0.25950 0.81400 0.47990 -0.13600
C 	C 	0.13930 0.76910 0.47800 -0.05000
C 	C 	0.09860 0.65610 0.50950 -0.10000
C 	C 	0.19790 0.62490 0.49540 -0.06800
C 	C 	0.29320 0.71540 0.55600 -0.26600
C 	C 	0.88170 0.48110 0.84880 -0.03200
C 	C 	0.80260 0.45000 0.90720 -0.13100
C 	C 	0.70350 0.36810 0.89980 -0.06100
C 	C 	0.68070 0.25400 0.83250 -0.27000
C 	C 	0.86420 0.37760 0.82820 -0.14700
C 	C 	0.94930 0.33160 0.83550 0.32500
C 	C 	0.45420 0.80490 0.78710 0.32500
C 	C 	0.37860 0.71810 0.83610 -0.15300
C 	C 	0.42330 0.62770 0.84240 -0.02200
C 	C 	0.46250 0.63570 0.89320 -0.14300
C 	C 	0.38200 0.67860 0.92940 -0.05600
C 	C 	0.27790 0.79190 0.90760 -0.27700
C 	C 	0.19890 0.23660 0.92370 0.33800
C 	C 	0.20610 0.26060 0.97990 -0.13800
C 	C 	0.25290 0.38270 0.97800 0.02500
C 	C 	0.33440 0.39190 0.00950 -0.23800
C 	C 	0.37970 0.30670 0.99540 0.03800
C 	C 	0.22860 0.15080 0.05600 -0.26600
C 	C 	0.82990 0.73050 0.65120 -0.03600
C 	C 	0.85720 0.70980 0.59280 -0.12900
C 	C 	0.76790 0.60330 0.60020 -0.06000
C 	C 	0.58650 0.51320 0.66750 -0.27100
C 	C 	0.70580 0.69240 0.67180 -0.14500
C 	C 	0.66710 0.78480 0.66450 0.32500
C 	C 	0.09200 0.24130 0.71290 0.32500
C 	C 	0.05420 0.21470 0.66390 -0.15200
C 	C 	0.97010 0.26570 0.65760 -0.02600
C 	C 	0.02890 0.35570 0.60680 -0.13800
C 	C 	0.10800 0.31140 0.57060 -0.05500
C 	C 	0.19950 0.18550 0.59240 -0.27000
C 	C 	0.66030 0.12260 0.57630 0.33600
C 	C 	0.74050 0.18600 0.52010 -0.14000
C 	C 	0.86070 0.23090 0.52200 -0.04400
C 	C 	0.90140 0.34390 0.49050 -0.10300
C 	C 	0.80210 0.37510 0.50460 -0.06700
C 	C 	0.70680 0.28460 0.44400 -0.26100
N 	N 	0.24780 0.69650 0.13610 -0.15500
N 	N 	0.71960 0.78670 0.00150 -0.15800
N 	N 	0.62400 0.23910 0.11170 -0.15500
N 	N 	0.33260 0.38390 0.36390 -0.15500
N 	N 	0.28820 0.72110 0.49850 -0.16200
N 	N 	0.85080 0.73570 0.38830 -0.15200
N 	N 	0.75220 0.30350 0.86390 -0.15500
N 	N 	0.28040 0.21330 0.99850 -0.16800
N 	N 	0.37600 0.76090 0.88830 -0.15200
N 	N 	0.66740 0.61610 0.63610 -0.15500
N 	N 	0.71180 0.27890 0.50150 -0.16400
N 	N 	0.14920 0.26430 0.61170 -0.15400
O 	O 	0.53326 0.81360 0.10714 -0.44800
O 	O 	0.40621 0.88610 0.07229 -0.55300
O 	O 	0.46170 0.94100 0.15590 -0.44100
O 	O 	0.07496 0.75400 0.13124 -0.48200
O 	O 	0.95363 0.61830 0.19467 -0.38900
O 	O 	0.47726 0.11310 0.20644 -0.52300
O 	O 	0.55380 0.20840 0.25940 -0.40500
O 	O 	0.58398 0.08620 0.04842 -0.57100
O 	O 	0.74946 0.03770 0.05344 -0.47100
O 	O 	0.77419 0.19890 0.98491 -0.43300
O 	O 	0.84980 0.71410 0.09890 -0.42200
O 	O 	0.76152 0.82810 0.09538 -0.47500
O 	O 	0.77801 0.03840 0.89699 -0.46600
O 	O 	0.62779 0.87790 0.89191 -0.44600
O 	O 	0.62200 0.93290 0.98450 -0.53600
O 	O 	0.42074 0.64040 0.39286 -0.44900
O 	O 	0.45839 0.47850 0.42771 -0.56300
O 	O 	0.59690 0.61760 0.34410 -0.46000
O 	O 	0.38524 0.20620 0.36876 -0.49100
O 	O 	0.31297 0.14830 0.30533 -0.39500
O 	O 	0.81954 0.68370 0.29356 -0.51100
O 	O 	0.96780 0.81320 0.24060 -0.39600
O 	O 	0.63462 0.63240 0.45158 -0.55800
O 	O 	0.59114 0.80290 0.44656 -0.44300
O 	O 	0.68381 0.75910 0.51509 -0.43900
O 	O 	0.31300 0.94870 0.40110 -0.40300
O 	O 	0.42348 0.85690 0.40462 -0.47400
O 	O 	0.43539 0.67500 0.60301 -0.43900
O 	O 	0.26981 0.51970 0.60809 -0.45000
O 	O 	0.41740 0.60650 0.51550 -0.55600
O 	O 	0.46674 0.18640 0.89286 -0.45300
O 	O 	0.59379 0.11390 0.92771 -0.56600
O 	O 	0.53830 0.05900 0.84410 -0.48100
O 	O 	0.92504 0.24600 0.86876 -0.48600
O 	O 	0.04637 0.38170 0.80533 -0.38300
O 	O 	0.52274 0.88690 0.79356 -0.50000
O 	O 	0.44620 0.79160 0.74060 -0.39400
O 	O 	0.41602 0.91380 0.95158 -0.54100
O 	O 	0.25054 0.96230 0.94656 -0.42600
O 	O 	0.22581 0.80110 0.01509 -0.45000
O 	O 	0.15020 0.28590 0.90110 -0.42300
O 	O 	0.23848 0.17190 0.90462 -0.49000
O 	O 	0.22199 0.96160 0.10301 -0.41100
O 	O 	0.37221 0.12210 0.10809 -0.45400
O 	O 	0.37800 0.06710 0.01550 -0.57300
O 	O 	0.57926 0.35960 0.60714 -0.45200
O 	O 	0.54161 0.52150 0.57229 -0.56300
O 	O 	0.40310 0.38240 0.65590 -0.46300
O 	O 	0.61476 0.79380 0.63124 -0.47700
O 	O 	0.68703 0.85170 0.69467 -0.37600
O 	O 	0.18046 0.31630 0.70644 -0.51200
O 	O 	0.03220 0.18680 0.75940 -0.40500
O 	O 	0.36538 0.36760 0.54842 -0.55800
O 	O 	0.40886 0.19710 0.55344 -0.45500
O 	O 	0.31619 0.24090 0.48491 -0.44700
O 	O 	0.68700 0.05130 0.59890 -0.43900
O 	O 	0.57652 0.14310 0.59538 -0.49100
O 	O 	0.56461 0.32500 0.39699 -0.44400
O 	O 	0.73019 0.48030 0.39191 -0.45100
O 	O 	0.58260 0.39350 0.48450 -0.55600
