data_crystal

_cell_length_a 9.60840
_cell_length_b 15.80320
_cell_length_c 23.79270
_cell_angle_alpha 90.00000
_cell_angle_beta  96.84000
_cell_angle_gamma 90.00000

_symmetry_space_group_name_	'P 1'
_symmetry_space_group_name_H-M	'P 1'

loop_
_symmetry_equiv_pos_as_xyz
  x,y,z

loop_
_atom_site_label
_atom_site_type_symbol
_atom_site_fract_x
_atom_site_fract_y
_atom_site_fract_z
_atom_site_charge
Y 	Y 	0.86919 0.67458 0.02199 2.36600
O 	O 	0.71170 0.57110 0.98170 -0.48400
O 	O 	0.11210 0.69320 0.04490 -0.57300
O 	O 	0.95060 0.54280 0.06190 -0.48600
O 	O 	0.18680 0.75420 0.12700 -0.57500
O 	O 	0.01830 0.41160 0.04350 -0.44800
N 	N 	0.62970 0.67190 0.06140 -0.26500
N 	N 	0.45390 0.73200 0.11170 -0.23600
C 	C 	0.53010 0.63230 0.02610 -0.04700
C 	C 	0.20540 0.71560 0.08290 0.42800
C 	C 	0.38820 0.64120 0.03200 -0.00300
C 	C 	0.35520 0.69390 0.07470 -0.08800
O 	O 	0.49100 0.55720 0.94090 -0.26500
C 	C 	0.58100 0.58210 0.97940 0.32800
C 	C 	0.58680 0.71910 0.10320 0.08900
C 	C 	0.98970 0.48690 0.03060 0.27100
H 	H 	0.32100 0.60600 0.01300 0.05800
H 	H 	0.64600 0.75300 0.12700 -0.04000
Y 	Y 	0.36614 0.83480 0.85758 2.36700
O 	O 	0.20670 0.93630 0.81640 -0.47900
O 	O 	0.60710 0.81610 0.88230 -0.58000
O 	O 	0.44300 0.96960 0.89440 -0.47800
O 	O 	0.56400 0.04040 0.76990 -0.47200
O 	O 	0.68740 0.73700 0.95640 -0.58000
O 	O 	0.47480 0.91510 0.79050 -0.45800
O 	O 	0.52680 0.09650 0.87400 -0.46400
N 	N 	0.12510 0.83120 0.89340 -0.27600
N 	N 	0.95230 0.76680 0.94140 -0.25000
C 	C 	0.02540 0.87190 0.85930 -0.03900
C 	C 	0.70270 0.78570 0.91650 0.42300
C 	C 	0.88460 0.86250 0.86650 -0.01200
C 	C 	0.85330 0.80780 0.90680 -0.08500
O 	O 	0.98510 0.94990 0.77470 -0.27100
C 	C 	0.07410 0.92430 0.81200 0.32500
C 	C 	0.08340 0.78070 0.93260 0.12500
C 	C 	0.49420 0.02230 0.86240 0.26900
C 	C 	0.51350 0.99010 0.80220 0.26600
H 	H 	0.81600 0.88600 0.84500 0.05600
H 	H 	0.15600 0.75800 0.95200 -0.07000
Y 	Y 	0.36551 0.82187 0.19299 2.36600
O 	O 	0.20720 0.92290 0.15050 -0.48300
O 	O 	0.60640 0.80780 0.21700 -0.58200
O 	O 	0.68770 0.72950 0.29230 -0.58300
N 	N 	0.12310 0.82180 0.22810 -0.27000
N 	N 	0.94990 0.75860 0.27740 -0.24100
C 	C 	0.02530 0.86400 0.19550 -0.04300
C 	C 	0.70220 0.77750 0.25210 0.42500
C 	C 	0.88330 0.85530 0.20210 0.01200
C 	C 	0.85110 0.80080 0.24340 -0.09300
O 	O 	0.98730 0.94080 0.10950 -0.27000
C 	C 	0.07580 0.91390 0.14890 0.32200
C 	C 	0.08020 0.77150 0.26810 0.10100
H 	H 	0.79900 0.88400 0.17700 0.04700
H 	H 	0.15000 0.74100 0.29100 -0.05200
Y 	Y 	0.63081 0.17458 0.47801 2.36500
O 	O 	0.78830 0.07110 0.51830 -0.48700
O 	O 	0.38790 0.19320 0.45510 -0.57600
O 	O 	0.54940 0.04280 0.43810 -0.48600
O 	O 	0.31320 0.25420 0.37300 -0.57500
O 	O 	0.48170 0.91160 0.45650 -0.45200
N 	N 	0.87030 0.17190 0.43860 -0.26500
N 	N 	0.04610 0.23200 0.38830 -0.23500
C 	C 	0.96990 0.13230 0.47390 -0.04600
C 	C 	0.29460 0.21560 0.41710 0.42800
C 	C 	0.11180 0.14120 0.46800 -0.00300
C 	C 	0.14480 0.19390 0.42530 -0.08800
O 	O 	0.00900 0.05720 0.55910 -0.26600
C 	C 	0.91900 0.08210 0.52060 0.32800
C 	C 	0.91320 0.21910 0.39680 0.08900
C 	C 	0.51030 0.98690 0.46940 0.27400
H 	H 	0.17900 0.10600 0.48700 0.05800
H 	H 	0.85400 0.25300 0.37300 -0.04000
Y 	Y 	0.13386 0.33480 0.64242 2.36700
O 	O 	0.29330 0.43630 0.68360 -0.48000
O 	O 	0.89290 0.31610 0.61770 -0.58000
O 	O 	0.05700 0.46960 0.60560 -0.48000
O 	O 	0.93600 0.54040 0.73010 -0.47100
O 	O 	0.81260 0.23700 0.54360 -0.58000
O 	O 	0.02520 0.41510 0.70950 -0.45900
O 	O 	0.97320 0.59650 0.62600 -0.46300
N 	N 	0.37490 0.33120 0.60660 -0.27700
N 	N 	0.54770 0.26680 0.55860 -0.25300
C 	C 	0.47460 0.37190 0.64070 -0.03600
C 	C 	0.79730 0.28570 0.58350 0.42200
C 	C 	0.61540 0.36250 0.63350 -0.01700
C 	C 	0.64670 0.30780 0.59320 -0.08400
O 	O 	0.51490 0.44990 0.72530 -0.27200
C 	C 	0.42590 0.42430 0.68800 0.32600
C 	C 	0.41660 0.28070 0.56740 0.12900
C 	C 	0.00580 0.52230 0.63760 0.27000
C 	C 	0.98650 0.49010 0.69780 0.26700
H 	H 	0.68400 0.38600 0.65500 0.05800
H 	H 	0.34400 0.25800 0.54800 -0.07200
Y 	Y 	0.13449 0.32187 0.30701 2.36600
O 	O 	0.29280 0.42290 0.34950 -0.48200
O 	O 	0.89360 0.30780 0.28300 -0.58200
O 	O 	0.81230 0.22950 0.20770 -0.58400
N 	N 	0.37690 0.32180 0.27190 -0.26900
N 	N 	0.55010 0.25860 0.22260 -0.23900
C 	C 	0.47470 0.36400 0.30450 -0.04500
C 	C 	0.79780 0.27750 0.24790 0.42600
C 	C 	0.61670 0.35530 0.29790 0.01500
C 	C 	0.64890 0.30080 0.25660 -0.09300
O 	O 	0.51270 0.44080 0.39050 -0.26500
C 	C 	0.42420 0.41390 0.35110 0.31900
C 	C 	0.41980 0.27150 0.23190 0.09800
H 	H 	0.70100 0.38400 0.32300 0.04700
H 	H 	0.35000 0.24100 0.20900 -0.05100
Y 	Y 	0.13081 0.32542 0.97801 2.36500
O 	O 	0.28830 0.42890 0.01830 -0.48500
O 	O 	0.88790 0.30680 0.95510 -0.57400
O 	O 	0.04940 0.45720 0.93810 -0.48700
O 	O 	0.81320 0.24580 0.87300 -0.57500
O 	O 	0.98170 0.58840 0.95650 -0.44800
N 	N 	0.37030 0.32810 0.93860 -0.26500
N 	N 	0.54610 0.26800 0.88830 -0.23600
C 	C 	0.46990 0.36770 0.97390 -0.04700
C 	C 	0.79460 0.28440 0.91710 0.42800
C 	C 	0.61180 0.35880 0.96800 -0.00300
C 	C 	0.64480 0.30610 0.92530 -0.08800
O 	O 	0.50900 0.44280 0.05910 -0.26500
C 	C 	0.41900 0.41790 0.02060 0.32800
C 	C 	0.41320 0.28090 0.89680 0.08900
C 	C 	0.01030 0.51310 0.96940 0.27100
H 	H 	0.67900 0.39400 0.98700 0.05800
H 	H 	0.35400 0.24700 0.87300 -0.04000
Y 	Y 	0.63386 0.16520 0.14242 2.36700
O 	O 	0.79330 0.06370 0.18360 -0.47900
O 	O 	0.39290 0.18390 0.11770 -0.58000
O 	O 	0.55700 0.03040 0.10560 -0.47800
O 	O 	0.43600 0.95960 0.23010 -0.47200
O 	O 	0.31260 0.26300 0.04360 -0.58000
O 	O 	0.52520 0.08490 0.20950 -0.45800
O 	O 	0.47320 0.90350 0.12600 -0.46400
N 	N 	0.87490 0.16880 0.10660 -0.27600
N 	N 	0.04770 0.23320 0.05860 -0.25000
C 	C 	0.97460 0.12810 0.14070 -0.03900
C 	C 	0.29730 0.21430 0.08350 0.42300
C 	C 	0.11540 0.13750 0.13350 -0.01200
C 	C 	0.14670 0.19220 0.09320 -0.08500
O 	O 	0.01490 0.05010 0.22530 -0.27100
C 	C 	0.92590 0.07570 0.18800 0.32500
C 	C 	0.91660 0.21930 0.06740 0.12500
C 	C 	0.50580 0.97770 0.13760 0.26900
C 	C 	0.48650 0.00990 0.19780 0.26600
H 	H 	0.18400 0.11400 0.15500 0.05600
H 	H 	0.84400 0.24200 0.04800 -0.07000
Y 	Y 	0.63449 0.17813 0.80701 2.36600
O 	O 	0.79280 0.07710 0.84950 -0.48300
O 	O 	0.39360 0.19220 0.78300 -0.58200
O 	O 	0.31230 0.27050 0.70770 -0.58300
N 	N 	0.87690 0.17820 0.77190 -0.27000
N 	N 	0.05010 0.24140 0.72260 -0.24100
C 	C 	0.97470 0.13600 0.80450 -0.04300
C 	C 	0.29780 0.22250 0.74790 0.42500
C 	C 	0.11670 0.14470 0.79790 0.01200
C 	C 	0.14890 0.19920 0.75660 -0.09300
O 	O 	0.01270 0.05920 0.89050 -0.27000
C 	C 	0.92420 0.08610 0.85110 0.32200
C 	C 	0.91980 0.22850 0.73190 0.10100
H 	H 	0.20100 0.11600 0.82300 0.04700
H 	H 	0.85000 0.25900 0.70900 -0.05200
Y 	Y 	0.36919 0.82542 0.52199 2.36500
O 	O 	0.21170 0.92890 0.48170 -0.48700
O 	O 	0.61210 0.80680 0.54490 -0.57600
O 	O 	0.45060 0.95720 0.56190 -0.48600
O 	O 	0.68680 0.74580 0.62700 -0.57500
O 	O 	0.51830 0.08840 0.54350 -0.45200
N 	N 	0.12970 0.82810 0.56140 -0.26500
N 	N 	0.95390 0.76800 0.61170 -0.23500
C 	C 	0.03010 0.86770 0.52610 -0.04600
C 	C 	0.70540 0.78440 0.58290 0.42800
C 	C 	0.88820 0.85880 0.53200 -0.00300
C 	C 	0.85520 0.80610 0.57470 -0.08800
O 	O 	0.99100 0.94280 0.44090 -0.26600
C 	C 	0.08100 0.91790 0.47940 0.32800
C 	C 	0.08680 0.78090 0.60320 0.08900
C 	C 	0.48970 0.01310 0.53060 0.27400
H 	H 	0.82100 0.89400 0.51300 0.05800
H 	H 	0.14600 0.74700 0.62700 -0.04000
Y 	Y 	0.86614 0.66520 0.35758 2.36700
O 	O 	0.70670 0.56370 0.31640 -0.48000
O 	O 	0.10710 0.68390 0.38230 -0.58000
O 	O 	0.94300 0.53040 0.39440 -0.48000
O 	O 	0.06400 0.45960 0.26990 -0.47100
O 	O 	0.18740 0.76300 0.45640 -0.58000
O 	O 	0.97480 0.58490 0.29050 -0.45900
O 	O 	0.02680 0.40350 0.37400 -0.46300
N 	N 	0.62510 0.66880 0.39340 -0.27700
N 	N 	0.45230 0.73320 0.44140 -0.25300
C 	C 	0.52540 0.62810 0.35930 -0.03600
C 	C 	0.20270 0.71430 0.41650 0.42200
C 	C 	0.38460 0.63750 0.36650 -0.01700
C 	C 	0.35330 0.69220 0.40680 -0.08400
O 	O 	0.48510 0.55010 0.27470 -0.27200
C 	C 	0.57410 0.57570 0.31200 0.32600
C 	C 	0.58340 0.71930 0.43260 0.12900
C 	C 	0.99420 0.47770 0.36240 0.27000
C 	C 	0.01350 0.50990 0.30220 0.26700
H 	H 	0.31600 0.61400 0.34500 0.05800
H 	H 	0.65600 0.74200 0.45200 -0.07200
Y 	Y 	0.86551 0.67813 0.69299 2.36600
O 	O 	0.70720 0.57710 0.65050 -0.48200
O 	O 	0.10640 0.69220 0.71700 -0.58200
O 	O 	0.18770 0.77050 0.79230 -0.58400
N 	N 	0.62310 0.67820 0.72810 -0.26900
N 	N 	0.44990 0.74140 0.77740 -0.23900
C 	C 	0.52530 0.63600 0.69550 -0.04500
C 	C 	0.20220 0.72250 0.75210 0.42600
C 	C 	0.38330 0.64470 0.70210 0.01500
C 	C 	0.35110 0.69920 0.74340 -0.09300
O 	O 	0.48730 0.55920 0.60950 -0.26500
C 	C 	0.57580 0.58610 0.64890 0.31900
C 	C 	0.58020 0.72850 0.76810 0.09800
H 	H 	0.29900 0.61600 0.67700 0.04700
H 	H 	0.65000 0.75900 0.79100 -0.05100
