data_crystal

_cell_length_a 26.60000
_cell_length_b 26.60000
_cell_length_c 27.12000
_cell_angle_alpha 90.00000
_cell_angle_beta  90.00000
_cell_angle_gamma 90.00000

_symmetry_space_group_name_	'P 1'
_symmetry_space_group_name_H-M	'P 1'

loop_
_symmetry_equiv_pos_as_xyz
  x,y,z

loop_
_atom_site_label
_atom_site_type_symbol
_atom_site_fract_x
_atom_site_fract_y
_atom_site_fract_z
_atom_site_charge
N 	N 	0.70966 0.89412 0.19624 -0.21600
O 	O 	0.93060 0.97559 0.23740 -0.38900
O 	O 	0.92903 0.98080 0.15457 -0.39000
O 	O 	0.56533 0.01475 0.05078 -0.45300
O 	O 	0.52790 0.93841 0.05037 -0.42100
C 	C 	0.90942 0.97146 0.19614 0.37500
C 	C 	0.85629 0.95332 0.19650 -0.15800
C 	C 	0.83059 0.94670 0.15161 0.10900
H 	H 	0.84600 0.95480 0.12190 0.01000
C 	C 	0.78197 0.92789 0.15229 -0.21500
H 	H 	0.76470 0.92360 0.12280 0.10900
C 	C 	0.75890 0.91553 0.19607 0.18900
C 	C 	0.78441 0.92188 0.23943 -0.21800
H 	H 	0.76910 0.91310 0.26900 0.11400
C 	C 	0.83263 0.94124 0.23978 0.11800
H 	H 	0.84910 0.94610 0.26960 0.01100
C 	C 	0.67233 0.91318 0.16489 0.23100
C 	C 	0.66925 0.96364 0.15339 -0.30200
H 	H 	0.69260 0.98560 0.16720 0.14500
C 	C 	0.63409 0.98227 0.12323 0.23600
H 	H 	0.63270 0.01670 0.11720 -0.05800
C 	C 	0.59891 0.94966 0.10040 -0.22900
C 	C 	0.60114 0.89965 0.11266 0.17600
H 	H 	0.57710 0.87790 0.09970 -0.01700
C 	C 	0.63714 0.88060 0.14298 -0.26600
H 	H 	0.63850 0.84620 0.14920 0.12500
C 	C 	0.56143 0.96984 0.06424 0.42700
C 	C 	0.70221 0.84904 0.22408 0.24800
C 	C 	0.73888 0.81188 0.22440 -0.30500
H 	H 	0.76870 0.81660 0.20700 0.14200
N 	N 	0.29034 0.10588 0.19624 -0.20400
O 	O 	0.06940 0.02441 0.23740 -0.42500
O 	O 	0.07097 0.01920 0.15457 -0.42600
O 	O 	0.43467 0.98525 0.05078 -0.38800
O 	O 	0.47210 0.06159 0.05037 -0.40500
C 	C 	0.09058 0.02854 0.19614 0.37900
C 	C 	0.14371 0.04668 0.19650 -0.17400
C 	C 	0.16941 0.05330 0.15161 0.11100
H 	H 	0.15400 0.04520 0.12190 -0.00200
C 	C 	0.21803 0.07211 0.15229 -0.22100
H 	H 	0.23530 0.07640 0.12280 0.10600
C 	C 	0.24110 0.08447 0.19607 0.18700
C 	C 	0.21559 0.07812 0.23943 -0.22600
H 	H 	0.23090 0.08690 0.26900 0.11000
C 	C 	0.16737 0.05876 0.23978 0.12100
H 	H 	0.15090 0.05390 0.26960 -0.00200
C 	C 	0.32767 0.08682 0.16489 0.15500
C 	C 	0.33075 0.03636 0.15339 -0.16300
H 	H 	0.30740 0.01440 0.16720 0.08500
C 	C 	0.36591 0.01773 0.12323 0.02100
H 	H 	0.36730 0.98330 0.11720 0.05400
C 	C 	0.40109 0.05034 0.10040 -0.11900
C 	C 	0.39886 0.10035 0.11266 0.08000
H 	H 	0.42290 0.12210 0.09970 0.01300
C 	C 	0.36286 0.11940 0.14298 -0.18600
H 	H 	0.36150 0.15380 0.14920 0.09600
C 	C 	0.43857 0.03016 0.06424 0.32200
C 	C 	0.29779 0.15096 0.22408 0.24200
C 	C 	0.26112 0.18812 0.22440 -0.30100
H 	H 	0.23130 0.18340 0.20700 0.13600
N 	N 	0.10588 0.70966 0.19624 -0.20400
O 	O 	0.02441 0.93060 0.23740 -0.40600
O 	O 	0.01920 0.92903 0.15457 -0.40800
O 	O 	0.98525 0.56533 0.05078 -0.38800
O 	O 	0.06159 0.52790 0.05037 -0.40500
C 	C 	0.02854 0.90942 0.19614 0.37700
C 	C 	0.04668 0.85629 0.19650 -0.16500
C 	C 	0.05330 0.83059 0.15161 0.10800
H 	H 	0.04520 0.84600 0.12190 0.00300
C 	C 	0.07211 0.78197 0.15229 -0.21600
H 	H 	0.07640 0.76470 0.12280 0.10600
C 	C 	0.08447 0.75890 0.19607 0.18600
C 	C 	0.07812 0.78441 0.23943 -0.22100
H 	H 	0.08690 0.76910 0.26900 0.11000
C 	C 	0.05876 0.83263 0.23978 0.11800
H 	H 	0.05390 0.84910 0.26960 0.00400
C 	C 	0.08682 0.67233 0.16489 0.15700
C 	C 	0.03636 0.66925 0.15339 -0.16500
H 	H 	0.01440 0.69260 0.16720 0.08600
C 	C 	0.01773 0.63409 0.12323 0.02400
H 	H 	0.98330 0.63270 0.11720 0.05300
C 	C 	0.05034 0.59891 0.10040 -0.12000
C 	C 	0.10035 0.60114 0.11266 0.08100
H 	H 	0.12210 0.57710 0.09970 0.01300
C 	C 	0.11940 0.63714 0.14298 -0.18700
H 	H 	0.15380 0.63850 0.14920 0.09700
C 	C 	0.03016 0.56143 0.06424 0.32200
C 	C 	0.15096 0.70221 0.22408 0.24300
C 	C 	0.18812 0.73888 0.22440 -0.30100
H 	H 	0.18340 0.76870 0.20700 0.14000
N 	N 	0.89412 0.29034 0.19624 -0.21600
O 	O 	0.97559 0.06940 0.23740 -0.40600
O 	O 	0.98080 0.07097 0.15457 -0.40600
O 	O 	0.01475 0.43467 0.05078 -0.45300
O 	O 	0.93841 0.47210 0.05037 -0.42200
C 	C 	0.97146 0.09058 0.19614 0.37700
C 	C 	0.95332 0.14371 0.19650 -0.16500
C 	C 	0.94670 0.16941 0.15161 0.11100
H 	H 	0.95480 0.15400 0.12190 0.00500
C 	C 	0.92789 0.21803 0.15229 -0.21900
H 	H 	0.92360 0.23530 0.12280 0.10900
C 	C 	0.91553 0.24110 0.19607 0.19000
C 	C 	0.92188 0.21559 0.23943 -0.22300
H 	H 	0.91310 0.23090 0.26900 0.11300
C 	C 	0.94124 0.16737 0.23978 0.12100
H 	H 	0.94610 0.15090 0.26960 0.00500
C 	C 	0.91318 0.32767 0.16489 0.23200
C 	C 	0.96364 0.33075 0.15339 -0.30400
H 	H 	0.98560 0.30740 0.16720 0.14500
C 	C 	0.98227 0.36591 0.12323 0.23800
H 	H 	0.01670 0.36730 0.11720 -0.05900
C 	C 	0.94966 0.40109 0.10040 -0.23000
C 	C 	0.89965 0.39886 0.11266 0.17700
H 	H 	0.87790 0.42290 0.09970 -0.01700
C 	C 	0.88060 0.36286 0.14298 -0.26700
H 	H 	0.84620 0.36150 0.14920 0.12500
C 	C 	0.96984 0.43857 0.06424 0.42800
C 	C 	0.84904 0.29779 0.22408 0.24700
C 	C 	0.81188 0.26112 0.22440 -0.30500
H 	H 	0.81660 0.23130 0.20700 0.13800
N 	N 	0.79034 0.39412 0.30376 -0.21000
O 	O 	0.56940 0.47559 0.26260 -0.41400
O 	O 	0.57097 0.48080 0.34543 -0.41000
O 	O 	0.93467 0.51475 0.44922 -0.40500
O 	O 	0.97210 0.43841 0.44963 -0.39400
C 	C 	0.59058 0.47146 0.30386 0.37900
C 	C 	0.64371 0.45332 0.30350 -0.16600
C 	C 	0.66941 0.44670 0.34839 0.11100
H 	H 	0.65400 0.45480 0.37810 0.00700
C 	C 	0.71803 0.42789 0.34771 -0.21800
H 	H 	0.73530 0.42360 0.37720 0.11100
C 	C 	0.74110 0.41553 0.30393 0.18900
C 	C 	0.71559 0.42188 0.26057 -0.22300
H 	H 	0.73090 0.41310 0.23100 0.11000
C 	C 	0.66737 0.44124 0.26022 0.12000
H 	H 	0.65090 0.44610 0.23040 0.00200
C 	C 	0.82767 0.41318 0.33511 0.19200
C 	C 	0.83075 0.46364 0.34661 -0.22800
H 	H 	0.80740 0.48560 0.33280 0.11500
C 	C 	0.86591 0.48227 0.37677 0.12600
H 	H 	0.86730 0.51670 0.38280 0.00400
C 	C 	0.90109 0.44966 0.39960 -0.16400
C 	C 	0.89886 0.39965 0.38734 0.12500
H 	H 	0.92290 0.37790 0.40030 0.00600
C 	C 	0.86286 0.38060 0.35702 -0.22000
H 	H 	0.86150 0.34620 0.35080 0.11200
C 	C 	0.93857 0.46984 0.43576 0.37300
C 	C 	0.79779 0.34904 0.27592 0.24700
C 	C 	0.76112 0.31188 0.27560 -0.30500
H 	H 	0.73130 0.31660 0.29300 0.14000
N 	N 	0.20966 0.60588 0.30376 -0.21000
O 	O 	0.43060 0.52441 0.26260 -0.41400
O 	O 	0.42903 0.51920 0.34543 -0.41000
O 	O 	0.06533 0.48525 0.44922 -0.42000
O 	O 	0.02790 0.56159 0.44963 -0.41700
C 	C 	0.40942 0.52854 0.30386 0.37900
C 	C 	0.35629 0.54668 0.30350 -0.16700
C 	C 	0.33059 0.55330 0.34839 0.11100
H 	H 	0.34600 0.54520 0.37810 0.00700
C 	C 	0.28197 0.57211 0.34771 -0.21800
H 	H 	0.26470 0.57640 0.37720 0.11100
C 	C 	0.25890 0.58447 0.30393 0.18900
C 	C 	0.28441 0.57812 0.26057 -0.22300
H 	H 	0.26910 0.58690 0.23100 0.11000
C 	C 	0.33263 0.55876 0.26022 0.12000
H 	H 	0.34910 0.55390 0.23040 0.00200
C 	C 	0.17233 0.58682 0.33511 0.19400
C 	C 	0.16925 0.53636 0.34661 -0.23300
H 	H 	0.19260 0.51440 0.33280 0.11500
C 	C 	0.13409 0.51773 0.37677 0.13000
H 	H 	0.13270 0.48330 0.38280 -0.00300
C 	C 	0.09891 0.55034 0.39960 -0.17400
C 	C 	0.10114 0.60035 0.38734 0.12900
H 	H 	0.07710 0.62210 0.40030 -0.00100
C 	C 	0.13714 0.61940 0.35702 -0.22600
H 	H 	0.13850 0.65380 0.35080 0.11300
C 	C 	0.06143 0.53016 0.43576 0.37600
C 	C 	0.20221 0.65096 0.27592 0.24400
C 	C 	0.23888 0.68812 0.27560 -0.30100
H 	H 	0.26870 0.68340 0.29300 0.14000
N 	N 	0.39412 0.20966 0.30376 -0.21000
O 	O 	0.47559 0.43060 0.26260 -0.41400
O 	O 	0.48080 0.42903 0.34543 -0.41000
O 	O 	0.51475 0.06533 0.44922 -0.42000
O 	O 	0.43841 0.02790 0.44963 -0.41700
C 	C 	0.47146 0.40942 0.30386 0.37900
C 	C 	0.45332 0.35629 0.30350 -0.16700
C 	C 	0.44670 0.33059 0.34839 0.11100
H 	H 	0.45480 0.34600 0.37810 0.00700
C 	C 	0.42789 0.28197 0.34771 -0.21800
H 	H 	0.42360 0.26470 0.37720 0.11100
C 	C 	0.41553 0.25890 0.30393 0.18800
C 	C 	0.42188 0.28441 0.26057 -0.22300
H 	H 	0.41310 0.26910 0.23100 0.11000
C 	C 	0.44124 0.33263 0.26022 0.12000
H 	H 	0.44610 0.34910 0.23040 0.00200
C 	C 	0.41318 0.17233 0.33511 0.19400
C 	C 	0.46364 0.16925 0.34661 -0.23300
H 	H 	0.48560 0.19260 0.33280 0.11500
C 	C 	0.48227 0.13409 0.37677 0.13000
H 	H 	0.51670 0.13270 0.38280 -0.00200
C 	C 	0.44966 0.09891 0.39960 -0.17400
C 	C 	0.39965 0.10114 0.38734 0.12900
H 	H 	0.37790 0.07710 0.40030 -0.00200
C 	C 	0.38060 0.13714 0.35702 -0.22600
H 	H 	0.34620 0.13850 0.35080 0.11100
C 	C 	0.46984 0.06143 0.43576 0.37600
C 	C 	0.34904 0.20221 0.27592 0.24300
C 	C 	0.31188 0.23888 0.27560 -0.30100
H 	H 	0.31660 0.26870 0.29300 0.13800
N 	N 	0.60588 0.79034 0.30376 -0.21000
O 	O 	0.52441 0.56940 0.26260 -0.41300
O 	O 	0.51920 0.57097 0.34543 -0.41000
O 	O 	0.48525 0.93467 0.44922 -0.40600
O 	O 	0.56159 0.97210 0.44963 -0.39300
C 	C 	0.52854 0.59058 0.30386 0.37900
C 	C 	0.54668 0.64371 0.30350 -0.16600
C 	C 	0.55330 0.66941 0.34839 0.11200
H 	H 	0.54520 0.65400 0.37810 0.00700
C 	C 	0.57211 0.71803 0.34771 -0.21800
H 	H 	0.57640 0.73530 0.37720 0.11200
C 	C 	0.58447 0.74110 0.30393 0.18900
C 	C 	0.57812 0.71559 0.26057 -0.22300
H 	H 	0.58690 0.73090 0.23100 0.11100
C 	C 	0.55876 0.66737 0.26022 0.12100
H 	H 	0.55390 0.65090 0.23040 0.00200
C 	C 	0.58682 0.82767 0.33511 0.19300
C 	C 	0.53636 0.83075 0.34661 -0.22800
H 	H 	0.51440 0.80740 0.33280 0.11500
C 	C 	0.51773 0.86591 0.37677 0.12600
H 	H 	0.48330 0.86730 0.38280 0.00400
C 	C 	0.55034 0.90109 0.39960 -0.16400
C 	C 	0.60035 0.89886 0.38734 0.12500
H 	H 	0.62210 0.92290 0.40030 0.00700
C 	C 	0.61940 0.86286 0.35702 -0.22000
H 	H 	0.65380 0.86150 0.35080 0.11300
C 	C 	0.53016 0.93857 0.43576 0.37300
C 	C 	0.65096 0.79779 0.27592 0.24700
C 	C 	0.68812 0.76112 0.27560 -0.30400
H 	H 	0.68340 0.73130 0.29300 0.14100
N 	N 	0.29034 0.10588 0.80376 -0.20300
O 	O 	0.06940 0.02441 0.76260 -0.42500
O 	O 	0.07097 0.01920 0.84543 -0.41900
O 	O 	0.43467 0.98525 0.94922 -0.36500
O 	O 	0.47210 0.06159 0.94963 -0.38200
C 	C 	0.09058 0.02854 0.80386 0.37800
C 	C 	0.14371 0.04668 0.80350 -0.17100
C 	C 	0.16941 0.05330 0.84839 0.11200
H 	H 	0.15400 0.04520 0.87810 0.00600
C 	C 	0.21803 0.07211 0.84771 -0.21900
H 	H 	0.23530 0.07640 0.87720 0.11300
C 	C 	0.24110 0.08447 0.80393 0.18900
C 	C 	0.21559 0.07812 0.76057 -0.22500
H 	H 	0.23090 0.08690 0.73100 0.11000
C 	C 	0.16737 0.05876 0.76022 0.12100
H 	H 	0.15090 0.05390 0.73040 -0.00200
C 	C 	0.32767 0.08682 0.83511 0.15400
C 	C 	0.33075 0.03636 0.84661 -0.15700
H 	H 	0.30740 0.01440 0.83280 0.08500
C 	C 	0.36591 0.01773 0.87677 0.01800
H 	H 	0.36730 0.98330 0.88280 0.06200
C 	C 	0.40109 0.05034 0.89960 -0.10700
C 	C 	0.39886 0.10035 0.88734 0.07600
H 	H 	0.42290 0.12210 0.90030 0.02300
C 	C 	0.36286 0.11940 0.85702 -0.17900
H 	H 	0.36150 0.15380 0.85080 0.09900
C 	C 	0.43857 0.03016 0.93576 0.31900
C 	C 	0.29779 0.15096 0.77592 0.24400
C 	C 	0.26112 0.18812 0.77560 -0.30100
H 	H 	0.23130 0.18340 0.79300 0.13900
N 	N 	0.70966 0.89412 0.80376 -0.21500
O 	O 	0.93060 0.97559 0.76260 -0.38800
O 	O 	0.92903 0.98080 0.84543 -0.38300
O 	O 	0.56533 0.01475 0.94922 -0.43000
O 	O 	0.52790 0.93841 0.94963 -0.39800
C 	C 	0.90942 0.97146 0.80386 0.37400
C 	C 	0.85629 0.95332 0.80350 -0.15400
C 	C 	0.83059 0.94670 0.84839 0.11000
H 	H 	0.84600 0.95480 0.87810 0.01800
C 	C 	0.78197 0.92789 0.84771 -0.21200
H 	H 	0.76470 0.92360 0.87720 0.11600
C 	C 	0.75890 0.91553 0.80393 0.19000
C 	C 	0.78441 0.92188 0.76057 -0.21700
H 	H 	0.76910 0.91310 0.73100 0.11300
C 	C 	0.83263 0.94124 0.76022 0.11700
H 	H 	0.84910 0.94610 0.73040 0.01100
C 	C 	0.67233 0.91318 0.83511 0.23000
C 	C 	0.66925 0.96364 0.84661 -0.29600
H 	H 	0.69260 0.98560 0.83280 0.14600
C 	C 	0.63409 0.98227 0.87677 0.23300
H 	H 	0.63270 0.01670 0.88280 -0.05000
C 	C 	0.59891 0.94966 0.89960 -0.21700
C 	C 	0.60114 0.89965 0.88734 0.17300
H 	H 	0.57710 0.87790 0.90030 -0.00700
C 	C 	0.63714 0.88060 0.85702 -0.25900
H 	H 	0.63850 0.84620 0.85080 0.12800
C 	C 	0.56143 0.96984 0.93576 0.42500
C 	C 	0.70221 0.84904 0.77592 0.25000
C 	C 	0.73888 0.81188 0.77560 -0.30400
H 	H 	0.76870 0.81660 0.79300 0.14500
N 	N 	0.89412 0.29034 0.80376 -0.21600
O 	O 	0.97559 0.06940 0.76260 -0.40500
O 	O 	0.98080 0.07097 0.84543 -0.39900
O 	O 	0.01475 0.43467 0.94922 -0.43000
O 	O 	0.93841 0.47210 0.94963 -0.39900
C 	C 	0.97146 0.09058 0.80386 0.37600
C 	C 	0.95332 0.14371 0.80350 -0.16200
C 	C 	0.94670 0.16941 0.84839 0.11200
H 	H 	0.95480 0.15400 0.87810 0.01300
C 	C 	0.92789 0.21803 0.84771 -0.21700
H 	H 	0.92360 0.23530 0.87720 0.11600
C 	C 	0.91553 0.24110 0.80393 0.19200
C 	C 	0.92188 0.21559 0.76057 -0.22200
H 	H 	0.91310 0.23090 0.73100 0.11300
C 	C 	0.94124 0.16737 0.76022 0.12000
H 	H 	0.94610 0.15090 0.73040 0.00500
C 	C 	0.91318 0.32767 0.83511 0.23100
C 	C 	0.96364 0.33075 0.84661 -0.29700
H 	H 	0.98560 0.30740 0.83280 0.14600
C 	C 	0.98227 0.36591 0.87677 0.23400
H 	H 	0.01670 0.36730 0.88280 -0.05200
C 	C 	0.94966 0.40109 0.89960 -0.21800
C 	C 	0.89965 0.39886 0.88734 0.17300
H 	H 	0.87790 0.42290 0.90030 -0.00800
C 	C 	0.88060 0.36286 0.85702 -0.26000
H 	H 	0.84620 0.36150 0.85080 0.12700
C 	C 	0.96984 0.43857 0.93576 0.42500
C 	C 	0.84904 0.29779 0.77592 0.24900
C 	C 	0.81188 0.26112 0.77560 -0.30500
H 	H 	0.81660 0.23130 0.79300 0.14100
N 	N 	0.10588 0.70966 0.80376 -0.20300
O 	O 	0.02441 0.93060 0.76260 -0.40500
O 	O 	0.01920 0.92903 0.84543 -0.40100
O 	O 	0.98525 0.56533 0.94922 -0.36500
O 	O 	0.06159 0.52790 0.94963 -0.38200
C 	C 	0.02854 0.90942 0.80386 0.37600
C 	C 	0.04668 0.85629 0.80350 -0.16200
C 	C 	0.05330 0.83059 0.84839 0.10900
H 	H 	0.04520 0.84600 0.87810 0.01200
C 	C 	0.07211 0.78197 0.84771 -0.21400
H 	H 	0.07640 0.76470 0.87720 0.11300
C 	C 	0.08447 0.75890 0.80393 0.18700
C 	C 	0.07812 0.78441 0.76057 -0.22000
H 	H 	0.08690 0.76910 0.73100 0.11000
C 	C 	0.05876 0.83263 0.76022 0.11800
H 	H 	0.05390 0.84910 0.73040 0.00500
C 	C 	0.08682 0.67233 0.83511 0.15600
C 	C 	0.03636 0.66925 0.84661 -0.15800
H 	H 	0.01440 0.69260 0.83280 0.08600
C 	C 	0.01773 0.63409 0.87677 0.02000
H 	H 	0.98330 0.63270 0.88280 0.06100
C 	C 	0.05034 0.59891 0.89960 -0.10800
C 	C 	0.10035 0.60114 0.88734 0.07700
H 	H 	0.12210 0.57710 0.90030 0.02300
C 	C 	0.11940 0.63714 0.85702 -0.17900
H 	H 	0.15380 0.63850 0.85080 0.10000
C 	C 	0.03016 0.56143 0.93576 0.32000
C 	C 	0.15096 0.70221 0.77592 0.24500
C 	C 	0.18812 0.73888 0.77560 -0.30000
H 	H 	0.18340 0.76870 0.79300 0.14300
N 	N 	0.20966 0.60588 0.69624 -0.21000
O 	O 	0.43060 0.52441 0.73740 -0.41000
O 	O 	0.42903 0.51920 0.65457 -0.41000
O 	O 	0.06533 0.48525 0.55078 -0.42000
O 	O 	0.02790 0.56159 0.55037 -0.41600
C 	C 	0.40942 0.52854 0.69614 0.37800
C 	C 	0.35629 0.54668 0.69650 -0.16500
C 	C 	0.33059 0.55330 0.65161 0.11100
H 	H 	0.34600 0.54520 0.62190 0.00700
C 	C 	0.28197 0.57211 0.65229 -0.21700
H 	H 	0.26470 0.57640 0.62280 0.11100
C 	C 	0.25890 0.58447 0.69607 0.18900
C 	C 	0.28441 0.57812 0.73943 -0.22200
H 	H 	0.26910 0.58690 0.76900 0.11300
C 	C 	0.33263 0.55876 0.73978 0.12000
H 	H 	0.34910 0.55390 0.76960 0.00600
C 	C 	0.17233 0.58682 0.66489 0.19500
C 	C 	0.16925 0.53636 0.65339 -0.23400
H 	H 	0.19260 0.51440 0.66720 0.11600
C 	C 	0.13409 0.51773 0.62323 0.13000
H 	H 	0.13270 0.48330 0.61720 -0.00200
C 	C 	0.09891 0.55034 0.60040 -0.17400
C 	C 	0.10114 0.60035 0.61266 0.13000
H 	H 	0.07710 0.62210 0.59970 -0.00100
C 	C 	0.13714 0.61940 0.64298 -0.22600
H 	H 	0.13850 0.65380 0.64920 0.11300
C 	C 	0.06143 0.53016 0.56424 0.37600
C 	C 	0.20221 0.65096 0.72408 0.24500
C 	C 	0.23888 0.68812 0.72440 -0.30100
H 	H 	0.26870 0.68340 0.70700 0.14100
N 	N 	0.79034 0.39412 0.69624 -0.21000
O 	O 	0.56940 0.47559 0.73740 -0.41000
O 	O 	0.57097 0.48080 0.65457 -0.41000
O 	O 	0.93467 0.51475 0.55078 -0.40500
O 	O 	0.97210 0.43841 0.55037 -0.39400
C 	C 	0.59058 0.47146 0.69614 0.37800
C 	C 	0.64371 0.45332 0.69650 -0.16400
C 	C 	0.66941 0.44670 0.65161 0.11100
H 	H 	0.65400 0.45480 0.62190 0.00700
C 	C 	0.71803 0.42789 0.65229 -0.21700
H 	H 	0.73530 0.42360 0.62280 0.11100
C 	C 	0.74110 0.41553 0.69607 0.18900
C 	C 	0.71559 0.42188 0.73943 -0.22100
H 	H 	0.73090 0.41310 0.76900 0.11300
C 	C 	0.66737 0.44124 0.73978 0.12000
H 	H 	0.65090 0.44610 0.76960 0.00600
C 	C 	0.82767 0.41318 0.66489 0.19300
C 	C 	0.83075 0.46364 0.65339 -0.22800
H 	H 	0.80740 0.48560 0.66720 0.11600
C 	C 	0.86591 0.48227 0.62323 0.12700
H 	H 	0.86730 0.51670 0.61720 0.00500
C 	C 	0.90109 0.44966 0.60040 -0.16400
C 	C 	0.89886 0.39965 0.61266 0.12500
H 	H 	0.92290 0.37790 0.59970 0.00600
C 	C 	0.86286 0.38060 0.64298 -0.22100
H 	H 	0.86150 0.34620 0.64920 0.11200
C 	C 	0.93857 0.46984 0.56424 0.37300
C 	C 	0.79779 0.34904 0.72408 0.24800
C 	C 	0.76112 0.31188 0.72440 -0.30500
H 	H 	0.73130 0.31660 0.70700 0.14100
N 	N 	0.60588 0.79034 0.69624 -0.21000
O 	O 	0.52441 0.56940 0.73740 -0.41000
O 	O 	0.51920 0.57097 0.65457 -0.40900
O 	O 	0.48525 0.93467 0.55078 -0.40600
O 	O 	0.56159 0.97210 0.55037 -0.39300
C 	C 	0.52854 0.59058 0.69614 0.37800
C 	C 	0.54668 0.64371 0.69650 -0.16400
C 	C 	0.55330 0.66941 0.65161 0.11100
H 	H 	0.54520 0.65400 0.62190 0.00800
C 	C 	0.57211 0.71803 0.65229 -0.21700
H 	H 	0.57640 0.73530 0.62280 0.11100
C 	C 	0.58447 0.74110 0.69607 0.19000
C 	C 	0.57812 0.71559 0.73943 -0.22100
H 	H 	0.58690 0.73090 0.76900 0.11400
C 	C 	0.55876 0.66737 0.73978 0.12100
H 	H 	0.55390 0.65090 0.76960 0.00700
C 	C 	0.58682 0.82767 0.66489 0.19300
C 	C 	0.53636 0.83075 0.65339 -0.22800
H 	H 	0.51440 0.80740 0.66720 0.11600
C 	C 	0.51773 0.86591 0.62323 0.12700
H 	H 	0.48330 0.86730 0.61720 0.00400
C 	C 	0.55034 0.90109 0.60040 -0.16400
C 	C 	0.60035 0.89886 0.61266 0.12500
H 	H 	0.62210 0.92290 0.59970 0.00700
C 	C 	0.61940 0.86286 0.64298 -0.22100
H 	H 	0.65380 0.86150 0.64920 0.11300
C 	C 	0.53016 0.93857 0.56424 0.37300
C 	C 	0.65096 0.79779 0.72408 0.24900
C 	C 	0.68812 0.76112 0.72440 -0.30400
H 	H 	0.68340 0.73130 0.70700 0.14200
N 	N 	0.39412 0.20966 0.69624 -0.21000
O 	O 	0.47559 0.43060 0.73740 -0.41000
O 	O 	0.48080 0.42903 0.65457 -0.41000
O 	O 	0.51475 0.06533 0.55078 -0.42000
O 	O 	0.43841 0.02790 0.55037 -0.41700
C 	C 	0.47146 0.40942 0.69614 0.37800
C 	C 	0.45332 0.35629 0.69650 -0.16500
C 	C 	0.44670 0.33059 0.65161 0.11000
H 	H 	0.45480 0.34600 0.62190 0.00700
C 	C 	0.42789 0.28197 0.65229 -0.21700
H 	H 	0.42360 0.26470 0.62280 0.11000
C 	C 	0.41553 0.25890 0.69607 0.18900
C 	C 	0.42188 0.28441 0.73943 -0.22200
H 	H 	0.41310 0.26910 0.76900 0.11300
C 	C 	0.44124 0.33263 0.73978 0.12000
H 	H 	0.44610 0.34910 0.76960 0.00600
C 	C 	0.41318 0.17233 0.66489 0.19400
C 	C 	0.46364 0.16925 0.65339 -0.23300
H 	H 	0.48560 0.19260 0.66720 0.11600
C 	C 	0.48227 0.13409 0.62323 0.13000
H 	H 	0.51670 0.13270 0.61720 -0.00200
C 	C 	0.44966 0.09891 0.60040 -0.17400
C 	C 	0.39965 0.10114 0.61266 0.12900
H 	H 	0.37790 0.07710 0.59970 -0.00200
C 	C 	0.38060 0.13714 0.64298 -0.22600
H 	H 	0.34620 0.13850 0.64920 0.11100
C 	C 	0.46984 0.06143 0.56424 0.37600
C 	C 	0.34904 0.20221 0.72408 0.24400
C 	C 	0.31188 0.23888 0.72440 -0.30100
H 	H 	0.31660 0.26870 0.70700 0.13900
Cu	Cu	0.00000 0.00000 0.14756 0.87800
Cu	Cu	0.00000 0.00000 0.24479 0.88000
Cu	Cu	0.50000 0.50000 0.35244 0.90200
Cu	Cu	0.50000 0.50000 0.25521 0.90100
Cu	Cu	0.00000 0.00000 0.85244 0.88100
Cu	Cu	-0.00000 0.00000 0.75521 0.87900
Cu	Cu	0.50000 0.50000 0.64756 0.90200
Cu	Cu	0.50000 0.50000 0.74479 0.90300
Cu	Cu	0.52209 0.04421 -0.00000 0.88500
Cu	Cu	0.47791 0.95579 -0.00000 0.89200
Cu	Cu	0.95579 0.52209 -0.00000 0.89200
Cu	Cu	0.04421 0.47791 -0.00000 0.88500
Cu	Cu	0.97791 0.54421 0.50000 0.91500
Cu	Cu	0.02209 0.45579 0.50000 0.89100
Cu	Cu	0.54421 0.02209 0.50000 0.89100
Cu	Cu	0.45579 0.97791 0.50000 0.91500
C 	C 	0.65870 0.84130 0.25000 -0.32000
H 	H 	0.63400 0.86600 0.25000 0.15000
C 	C 	0.73125 0.76875 0.25000 0.22600
H 	H 	0.75600 0.74400 0.25000 -0.04700
C 	C 	0.34130 0.15870 0.25000 -0.31500
H 	H 	0.36600 0.13400 0.25000 0.14600
C 	C 	0.26875 0.23125 0.25000 0.22000
H 	H 	0.24400 0.25600 0.25000 -0.05000
C 	C 	0.15870 0.65870 0.25000 -0.31500
H 	H 	0.13400 0.63400 0.25000 0.14600
C 	C 	0.23125 0.73125 0.25000 0.22200
H 	H 	0.25600 0.75600 0.25000 -0.04600
C 	C 	0.84130 0.34130 0.25000 -0.32000
H 	H 	0.86600 0.36600 0.25000 0.15000
C 	C 	0.76875 0.26875 0.25000 0.22400
H 	H 	0.74400 0.24400 0.25000 -0.05100
C 	C 	0.34130 0.15870 0.75000 -0.31500
H 	H 	0.36600 0.13400 0.75000 0.14600
C 	C 	0.26875 0.23125 0.75000 0.22200
H 	H 	0.24400 0.25600 0.75000 -0.04800
C 	C 	0.65870 0.84130 0.75000 -0.32000
H 	H 	0.63400 0.86600 0.75000 0.15100
C 	C 	0.73125 0.76875 0.75000 0.22800
H 	H 	0.75600 0.74400 0.75000 -0.04500
C 	C 	0.84130 0.34130 0.75000 -0.32000
H 	H 	0.86600 0.36600 0.75000 0.15100
C 	C 	0.76875 0.26875 0.75000 0.22700
H 	H 	0.74400 0.24400 0.75000 -0.04900
C 	C 	0.15870 0.65870 0.75000 -0.31500
H 	H 	0.13400 0.63400 0.75000 0.14700
C 	C 	0.23125 0.73125 0.75000 0.22400
H 	H 	0.25600 0.75600 0.75000 -0.04400
