data_crystal

_cell_length_a 9.94350
_cell_length_b 13.39660
_cell_length_c 16.56490
_cell_angle_alpha 97.29200
_cell_angle_beta  101.94300
_cell_angle_gamma 100.46300

_symmetry_space_group_name_	'P 1'
_symmetry_space_group_name_H-M	'P 1'

loop_
_symmetry_equiv_pos_as_xyz
  x,y,z

loop_
_atom_site_label
_atom_site_type_symbol
_atom_site_fract_x
_atom_site_fract_y
_atom_site_fract_z
_atom_site_charge
Co	Co	0.61666 0.73918 0.03436 1.16600
Co	Co	0.63631 0.71035 0.21763 1.12400
Co	Co	0.62823 0.47616 0.06355 1.18000
O 	O 	0.47550 0.70530 0.11281 -0.57700
O 	O 	0.28860 0.59680 0.02797 -0.43600
O 	O 	0.77270 0.71720 0.13508 -0.56100
O 	O 	0.83010 0.56480 0.10811 -0.43900
O 	O 	0.48790 0.32420 0.40500 -0.18000
O 	O 	0.31410 0.29310 0.46640 -0.49800
H 	H 	0.29740 0.35090 0.46710 0.28700
O 	O 	0.66840 0.36560 0.13718 -0.44600
O 	O 	0.52620 0.22450 0.05530 -0.45700
O 	O 	0.65850 0.88950 0.09865 -0.42100
O 	O 	0.67160 0.86650 0.23282 -0.43100
O 	O 	0.19260 0.28130 0.68960 -0.42800
O 	O 	0.20870 0.44320 0.66580 -0.29700
O 	O 	0.58110 0.58630 0.98540 -1.31900
C 	C 	0.19880 0.86140 0.21570 -0.05700
C 	C 	0.29210 0.81320 0.18110 0.02100
H 	H 	0.38640 0.84600 0.19220 0.02100
C 	C 	0.24610 0.71660 0.13040 -0.14900
C 	C 	0.10620 0.66630 0.11530 0.06400
H 	H 	0.07560 0.60150 0.08190 0.03100
C 	C 	0.01110 0.71250 0.14980 -0.13100
C 	C 	0.05750 0.81010 0.19960 0.02200
H 	H 	0.99420 0.84130 0.22220 0.03600
C 	C 	0.34330 0.66820 0.08770 0.39300
C 	C 	0.86000 0.65970 0.12970 0.38200
C 	C 	0.24690 0.96630 0.26750 0.10200
C 	C 	0.35640 0.03720 0.25260 -0.15700
H 	H 	0.40100 0.01810 0.21080 0.09100
C 	C 	0.39940 0.13500 0.29880 0.08000
H 	H 	0.47470 0.18050 0.28920 0.01700
C 	C 	0.33140 0.16640 0.35960 -0.15200
C 	C 	0.22200 0.09650 0.37540 0.08300
H 	H 	0.17710 0.11610 0.41690 0.02200
C 	C 	0.18030 0.99840 0.32960 -0.15600
H 	H 	0.10630 0.95250 0.34010 0.09000
C 	C 	0.37600 0.27350 0.40740 0.41100
C 	C 	0.79330 0.18240 0.31650 -0.04000
C 	C 	0.74540 0.24560 0.26080 0.00500
H 	H 	0.76160 0.31630 0.27890 0.05000
C 	C 	0.67400 0.20390 0.17880 -0.10500
C 	C 	0.65220 0.09830 0.14960 0.03400
H 	H 	0.60690 0.07100 0.09410 0.04500
C 	C 	0.69900 0.03420 0.20460 -0.10200
C 	C 	0.76720 0.07650 0.28690 0.00700
H 	H 	0.79650 0.03320 0.32350 0.04100
C 	C 	0.61970 0.27200 0.11900 0.38900
C 	C 	0.67440 0.92050 0.17590 0.37000
C 	C 	0.87500 0.22530 0.40430 0.10100
C 	C 	0.90950 0.32910 0.43530 -0.14800
H 	H 	0.87230 0.37390 0.40290 0.09800
C 	C 	0.99900 0.36920 0.51410 0.07100
H 	H 	0.02110 0.44000 0.53260 0.01800
C 	C 	0.05470 0.30610 0.56450 -0.12600
C 	C 	0.01240 0.20160 0.53680 0.07200
H 	H 	0.04380 0.15660 0.57110 0.02000
C 	C 	0.92390 0.16220 0.45870 -0.14400
H 	H 	0.89630 0.09110 0.44220 0.08200
C 	C 	0.15970 0.34810 0.64650 0.34800
H 	H 	0.61300 0.58800 0.95500 0.70900
O 	O 	0.44460 0.34710 0.37870 -0.12600
Co	Co	0.38334 0.26082 0.96564 1.16600
Co	Co	0.36369 0.28965 0.78237 1.12400
Co	Co	0.37177 0.52384 0.93645 1.18000
O 	O 	0.52450 0.29470 0.88719 -0.57700
O 	O 	0.71140 0.40320 0.97203 -0.43600
O 	O 	0.22730 0.28280 0.86492 -0.56100
O 	O 	0.16990 0.43520 0.89189 -0.43900
O 	O 	0.51210 0.67580 0.59500 -0.18000
O 	O 	0.68590 0.70690 0.53360 -0.49800
H 	H 	0.70260 0.64910 0.53290 0.28700
O 	O 	0.33160 0.63440 0.86282 -0.44600
O 	O 	0.47380 0.77550 0.94470 -0.45700
O 	O 	0.34150 0.11050 0.90135 -0.42100
O 	O 	0.32840 0.13350 0.76718 -0.43100
O 	O 	0.80740 0.71870 0.31040 -0.42800
O 	O 	0.79130 0.55680 0.33420 -0.29700
O 	O 	0.41890 0.41370 0.01460 -1.31900
C 	C 	0.80120 0.13860 0.78430 -0.05700
C 	C 	0.70790 0.18680 0.81890 0.02100
H 	H 	0.61360 0.15400 0.80780 0.02100
C 	C 	0.75390 0.28340 0.86960 -0.14900
C 	C 	0.89380 0.33370 0.88470 0.06400
H 	H 	0.92440 0.39850 0.91810 0.03100
C 	C 	0.98890 0.28750 0.85020 -0.13100
C 	C 	0.94250 0.18990 0.80040 0.02200
H 	H 	0.00580 0.15870 0.77780 0.03600
C 	C 	0.65670 0.33180 0.91230 0.39300
C 	C 	0.14000 0.34030 0.87030 0.38200
C 	C 	0.75310 0.03370 0.73250 0.10200
C 	C 	0.64360 0.96280 0.74740 -0.15700
H 	H 	0.59900 0.98190 0.78920 0.09100
C 	C 	0.60060 0.86500 0.70120 0.08000
H 	H 	0.52530 0.81950 0.71080 0.01700
C 	C 	0.66860 0.83360 0.64040 -0.15200
C 	C 	0.77800 0.90350 0.62460 0.08300
H 	H 	0.82290 0.88390 0.58310 0.02200
C 	C 	0.81970 0.00160 0.67040 -0.15600
H 	H 	0.89370 0.04750 0.65990 0.09000
C 	C 	0.62400 0.72650 0.59260 0.41100
C 	C 	0.20670 0.81760 0.68350 -0.04000
C 	C 	0.25460 0.75440 0.73920 0.00500
H 	H 	0.23840 0.68370 0.72110 0.05000
C 	C 	0.32600 0.79610 0.82120 -0.10500
C 	C 	0.34780 0.90170 0.85040 0.03400
H 	H 	0.39310 0.92900 0.90590 0.04500
C 	C 	0.30100 0.96580 0.79540 -0.10200
C 	C 	0.23280 0.92350 0.71310 0.00700
H 	H 	0.20350 0.96680 0.67650 0.04100
C 	C 	0.38030 0.72800 0.88100 0.38900
C 	C 	0.32560 0.07950 0.82410 0.37000
C 	C 	0.12500 0.77470 0.59570 0.10100
C 	C 	0.09050 0.67090 0.56470 -0.14800
H 	H 	0.12770 0.62610 0.59710 0.09800
C 	C 	0.00100 0.63080 0.48590 0.07100
H 	H 	0.97890 0.56000 0.46740 0.01800
C 	C 	0.94530 0.69390 0.43550 -0.12600
C 	C 	0.98760 0.79840 0.46320 0.07200
H 	H 	0.95620 0.84340 0.42890 0.02000
C 	C 	0.07610 0.83780 0.54130 -0.14400
H 	H 	0.10370 0.90890 0.55780 0.08200
C 	C 	0.84030 0.65190 0.35350 0.34800
H 	H 	0.38700 0.41200 0.04500 0.70900
O 	O 	0.55540 0.65290 0.62130 -0.12600
