data_crystal

_cell_length_a 9.33660
_cell_length_b 21.91700
_cell_length_c 24.05700
_cell_angle_alpha 90.00000
_cell_angle_beta  90.00000
_cell_angle_gamma 90.00000

_symmetry_space_group_name_	'P 1'
_symmetry_space_group_name_H-M	'P 1'

loop_
_symmetry_equiv_pos_as_xyz
  x,y,z

loop_
_atom_site_label
_atom_site_type_symbol
_atom_site_fract_x
_atom_site_fract_y
_atom_site_fract_z
_atom_site_charge
In	In	0.15952 0.10985 0.02502 1.98800
In	In	0.82446 0.26398 0.17820 2.00000
O 	O 	0.96570 0.11250 0.07670 -0.43300
O 	O 	0.17560 0.19590 0.07980 -0.41000
O 	O 	0.03740 0.25460 0.13350 -0.39900
O 	O 	0.83760 0.16930 0.13480 -0.36300
O 	O 	0.85480 0.98880 0.95570 -0.42900
O 	O 	0.99220 0.07070 0.96690 -0.39000
O 	O 	0.93470 0.20960 0.24260 -0.41200
O 	O 	0.98330 0.32840 0.22370 -0.34800
O 	O 	0.18440 0.32400 0.27430 -0.40900
O 	O 	0.14020 0.20450 0.29090 -0.37500
O 	O 	0.66360 0.26530 0.10780 -0.39500
O 	O 	0.85570 0.35220 0.12840 -0.36700
O 	O 	0.79450 0.40080 0.05050 -0.43200
O 	O 	0.60380 0.31150 0.02800 -0.41900
N 	N 	0.36810 0.09830 0.06440 -0.29500
N 	N 	0.58270 0.11520 0.09990 -0.08000
C 	C 	0.94460 0.15890 0.10580 0.24500
C 	C 	0.06520 0.20700 0.10600 0.23900
C 	C 	0.95720 0.01710 0.97820 0.23600
C 	C 	0.04740 0.23160 0.26320 0.23900
C 	C 	0.07320 0.30100 0.25190 0.23000
C 	C 	0.67420 0.30740 0.07230 0.23000
C 	C 	0.78450 0.35810 0.08470 0.23700
C 	C 	0.45100 0.04660 0.05840 0.01700
H 	H 	0.42130 0.01010 0.04240 0.04300
C 	C 	0.45410 0.13790 0.08960 0.12000
H 	H 	0.42690 0.17740 0.09900 0.03200
C 	C 	0.58260 0.05760 0.07960 0.02600
H 	H 	0.65930 0.03050 0.08020 0.06900
In	In	0.34048 0.89015 0.52502 1.99000
In	In	0.67554 0.73602 0.67820 2.00100
O 	O 	0.53430 0.88750 0.57670 -0.43400
O 	O 	0.32440 0.80410 0.57980 -0.40900
O 	O 	0.46260 0.74540 0.63350 -0.39800
O 	O 	0.66240 0.83070 0.63480 -0.36300
O 	O 	0.64520 0.01120 0.45570 -0.42600
O 	O 	0.50780 0.92930 0.46690 -0.38900
O 	O 	0.56530 0.79040 0.74260 -0.41400
O 	O 	0.51670 0.67160 0.72370 -0.35000
O 	O 	0.31560 0.67600 0.77430 -0.40900
O 	O 	0.35980 0.79550 0.79090 -0.37500
O 	O 	0.83640 0.73470 0.60780 -0.39500
O 	O 	0.64430 0.64780 0.62840 -0.36700
O 	O 	0.70550 0.59920 0.55050 -0.43300
O 	O 	0.89620 0.68850 0.52800 -0.41900
N 	N 	0.13190 0.90170 0.56440 -0.29500
N 	N 	0.91730 0.88480 0.59990 -0.08000
C 	C 	0.55540 0.84110 0.60580 0.24300
C 	C 	0.43480 0.79300 0.60600 0.24100
C 	C 	0.54280 0.98290 0.47820 0.23400
C 	C 	0.45260 0.76840 0.76320 0.24100
C 	C 	0.42680 0.69900 0.75190 0.23200
C 	C 	0.82580 0.69260 0.57230 0.23000
C 	C 	0.71550 0.64190 0.58470 0.23700
C 	C 	0.04900 0.95340 0.55840 0.01900
H 	H 	0.07870 0.98990 0.54240 0.04200
C 	C 	0.04590 0.86210 0.58960 0.12100
H 	H 	0.07310 0.82260 0.59900 0.03200
C 	C 	0.91740 0.94240 0.57960 0.02400
H 	H 	0.84070 0.96950 0.58020 0.06900
In	In	0.84048 0.60985 0.47498 1.99000
In	In	0.17554 0.76398 0.32180 2.00100
O 	O 	0.03430 0.61250 0.42330 -0.43400
O 	O 	0.82440 0.69590 0.42020 -0.41000
O 	O 	0.96260 0.75460 0.36650 -0.39800
O 	O 	0.16240 0.66930 0.36520 -0.36300
O 	O 	0.14520 0.48880 0.54430 -0.42600
O 	O 	0.00780 0.57070 0.53310 -0.38900
O 	O 	0.06530 0.70960 0.25740 -0.41400
O 	O 	0.01670 0.82840 0.27630 -0.34900
O 	O 	0.81560 0.82400 0.22570 -0.40900
O 	O 	0.85980 0.70450 0.20910 -0.37500
O 	O 	0.33640 0.76530 0.39220 -0.39500
O 	O 	0.14430 0.85220 0.37160 -0.36700
O 	O 	0.20550 0.90080 0.44950 -0.43300
O 	O 	0.39620 0.81150 0.47200 -0.41900
N 	N 	0.63190 0.59830 0.43560 -0.29400
N 	N 	0.41730 0.61520 0.40010 -0.08000
C 	C 	0.05540 0.65890 0.39420 0.24300
C 	C 	0.93480 0.70700 0.39400 0.24100
C 	C 	0.04280 0.51710 0.52180 0.23400
C 	C 	0.95260 0.73160 0.23680 0.24100
C 	C 	0.92680 0.80100 0.24810 0.23200
C 	C 	0.32580 0.80740 0.42770 0.23000
C 	C 	0.21550 0.85810 0.41530 0.23700
C 	C 	0.54900 0.54660 0.44160 0.01700
H 	H 	0.57870 0.51010 0.45760 0.04300
C 	C 	0.54590 0.63790 0.41040 0.12000
H 	H 	0.57310 0.67740 0.40100 0.03200
C 	C 	0.41740 0.55760 0.42040 0.02700
H 	H 	0.34070 0.53050 0.41980 0.06800
In	In	0.65952 0.39015 0.97498 1.99000
In	In	0.32446 0.23602 0.82180 2.00100
O 	O 	0.46570 0.38750 0.92330 -0.43300
O 	O 	0.67560 0.30410 0.92020 -0.41000
O 	O 	0.53740 0.24540 0.86650 -0.39800
O 	O 	0.33760 0.33070 0.86520 -0.36300
O 	O 	0.35480 0.51120 0.04430 -0.42600
O 	O 	0.49220 0.42930 0.03310 -0.38900
O 	O 	0.43470 0.29040 0.75740 -0.41400
O 	O 	0.48330 0.17160 0.77630 -0.34900
O 	O 	0.68440 0.17600 0.72570 -0.40900
O 	O 	0.64020 0.29550 0.70910 -0.37500
O 	O 	0.16360 0.23470 0.89220 -0.39500
O 	O 	0.35570 0.14780 0.87160 -0.36700
O 	O 	0.29450 0.09920 0.94950 -0.43200
O 	O 	0.10380 0.18850 0.97200 -0.41800
N 	N 	0.86810 0.40170 0.93560 -0.29400
N 	N 	0.08270 0.38480 0.90010 -0.07900
C 	C 	0.44460 0.34110 0.89420 0.24300
C 	C 	0.56520 0.29300 0.89400 0.24100
C 	C 	0.45720 0.48290 0.02180 0.23400
C 	C 	0.54740 0.26840 0.73680 0.24100
C 	C 	0.57320 0.19900 0.74810 0.23200
C 	C 	0.17420 0.19260 0.92770 0.23000
C 	C 	0.28450 0.14190 0.91530 0.23700
C 	C 	0.95100 0.45340 0.94160 0.01400
H 	H 	0.92130 0.48990 0.95760 0.04300
C 	C 	0.95410 0.36210 0.91040 0.11800
H 	H 	0.92690 0.32260 0.90100 0.03200
C 	C 	0.08260 0.44240 0.92040 0.03000
H 	H 	0.15930 0.46950 0.91980 0.06800
In	In	0.84048 0.89015 0.97498 1.98900
In	In	0.17554 0.73602 0.82180 2.00100
O 	O 	0.03430 0.88750 0.92330 -0.43300
O 	O 	0.82440 0.80410 0.92020 -0.41000
O 	O 	0.96260 0.74540 0.86650 -0.39900
O 	O 	0.16240 0.83070 0.86520 -0.36300
O 	O 	0.14520 0.01120 0.04430 -0.42900
O 	O 	0.00780 0.92930 0.03310 -0.39000
O 	O 	0.06530 0.79040 0.75740 -0.41200
O 	O 	0.01670 0.67160 0.77630 -0.34800
O 	O 	0.81560 0.67600 0.72570 -0.40900
O 	O 	0.85980 0.79550 0.70910 -0.37500
O 	O 	0.33640 0.73470 0.89220 -0.39500
O 	O 	0.14430 0.64780 0.87160 -0.36700
O 	O 	0.20550 0.59920 0.94950 -0.43200
O 	O 	0.39620 0.68850 0.97200 -0.41900
N 	N 	0.63190 0.90170 0.93560 -0.29500
N 	N 	0.41730 0.88480 0.90010 -0.08000
C 	C 	0.05540 0.84110 0.89420 0.24500
C 	C 	0.93480 0.79300 0.89400 0.23900
C 	C 	0.04280 0.98290 0.02180 0.23600
C 	C 	0.95260 0.76840 0.73680 0.23900
C 	C 	0.92680 0.69900 0.74810 0.23000
C 	C 	0.32580 0.69260 0.92770 0.23000
C 	C 	0.21550 0.64190 0.91530 0.23700
C 	C 	0.54900 0.95340 0.94160 0.01700
H 	H 	0.57870 0.98990 0.95760 0.04300
C 	C 	0.54590 0.86210 0.91040 0.12000
H 	H 	0.57310 0.82260 0.90100 0.03200
C 	C 	0.41740 0.94240 0.92040 0.02600
H 	H 	0.34070 0.96950 0.91980 0.06900
In	In	0.65952 0.10985 0.47498 1.99000
In	In	0.32446 0.26398 0.32180 2.00100
O 	O 	0.46570 0.11250 0.42330 -0.43400
O 	O 	0.67560 0.19590 0.42020 -0.40900
O 	O 	0.53740 0.25460 0.36650 -0.39800
O 	O 	0.33760 0.16930 0.36520 -0.36300
O 	O 	0.35480 0.98880 0.54430 -0.42600
O 	O 	0.49220 0.07070 0.53310 -0.38900
O 	O 	0.43470 0.20960 0.25740 -0.41400
O 	O 	0.48330 0.32840 0.27630 -0.35000
O 	O 	0.68440 0.32400 0.22570 -0.40900
O 	O 	0.64020 0.20450 0.20910 -0.37500
O 	O 	0.16360 0.26530 0.39220 -0.39500
O 	O 	0.35570 0.35220 0.37160 -0.36700
O 	O 	0.29450 0.40080 0.44950 -0.43300
O 	O 	0.10380 0.31150 0.47200 -0.41900
N 	N 	0.86810 0.09830 0.43560 -0.29500
N 	N 	0.08270 0.11520 0.40010 -0.08000
C 	C 	0.44460 0.15890 0.39420 0.24300
C 	C 	0.56520 0.20700 0.39400 0.24100
C 	C 	0.45720 0.01710 0.52180 0.23400
C 	C 	0.54740 0.23160 0.23680 0.24100
C 	C 	0.57320 0.30100 0.24810 0.23200
C 	C 	0.17420 0.30740 0.42770 0.23000
C 	C 	0.28450 0.35810 0.41530 0.23700
C 	C 	0.95100 0.04660 0.44160 0.01900
H 	H 	0.92130 0.01010 0.45760 0.04200
C 	C 	0.95410 0.13790 0.41040 0.12100
H 	H 	0.92690 0.17740 0.40100 0.03200
C 	C 	0.08260 0.05760 0.42040 0.02400
H 	H 	0.15930 0.03050 0.41980 0.06900
In	In	0.15952 0.39015 0.52502 1.99000
In	In	0.82446 0.23602 0.67820 2.00100
O 	O 	0.96570 0.38750 0.57670 -0.43400
O 	O 	0.17560 0.30410 0.57980 -0.41000
O 	O 	0.03740 0.24540 0.63350 -0.39800
O 	O 	0.83760 0.33070 0.63480 -0.36300
O 	O 	0.85480 0.51120 0.45570 -0.42600
O 	O 	0.99220 0.42930 0.46690 -0.38900
O 	O 	0.93470 0.29040 0.74260 -0.41400
O 	O 	0.98330 0.17160 0.72370 -0.34900
O 	O 	0.18440 0.17600 0.77430 -0.40900
O 	O 	0.14020 0.29550 0.79090 -0.37500
O 	O 	0.66360 0.23470 0.60780 -0.39500
O 	O 	0.85570 0.14780 0.62840 -0.36700
O 	O 	0.79450 0.09920 0.55050 -0.43300
O 	O 	0.60380 0.18850 0.52800 -0.41900
N 	N 	0.36810 0.40170 0.56440 -0.29400
N 	N 	0.58270 0.38480 0.59990 -0.08000
C 	C 	0.94460 0.34110 0.60580 0.24300
C 	C 	0.06520 0.29300 0.60600 0.24100
C 	C 	0.95720 0.48290 0.47820 0.23400
C 	C 	0.04740 0.26840 0.76320 0.24100
C 	C 	0.07320 0.19900 0.75190 0.23200
C 	C 	0.67420 0.19260 0.57230 0.23000
C 	C 	0.78450 0.14190 0.58470 0.23700
C 	C 	0.45100 0.45340 0.55840 0.01700
H 	H 	0.42130 0.48990 0.54240 0.04300
C 	C 	0.45410 0.36210 0.58960 0.12000
H 	H 	0.42690 0.32260 0.59900 0.03200
C 	C 	0.58260 0.44240 0.57960 0.02700
H 	H 	0.65930 0.46950 0.58020 0.06800
In	In	0.34048 0.60985 0.02502 1.99000
In	In	0.67554 0.76398 0.17820 2.00100
O 	O 	0.53430 0.61250 0.07670 -0.43300
O 	O 	0.32440 0.69590 0.07980 -0.41000
O 	O 	0.46260 0.75460 0.13350 -0.39800
O 	O 	0.66240 0.66930 0.13480 -0.36300
O 	O 	0.64520 0.48880 0.95570 -0.42600
O 	O 	0.50780 0.57070 0.96690 -0.38900
O 	O 	0.56530 0.70960 0.24260 -0.41400
O 	O 	0.51670 0.82840 0.22370 -0.34900
O 	O 	0.31560 0.82400 0.27430 -0.40900
O 	O 	0.35980 0.70450 0.29090 -0.37500
O 	O 	0.83640 0.76530 0.10780 -0.39500
O 	O 	0.64430 0.85220 0.12840 -0.36700
O 	O 	0.70550 0.90080 0.05050 -0.43200
O 	O 	0.89620 0.81150 0.02800 -0.41800
N 	N 	0.13190 0.59830 0.06440 -0.29400
N 	N 	0.91730 0.61520 0.09990 -0.07900
C 	C 	0.55540 0.65890 0.10580 0.24300
C 	C 	0.43480 0.70700 0.10600 0.24100
C 	C 	0.54280 0.51710 0.97820 0.23400
C 	C 	0.45260 0.73160 0.26320 0.24100
C 	C 	0.42680 0.80100 0.25190 0.23200
C 	C 	0.82580 0.80740 0.07230 0.23000
C 	C 	0.71550 0.85810 0.08470 0.23700
C 	C 	0.04900 0.54660 0.05840 0.01400
H 	H 	0.07870 0.51010 0.04240 0.04300
C 	C 	0.04590 0.63790 0.08960 0.11800
H 	H 	0.07310 0.67740 0.09900 0.03200
C 	C 	0.91740 0.55760 0.07960 0.03000
H 	H 	0.84070 0.53050 0.08020 0.06800
