data_crystal

_cell_length_a 36.41700
_cell_length_b 9.83100
_cell_length_c 10.99500
_cell_angle_alpha 90.00000
_cell_angle_beta  106.18900
_cell_angle_gamma 90.00000

_symmetry_space_group_name_	'P 1'
_symmetry_space_group_name_H-M	'P 1'

loop_
_symmetry_equiv_pos_as_xyz
  x,y,z

loop_
_atom_site_label
_atom_site_type_symbol
_atom_site_fract_x
_atom_site_fract_y
_atom_site_fract_z
_atom_site_charge
Cd	Cd	0.21025 0.66823 0.36660 1.17500
O 	O 	0.15334 0.69730 0.20340 -0.42300
C 	C 	0.02060 0.51510 0.03560 0.04900
C 	C 	0.13757 0.59430 0.23500 0.35300
C 	C 	0.09750 0.56220 0.16380 -0.13400
C 	C 	0.04150 0.61190 0.99490 -0.12100
H 	H 	0.02990 0.66250 0.92300 0.06500
C 	C 	0.07890 0.63600 0.05700 0.05300
H 	H 	0.09210 0.70320 0.02720 0.02000
C 	C 	0.07710 0.46670 0.20540 0.05200
H 	H 	0.08860 0.41690 0.27800 0.02100
N 	N 	0.23620 0.56830 0.55550 -0.27000
C 	C 	0.03940 0.44290 0.14070 -0.12000
H 	H 	0.02630 0.37480 0.16970 0.06500
C 	C 	0.22233 0.46540 0.60520 0.18200
O 	O 	0.15402 0.52290 0.32350 -0.41500
N 	N 	0.23355 0.46560 0.73220 -0.27800
N 	N 	0.25814 0.64120 0.65700 -0.25900
C 	C 	0.25539 0.57900 0.75810 0.09000
H 	H 	0.26720 0.60910 0.83980 -0.05200
N 	N 	0.20000 0.36520 0.53610 -0.33400
H 	H 	0.19420 0.36700 0.45470 0.14100
H 	H 	0.19170 0.30040 0.57390 0.14100
Cd	Cd	0.71025 0.16823 0.36660 1.17400
O 	O 	0.65334 0.19730 0.20340 -0.42400
C 	C 	0.52060 0.01510 0.03560 0.04700
C 	C 	0.63757 0.09430 0.23500 0.35200
C 	C 	0.59750 0.06220 0.16380 -0.13300
C 	C 	0.54150 0.11190 0.99490 -0.11900
H 	H 	0.52990 0.16250 0.92300 0.06500
C 	C 	0.57890 0.13600 0.05700 0.05100
H 	H 	0.59210 0.20320 0.02720 0.02000
C 	C 	0.57710 0.96670 0.20540 0.05100
H 	H 	0.58860 0.91690 0.27800 0.02100
N 	N 	0.73620 0.06830 0.55550 -0.27000
C 	C 	0.53940 0.94290 0.14070 -0.11900
H 	H 	0.52630 0.87480 0.16970 0.06500
C 	C 	0.72233 0.96540 0.60520 0.18200
O 	O 	0.65402 0.02290 0.32350 -0.41500
N 	N 	0.73355 0.96560 0.73220 -0.27800
N 	N 	0.75814 0.14120 0.65700 -0.25900
C 	C 	0.75539 0.07900 0.75810 0.09100
H 	H 	0.76720 0.10910 0.83980 -0.05200
N 	N 	0.70000 0.86520 0.53610 -0.33400
H 	H 	0.69420 0.86700 0.45470 0.14100
H 	H 	0.69170 0.80040 0.57390 0.14100
Cd	Cd	0.78975 0.66823 0.13340 1.17400
O 	O 	0.84666 0.69730 0.29660 -0.42400
C 	C 	0.97940 0.51510 0.46440 0.04900
C 	C 	0.86243 0.59430 0.26500 0.35300
C 	C 	0.90250 0.56220 0.33620 -0.13400
C 	C 	0.95850 0.61190 0.50510 -0.12100
H 	H 	0.97010 0.66250 0.57700 0.06500
C 	C 	0.92110 0.63600 0.44300 0.05300
H 	H 	0.90790 0.70320 0.47280 0.02000
C 	C 	0.92290 0.46670 0.29460 0.05200
H 	H 	0.91140 0.41690 0.22200 0.02100
N 	N 	0.76380 0.56830 0.94450 -0.26900
C 	C 	0.96060 0.44290 0.35930 -0.12000
H 	H 	0.97370 0.37480 0.33030 0.06500
C 	C 	0.77767 0.46540 0.89480 0.18200
O 	O 	0.84598 0.52290 0.17650 -0.41500
N 	N 	0.76645 0.46560 0.76780 -0.27800
N 	N 	0.74186 0.64120 0.84300 -0.25900
C 	C 	0.74461 0.57900 0.74190 0.09000
H 	H 	0.73280 0.60910 0.66020 -0.05200
N 	N 	0.80000 0.36520 0.96390 -0.33300
H 	H 	0.80580 0.36700 0.04530 0.14100
H 	H 	0.80830 0.30040 0.92610 0.14100
Cd	Cd	0.28975 0.16823 0.13340 1.17400
O 	O 	0.34666 0.19730 0.29660 -0.42400
C 	C 	0.47940 0.01510 0.46440 0.04800
C 	C 	0.36243 0.09430 0.26500 0.35300
C 	C 	0.40250 0.06220 0.33620 -0.13400
C 	C 	0.45850 0.11190 0.50510 -0.12100
H 	H 	0.47010 0.16250 0.57700 0.06600
C 	C 	0.42110 0.13600 0.44300 0.05300
H 	H 	0.40790 0.20320 0.47280 0.02000
C 	C 	0.42290 0.96670 0.29460 0.05200
H 	H 	0.41140 0.91690 0.22200 0.02100
N 	N 	0.26380 0.06830 0.94450 -0.26900
C 	C 	0.46060 0.94290 0.35930 -0.12000
H 	H 	0.47370 0.87480 0.33030 0.06500
C 	C 	0.27767 0.96540 0.89480 0.18100
O 	O 	0.34598 0.02290 0.17650 -0.41500
N 	N 	0.26645 0.96560 0.76780 -0.27800
N 	N 	0.24186 0.14120 0.84300 -0.25900
C 	C 	0.24461 0.07900 0.74190 0.09100
H 	H 	0.23280 0.10910 0.66020 -0.05200
N 	N 	0.30000 0.86520 0.96390 -0.33400
H 	H 	0.30580 0.86700 0.04530 0.14200
H 	H 	0.30830 0.80040 0.92610 0.14100
Cd	Cd	0.78975 0.33177 0.63340 1.17400
O 	O 	0.84666 0.30270 0.79660 -0.42400
C 	C 	0.97940 0.48490 0.96440 0.04900
C 	C 	0.86243 0.40570 0.76500 0.35300
C 	C 	0.90250 0.43780 0.83620 -0.13400
C 	C 	0.95850 0.38810 0.00510 -0.12100
H 	H 	0.97010 0.33750 0.07700 0.06500
C 	C 	0.92110 0.36400 0.94300 0.05300
H 	H 	0.90790 0.29680 0.97280 0.02000
C 	C 	0.92290 0.53330 0.79460 0.05200
H 	H 	0.91140 0.58310 0.72200 0.02100
N 	N 	0.76380 0.43170 0.44450 -0.27000
C 	C 	0.96060 0.55710 0.85930 -0.12000
H 	H 	0.97370 0.62520 0.83030 0.06500
C 	C 	0.77767 0.53460 0.39480 0.18200
O 	O 	0.84598 0.47710 0.67650 -0.41500
N 	N 	0.76645 0.53440 0.26780 -0.27800
N 	N 	0.74186 0.35880 0.34300 -0.25900
C 	C 	0.74461 0.42100 0.24190 0.09000
H 	H 	0.73280 0.39090 0.16020 -0.05200
N 	N 	0.80000 0.63480 0.46390 -0.33400
H 	H 	0.80580 0.63300 0.54530 0.14100
H 	H 	0.80830 0.69960 0.42610 0.14100
Cd	Cd	0.28975 0.83177 0.63340 1.17400
O 	O 	0.34666 0.80270 0.79660 -0.42400
C 	C 	0.47940 0.98490 0.96440 0.04700
C 	C 	0.36243 0.90570 0.76500 0.35200
C 	C 	0.40250 0.93780 0.83620 -0.13300
C 	C 	0.45850 0.88810 0.00510 -0.11900
H 	H 	0.47010 0.83750 0.07700 0.06500
C 	C 	0.42110 0.86400 0.94300 0.05100
H 	H 	0.40790 0.79680 0.97280 0.02000
C 	C 	0.42290 0.03330 0.79460 0.05100
H 	H 	0.41140 0.08310 0.72200 0.02100
N 	N 	0.26380 0.93170 0.44450 -0.27000
C 	C 	0.46060 0.05710 0.85930 -0.11900
H 	H 	0.47370 0.12520 0.83030 0.06500
C 	C 	0.27767 0.03460 0.39480 0.18200
O 	O 	0.34598 0.97710 0.67650 -0.41500
N 	N 	0.26645 0.03440 0.26780 -0.27800
N 	N 	0.24186 0.85880 0.34300 -0.25900
C 	C 	0.24461 0.92100 0.24190 0.09100
H 	H 	0.23280 0.89090 0.16020 -0.05200
N 	N 	0.30000 0.13480 0.46390 -0.33400
H 	H 	0.30580 0.13300 0.54530 0.14100
H 	H 	0.30830 0.19960 0.42610 0.14100
Cd	Cd	0.21025 0.33177 0.86660 1.17400
O 	O 	0.15334 0.30270 0.70340 -0.42400
C 	C 	0.02060 0.48490 0.53560 0.04900
C 	C 	0.13757 0.40570 0.73500 0.35300
C 	C 	0.09750 0.43780 0.66380 -0.13400
C 	C 	0.04150 0.38810 0.49490 -0.12100
H 	H 	0.02990 0.33750 0.42300 0.06500
C 	C 	0.07890 0.36400 0.55700 0.05300
H 	H 	0.09210 0.29680 0.52720 0.02000
C 	C 	0.07710 0.53330 0.70540 0.05200
H 	H 	0.08860 0.58310 0.77800 0.02100
N 	N 	0.23620 0.43170 0.05550 -0.26900
C 	C 	0.03940 0.55710 0.64070 -0.12000
H 	H 	0.02630 0.62520 0.66970 0.06500
C 	C 	0.22233 0.53460 0.10520 0.18200
O 	O 	0.15402 0.47710 0.82350 -0.41500
N 	N 	0.23355 0.53440 0.23220 -0.27800
N 	N 	0.25814 0.35880 0.15700 -0.25900
C 	C 	0.25539 0.42100 0.25810 0.09000
H 	H 	0.26720 0.39090 0.33980 -0.05200
N 	N 	0.20000 0.63480 0.03610 -0.33300
H 	H 	0.19420 0.63300 0.95470 0.14100
H 	H 	0.19170 0.69960 0.07390 0.14100
Cd	Cd	0.71025 0.83177 0.86660 1.17400
O 	O 	0.65334 0.80270 0.70340 -0.42400
C 	C 	0.52060 0.98490 0.53560 0.04800
C 	C 	0.63757 0.90570 0.73500 0.35300
C 	C 	0.59750 0.93780 0.66380 -0.13400
C 	C 	0.54150 0.88810 0.49490 -0.12100
H 	H 	0.52990 0.83750 0.42300 0.06600
C 	C 	0.57890 0.86400 0.55700 0.05300
H 	H 	0.59210 0.79680 0.52720 0.02000
C 	C 	0.57710 0.03330 0.70540 0.05200
H 	H 	0.58860 0.08310 0.77800 0.02100
N 	N 	0.73620 0.93170 0.05550 -0.26900
C 	C 	0.53940 0.05710 0.64070 -0.12000
H 	H 	0.52630 0.12520 0.66970 0.06500
C 	C 	0.72233 0.03460 0.10520 0.18100
O 	O 	0.65402 0.97710 0.82350 -0.41500
N 	N 	0.73355 0.03440 0.23220 -0.27800
N 	N 	0.75814 0.85880 0.15700 -0.25900
C 	C 	0.75539 0.92100 0.25810 0.09100
H 	H 	0.76720 0.89090 0.33980 -0.05200
N 	N 	0.70000 0.13480 0.03610 -0.33400
H 	H 	0.69420 0.13300 0.95470 0.14200
H 	H 	0.69170 0.19960 0.07390 0.14100
