data_crystal

_cell_length_a 17.20100
_cell_length_b 23.81000
_cell_length_c 13.60100
_cell_angle_alpha 90.00000
_cell_angle_beta  90.00000
_cell_angle_gamma 90.00000

_symmetry_space_group_name_	'P 1'
_symmetry_space_group_name_H-M	'P 1'

loop_
_symmetry_equiv_pos_as_xyz
  x,y,z

loop_
_atom_site_label
_atom_site_type_symbol
_atom_site_fract_x
_atom_site_fract_y
_atom_site_fract_z
_atom_site_charge
Co	Co	0.35195 0.57257 0.51642 1.15100
O 	O 	0.35710 0.49356 0.46560 -0.41300
O 	O 	0.30920 0.54821 0.34890 -0.35000
O 	O 	0.52800 0.09460 0.04770 -0.38300
O 	O 	0.61430 0.15810 0.01890 -0.42300
O 	O 	0.32750 0.31364 0.12380 -0.33100
N 	N 	0.40310 0.55496 0.65020 -0.23800
N 	N 	0.47370 0.50403 0.75140 -0.10100
N 	N 	0.63850 0.36994 0.87450 -0.10700
N 	N 	0.74030 0.40645 0.94920 -0.24800
C 	C 	0.33340 0.45160 0.30990 -0.20700
C 	C 	0.29710 0.45360 0.22060 0.17500
H 	H 	0.27170 0.48630 0.20160 -0.02600
C 	C 	0.29740 0.40750 0.15740 -0.30400
H 	H 	0.27210 0.40920 0.09700 0.14900
C 	C 	0.33560 0.35940 0.18590 0.32100
C 	C 	0.37330 0.35670 0.27520 -0.31200
H 	H 	0.39890 0.32400 0.29410 0.14200
C 	C 	0.37250 0.40290 0.33640 0.17400
H 	H 	0.39860 0.40150 0.39620 -0.01000
C 	C 	0.33220 0.50060 0.37690 0.33600
C 	C 	0.38660 0.27450 0.11270 0.32500
C 	C 	0.36330 0.22030 0.09660 -0.31600
H 	H 	0.31050 0.21210 0.09880 0.16700
C 	C 	0.41450 0.17800 0.07750 0.17600
H 	H 	0.39750 0.14120 0.06940 -0.01200
C 	C 	0.49200 0.19140 0.07050 -0.18200
C 	C 	0.51850 0.24550 0.08740 0.14100
H 	H 	0.57120 0.25380 0.08300 -0.00500
C 	C 	0.46350 0.28870 0.11170 -0.29200
H 	H 	0.47970 0.32510 0.12630 0.13400
C 	C 	0.55150 0.14270 0.04180 0.37900
C 	C 	0.44290 0.50810 0.66160 0.08000
H 	H 	0.44890 0.48110 0.61280 0.02500
C 	C 	0.45370 0.55180 0.79990 -0.01500
H 	H 	0.46730 0.56140 0.86390 0.03700
C 	C 	0.40990 0.58320 0.73660 0.01900
H 	H 	0.38830 0.61810 0.75050 0.01200
C 	C 	0.51910 0.45740 0.78920 -0.11300
H 	H 	0.54640 0.46940 0.84790 0.07600
H 	H 	0.55770 0.44680 0.74060 0.08400
C 	C 	0.46940 0.40590 0.81390 0.04000
C 	C 	0.50490 0.35350 0.81890 0.02600
C 	C 	0.45950 0.30670 0.84290 -0.06800
H 	H 	0.48260 0.27140 0.84600 0.05600
C 	C 	0.37980 0.31210 0.86230 -0.02700
H 	H 	0.35010 0.28050 0.87670 0.04600
C 	C 	0.34590 0.36430 0.86010 -0.02100
H 	H 	0.29350 0.36850 0.87520 0.04600
C 	C 	0.39100 0.41080 0.83490 -0.07800
H 	H 	0.36780 0.44600 0.83210 0.06900
C 	C 	0.59020 0.34530 0.79760 -0.10500
H 	H 	0.60120 0.30540 0.79260 0.07000
H 	H 	0.60280 0.36250 0.73490 0.07300
C 	C 	0.70920 0.39090 0.86470 0.09200
H 	H 	0.73450 0.39430 0.80460 0.00100
C 	C 	0.68470 0.39470 0.01570 0.01700
H 	H 	0.68850 0.40150 0.08290 0.02200
C 	C 	0.62210 0.37140 0.97060 -0.01200
H 	H 	0.57670 0.35890 0.00060 0.04000
Co	Co	0.14805 0.92743 0.51642 1.15000
O 	O 	0.14290 0.00644 0.46560 -0.41000
O 	O 	0.19080 0.95179 0.34890 -0.35000
O 	O 	0.97200 0.40540 0.04770 -0.38300
O 	O 	0.88570 0.34190 0.01890 -0.42400
O 	O 	0.17250 0.18636 0.12380 -0.33200
N 	N 	0.09690 0.94504 0.65020 -0.23800
N 	N 	0.02630 0.99597 0.75140 -0.09700
N 	N 	0.86150 0.13006 0.87450 -0.10700
N 	N 	0.75970 0.09355 0.94920 -0.25000
C 	C 	0.16660 0.04840 0.30990 -0.20200
C 	C 	0.20290 0.04640 0.22060 0.17200
H 	H 	0.22830 0.01370 0.20160 -0.02400
C 	C 	0.20260 0.09250 0.15740 -0.30200
H 	H 	0.22790 0.09080 0.09700 0.14900
C 	C 	0.16440 0.14060 0.18590 0.32000
C 	C 	0.12670 0.14330 0.27520 -0.31000
H 	H 	0.10110 0.17600 0.29410 0.14100
C 	C 	0.12750 0.09710 0.33640 0.17200
H 	H 	0.10140 0.09850 0.39620 -0.00800
C 	C 	0.16780 0.99940 0.37690 0.33100
C 	C 	0.11340 0.22550 0.11270 0.32900
C 	C 	0.13670 0.27970 0.09660 -0.32200
H 	H 	0.18950 0.28790 0.09880 0.16900
C 	C 	0.08550 0.32200 0.07750 0.18300
H 	H 	0.10250 0.35880 0.06940 -0.01500
C 	C 	0.00800 0.30860 0.07050 -0.19200
C 	C 	0.98150 0.25450 0.08740 0.15100
H 	H 	0.92880 0.24620 0.08300 -0.00800
C 	C 	0.03650 0.21130 0.11170 -0.30000
H 	H 	0.02030 0.17490 0.12630 0.13600
C 	C 	0.94850 0.35730 0.04180 0.38400
C 	C 	0.05710 0.99190 0.66160 0.07500
H 	H 	0.05110 0.01890 0.61280 0.02800
C 	C 	0.04630 0.94820 0.79990 -0.01700
H 	H 	0.03270 0.93860 0.86390 0.03700
C 	C 	0.09010 0.91680 0.73660 0.01900
H 	H 	0.11170 0.88190 0.75050 0.01200
C 	C 	0.98090 0.04260 0.78920 -0.12900
H 	H 	0.95360 0.03060 0.84790 0.07900
H 	H 	0.94230 0.05320 0.74060 0.08800
C 	C 	0.03060 0.09410 0.81390 0.06000
C 	C 	0.99510 0.14650 0.81890 0.00600
C 	C 	0.04050 0.19330 0.84290 -0.04900
H 	H 	0.01740 0.22860 0.84600 0.05100
C 	C 	0.12020 0.18790 0.86230 -0.04300
H 	H 	0.14990 0.21950 0.87670 0.05200
C 	C 	0.15410 0.13570 0.86010 -0.00500
H 	H 	0.20650 0.13150 0.87520 0.04000
C 	C 	0.10900 0.08920 0.83490 -0.09400
H 	H 	0.13220 0.05400 0.83210 0.07500
C 	C 	0.90980 0.15470 0.79760 -0.09600
H 	H 	0.89880 0.19460 0.79260 0.06700
H 	H 	0.89720 0.13750 0.73490 0.07000
C 	C 	0.79080 0.10910 0.86470 0.09200
H 	H 	0.76550 0.10570 0.80460 0.00100
C 	C 	0.81530 0.10530 0.01570 0.02600
H 	H 	0.81150 0.09850 0.08290 0.01900
C 	C 	0.87790 0.12860 0.97060 -0.02300
H 	H 	0.92330 0.14110 0.00060 0.04600
Co	Co	0.64805 0.07257 0.98358 1.15000
O 	O 	0.64290 0.99356 0.03440 -0.41300
O 	O 	0.69080 0.04821 0.15110 -0.35000
O 	O 	0.47200 0.59460 0.45230 -0.38400
O 	O 	0.38570 0.65810 0.48110 -0.42500
O 	O 	0.67250 0.81364 0.37620 -0.33100
N 	N 	0.59690 0.05496 0.84980 -0.23800
N 	N 	0.52630 0.00403 0.74860 -0.10100
N 	N 	0.36150 0.86994 0.62550 -0.10800
N 	N 	0.25970 0.90645 0.55080 -0.24600
C 	C 	0.66660 0.95160 0.19010 -0.20800
C 	C 	0.70290 0.95360 0.27940 0.17500
H 	H 	0.72830 0.98630 0.29840 -0.02600
C 	C 	0.70260 0.90750 0.34260 -0.30500
H 	H 	0.72790 0.90920 0.40300 0.15000
C 	C 	0.66440 0.85940 0.31410 0.32200
C 	C 	0.62670 0.85670 0.22480 -0.31200
H 	H 	0.60110 0.82400 0.20590 0.14200
C 	C 	0.62750 0.90290 0.16360 0.17500
H 	H 	0.60140 0.90150 0.10380 -0.01000
C 	C 	0.66780 0.00060 0.12310 0.33700
C 	C 	0.61340 0.77450 0.38730 0.32500
C 	C 	0.63670 0.72030 0.40340 -0.31600
H 	H 	0.68950 0.71210 0.40120 0.16700
C 	C 	0.58550 0.67800 0.42250 0.17600
H 	H 	0.60250 0.64120 0.43060 -0.01200
C 	C 	0.50800 0.69140 0.42950 -0.18300
C 	C 	0.48150 0.74550 0.41260 0.14100
H 	H 	0.42880 0.75380 0.41700 -0.00500
C 	C 	0.53650 0.78870 0.38830 -0.29200
H 	H 	0.52030 0.82510 0.37370 0.13400
C 	C 	0.44850 0.64270 0.45820 0.38000
C 	C 	0.55710 0.00810 0.83840 0.07700
H 	H 	0.55110 0.98110 0.88720 0.02700
C 	C 	0.54630 0.05180 0.70010 -0.01500
H 	H 	0.53270 0.06140 0.63610 0.03700
C 	C 	0.59010 0.08320 0.76340 0.01900
H 	H 	0.61170 0.11810 0.74950 0.01200
C 	C 	0.48090 0.95740 0.71080 -0.11200
H 	H 	0.45360 0.96940 0.65210 0.07600
H 	H 	0.44230 0.94680 0.75940 0.08400
C 	C 	0.53060 0.90590 0.68610 0.04000
C 	C 	0.49510 0.85350 0.68110 0.02600
C 	C 	0.54050 0.80670 0.65710 -0.06800
H 	H 	0.51740 0.77140 0.65400 0.05700
C 	C 	0.62020 0.81210 0.63770 -0.02700
H 	H 	0.64990 0.78050 0.62330 0.04600
C 	C 	0.65410 0.86430 0.63990 -0.02000
H 	H 	0.70650 0.86850 0.62480 0.04600
C 	C 	0.60900 0.91080 0.66510 -0.07800
H 	H 	0.63220 0.94600 0.66790 0.06900
C 	C 	0.40980 0.84530 0.70240 -0.10500
H 	H 	0.39880 0.80540 0.70740 0.07000
H 	H 	0.39720 0.86250 0.76510 0.07300
C 	C 	0.29080 0.89090 0.63530 0.09200
H 	H 	0.26550 0.89430 0.69540 0.00100
C 	C 	0.31530 0.89470 0.48430 0.01100
H 	H 	0.31150 0.90150 0.41710 0.02400
C 	C 	0.37790 0.87140 0.52940 -0.00600
H 	H 	0.42330 0.85890 0.49940 0.03700
Co	Co	0.85195 0.42743 0.98358 1.14900
O 	O 	0.85710 0.50644 0.03440 -0.41200
O 	O 	0.80920 0.45179 0.15110 -0.35000
O 	O 	0.02800 0.90540 0.45230 -0.38500
O 	O 	0.11430 0.84190 0.48110 -0.42400
O 	O 	0.82750 0.68636 0.37620 -0.33000
N 	N 	0.90310 0.44504 0.84980 -0.23900
N 	N 	0.97370 0.49597 0.74860 -0.10200
N 	N 	0.13850 0.63006 0.62550 -0.10800
N 	N 	0.24030 0.59355 0.55080 -0.24600
C 	C 	0.83340 0.54840 0.19010 -0.20600
C 	C 	0.79710 0.54640 0.27940 0.17400
H 	H 	0.77170 0.51370 0.29840 -0.02600
C 	C 	0.79740 0.59250 0.34260 -0.30400
H 	H 	0.77210 0.59080 0.40300 0.14900
C 	C 	0.83560 0.64060 0.31410 0.32100
C 	C 	0.87330 0.64330 0.22480 -0.31100
H 	H 	0.89890 0.67600 0.20590 0.14200
C 	C 	0.87250 0.59710 0.16360 0.17400
H 	H 	0.89860 0.59850 0.10380 -0.00900
C 	C 	0.83220 0.49940 0.12310 0.33600
C 	C 	0.88660 0.72550 0.38730 0.32000
C 	C 	0.86330 0.77970 0.40340 -0.31000
H 	H 	0.81050 0.78790 0.40120 0.16500
C 	C 	0.91450 0.82200 0.42250 0.17000
H 	H 	0.89750 0.85880 0.43060 -0.01000
C 	C 	0.99200 0.80860 0.42950 -0.17400
C 	C 	0.01850 0.75450 0.41260 0.13100
H 	H 	0.07120 0.74620 0.41700 -0.00200
C 	C 	0.96350 0.71130 0.38830 -0.28400
H 	H 	0.97970 0.67490 0.37370 0.13200
C 	C 	0.05150 0.85730 0.45820 0.37600
C 	C 	0.94290 0.49190 0.83840 0.08000
H 	H 	0.94890 0.51890 0.88720 0.02400
C 	C 	0.95370 0.44820 0.70010 -0.01500
H 	H 	0.96730 0.43860 0.63610 0.03600
C 	C 	0.90990 0.41680 0.76340 0.01800
H 	H 	0.88830 0.38190 0.74950 0.01200
C 	C 	0.01910 0.54260 0.71080 -0.10900
H 	H 	0.04640 0.53060 0.65210 0.07500
H 	H 	0.05770 0.55320 0.75940 0.08300
C 	C 	0.96940 0.59410 0.68610 0.03600
C 	C 	0.00490 0.64650 0.68110 0.02900
C 	C 	0.95950 0.69330 0.65710 -0.07100
H 	H 	0.98260 0.72860 0.65400 0.05800
C 	C 	0.87980 0.68790 0.63770 -0.02500
H 	H 	0.85010 0.71950 0.62330 0.04500
C 	C 	0.84590 0.63570 0.63990 -0.02300
H 	H 	0.79350 0.63150 0.62480 0.04700
C 	C 	0.89100 0.58920 0.66510 -0.07500
H 	H 	0.86780 0.55400 0.66790 0.06800
C 	C 	0.09020 0.65470 0.70240 -0.10700
H 	H 	0.10120 0.69460 0.70740 0.07000
H 	H 	0.10280 0.63750 0.76510 0.07400
C 	C 	0.20920 0.60910 0.63530 0.09200
H 	H 	0.23450 0.60570 0.69540 0.00100
C 	C 	0.18470 0.60530 0.48430 0.01100
H 	H 	0.18850 0.59850 0.41710 0.02400
C 	C 	0.12210 0.62860 0.52940 -0.00600
H 	H 	0.07670 0.64110 0.49940 0.03700
Co	Co	0.64805 0.42743 0.48358 1.15100
O 	O 	0.64290 0.50644 0.53440 -0.41300
O 	O 	0.69080 0.45179 0.65110 -0.35000
O 	O 	0.47200 0.90540 0.95230 -0.38300
O 	O 	0.38570 0.84190 0.98110 -0.42300
O 	O 	0.67250 0.68636 0.87620 -0.33100
N 	N 	0.59690 0.44504 0.34980 -0.23800
N 	N 	0.52630 0.49597 0.24860 -0.10100
N 	N 	0.36150 0.63006 0.12550 -0.10700
N 	N 	0.25970 0.59355 0.05080 -0.24800
C 	C 	0.66660 0.54840 0.69010 -0.20700
C 	C 	0.70290 0.54640 0.77940 0.17500
H 	H 	0.72830 0.51370 0.79840 -0.02600
C 	C 	0.70260 0.59250 0.84260 -0.30400
H 	H 	0.72790 0.59080 0.90300 0.14900
C 	C 	0.66440 0.64060 0.81410 0.32100
C 	C 	0.62670 0.64330 0.72480 -0.31200
H 	H 	0.60110 0.67600 0.70590 0.14200
C 	C 	0.62750 0.59710 0.66360 0.17400
H 	H 	0.60140 0.59850 0.60380 -0.01000
C 	C 	0.66780 0.49940 0.62310 0.33600
C 	C 	0.61340 0.72550 0.88730 0.32500
C 	C 	0.63670 0.77970 0.90340 -0.31600
H 	H 	0.68950 0.78790 0.90120 0.16700
C 	C 	0.58550 0.82200 0.92250 0.17600
H 	H 	0.60250 0.85880 0.93060 -0.01200
C 	C 	0.50800 0.80860 0.92950 -0.18200
C 	C 	0.48150 0.75450 0.91260 0.14100
H 	H 	0.42880 0.74620 0.91700 -0.00500
C 	C 	0.53650 0.71130 0.88830 -0.29200
H 	H 	0.52030 0.67490 0.87370 0.13400
C 	C 	0.44850 0.85730 0.95820 0.37900
C 	C 	0.55710 0.49190 0.33840 0.08000
H 	H 	0.55110 0.51890 0.38720 0.02500
C 	C 	0.54630 0.44820 0.20010 -0.01500
H 	H 	0.53270 0.43860 0.13610 0.03700
C 	C 	0.59010 0.41680 0.26340 0.01900
H 	H 	0.61170 0.38190 0.24950 0.01200
C 	C 	0.48090 0.54260 0.21080 -0.11300
H 	H 	0.45360 0.53060 0.15210 0.07600
H 	H 	0.44230 0.55320 0.25940 0.08400
C 	C 	0.53060 0.59410 0.18610 0.04000
C 	C 	0.49510 0.64650 0.18110 0.02600
C 	C 	0.54050 0.69330 0.15710 -0.06800
H 	H 	0.51740 0.72860 0.15400 0.05600
C 	C 	0.62020 0.68790 0.13770 -0.02700
H 	H 	0.64990 0.71950 0.12330 0.04600
C 	C 	0.65410 0.63570 0.13990 -0.02100
H 	H 	0.70650 0.63150 0.12480 0.04600
C 	C 	0.60900 0.58920 0.16510 -0.07800
H 	H 	0.63220 0.55400 0.16790 0.06900
C 	C 	0.40980 0.65470 0.20240 -0.10500
H 	H 	0.39880 0.69460 0.20740 0.07000
H 	H 	0.39720 0.63750 0.26510 0.07300
C 	C 	0.29080 0.60910 0.13530 0.09200
H 	H 	0.26550 0.60570 0.19540 0.00100
C 	C 	0.31530 0.60530 0.98430 0.01700
H 	H 	0.31150 0.59850 0.91710 0.02200
C 	C 	0.37790 0.62860 0.02940 -0.01200
H 	H 	0.42330 0.64110 0.99940 0.04000
Co	Co	0.85195 0.07257 0.48358 1.15000
O 	O 	0.85710 0.99356 0.53440 -0.41000
O 	O 	0.80920 0.04821 0.65110 -0.35000
O 	O 	0.02800 0.59460 0.95230 -0.38300
O 	O 	0.11430 0.65810 0.98110 -0.42400
O 	O 	0.82750 0.81364 0.87620 -0.33200
N 	N 	0.90310 0.05496 0.34980 -0.23800
N 	N 	0.97370 0.00403 0.24860 -0.09700
N 	N 	0.13850 0.86994 0.12550 -0.10700
N 	N 	0.24030 0.90645 0.05080 -0.25000
C 	C 	0.83340 0.95160 0.69010 -0.20200
C 	C 	0.79710 0.95360 0.77940 0.17200
H 	H 	0.77170 0.98630 0.79840 -0.02400
C 	C 	0.79740 0.90750 0.84260 -0.30200
H 	H 	0.77210 0.90920 0.90300 0.14900
C 	C 	0.83560 0.85940 0.81410 0.32000
C 	C 	0.87330 0.85670 0.72480 -0.31000
H 	H 	0.89890 0.82400 0.70590 0.14100
C 	C 	0.87250 0.90290 0.66360 0.17200
H 	H 	0.89860 0.90150 0.60380 -0.00800
C 	C 	0.83220 0.00060 0.62310 0.33100
C 	C 	0.88660 0.77450 0.88730 0.32900
C 	C 	0.86330 0.72030 0.90340 -0.32200
H 	H 	0.81050 0.71210 0.90120 0.16900
C 	C 	0.91450 0.67800 0.92250 0.18300
H 	H 	0.89750 0.64120 0.93060 -0.01500
C 	C 	0.99200 0.69140 0.92950 -0.19200
C 	C 	0.01850 0.74550 0.91260 0.15100
H 	H 	0.07120 0.75380 0.91700 -0.00800
C 	C 	0.96350 0.78870 0.88830 -0.30000
H 	H 	0.97970 0.82510 0.87370 0.13600
C 	C 	0.05150 0.64270 0.95820 0.38400
C 	C 	0.94290 0.00810 0.33840 0.07500
H 	H 	0.94890 0.98110 0.38720 0.02800
C 	C 	0.95370 0.05180 0.20010 -0.01700
H 	H 	0.96730 0.06140 0.13610 0.03700
C 	C 	0.90990 0.08320 0.26340 0.01900
H 	H 	0.88830 0.11810 0.24950 0.01200
C 	C 	0.01910 0.95740 0.21080 -0.12900
H 	H 	0.04640 0.96940 0.15210 0.07900
H 	H 	0.05770 0.94680 0.25940 0.08800
C 	C 	0.96940 0.90590 0.18610 0.06000
C 	C 	0.00490 0.85350 0.18110 0.00600
C 	C 	0.95950 0.80670 0.15710 -0.04900
H 	H 	0.98260 0.77140 0.15400 0.05100
C 	C 	0.87980 0.81210 0.13770 -0.04300
H 	H 	0.85010 0.78050 0.12330 0.05200
C 	C 	0.84590 0.86430 0.13990 -0.00500
H 	H 	0.79350 0.86850 0.12480 0.04000
C 	C 	0.89100 0.91080 0.16510 -0.09400
H 	H 	0.86780 0.94600 0.16790 0.07500
C 	C 	0.09020 0.84530 0.20240 -0.09600
H 	H 	0.10120 0.80540 0.20740 0.06700
H 	H 	0.10280 0.86250 0.26510 0.07000
C 	C 	0.20920 0.89090 0.13530 0.09200
H 	H 	0.23450 0.89430 0.19540 0.00100
C 	C 	0.18470 0.89470 0.98430 0.02600
H 	H 	0.18850 0.90150 0.91710 0.01900
C 	C 	0.12210 0.87140 0.02940 -0.02300
H 	H 	0.07670 0.85890 0.99940 0.04600
Co	Co	0.35195 0.92743 0.01642 1.15000
O 	O 	0.35710 0.00644 0.96560 -0.41300
O 	O 	0.30920 0.95179 0.84890 -0.35000
O 	O 	0.52800 0.40540 0.54770 -0.38400
O 	O 	0.61430 0.34190 0.51890 -0.42500
O 	O 	0.32750 0.18636 0.62380 -0.33100
N 	N 	0.40310 0.94504 0.15020 -0.23800
N 	N 	0.47370 0.99597 0.25140 -0.10100
N 	N 	0.63850 0.13006 0.37450 -0.10800
N 	N 	0.74030 0.09355 0.44920 -0.24600
C 	C 	0.33340 0.04840 0.80990 -0.20800
C 	C 	0.29710 0.04640 0.72060 0.17500
H 	H 	0.27170 0.01370 0.70160 -0.02600
C 	C 	0.29740 0.09250 0.65740 -0.30500
H 	H 	0.27210 0.09080 0.59700 0.15000
C 	C 	0.33560 0.14060 0.68590 0.32200
C 	C 	0.37330 0.14330 0.77520 -0.31200
H 	H 	0.39890 0.17600 0.79410 0.14200
C 	C 	0.37250 0.09710 0.83640 0.17500
H 	H 	0.39860 0.09850 0.89620 -0.01000
C 	C 	0.33220 0.99940 0.87690 0.33700
C 	C 	0.38660 0.22550 0.61270 0.32500
C 	C 	0.36330 0.27970 0.59660 -0.31600
H 	H 	0.31050 0.28790 0.59880 0.16700
C 	C 	0.41450 0.32200 0.57750 0.17600
H 	H 	0.39750 0.35880 0.56940 -0.01200
C 	C 	0.49200 0.30860 0.57050 -0.18300
C 	C 	0.51850 0.25450 0.58740 0.14100
H 	H 	0.57120 0.24620 0.58300 -0.00500
C 	C 	0.46350 0.21130 0.61170 -0.29200
H 	H 	0.47970 0.17490 0.62630 0.13400
C 	C 	0.55150 0.35730 0.54180 0.38000
C 	C 	0.44290 0.99190 0.16160 0.07700
H 	H 	0.44890 0.01890 0.11280 0.02700
C 	C 	0.45370 0.94820 0.29990 -0.01500
H 	H 	0.46730 0.93860 0.36390 0.03700
C 	C 	0.40990 0.91680 0.23660 0.01900
H 	H 	0.38830 0.88190 0.25050 0.01200
C 	C 	0.51910 0.04260 0.28920 -0.11200
H 	H 	0.54640 0.03060 0.34790 0.07600
H 	H 	0.55770 0.05320 0.24060 0.08400
C 	C 	0.46940 0.09410 0.31390 0.04000
C 	C 	0.50490 0.14650 0.31890 0.02600
C 	C 	0.45950 0.19330 0.34290 -0.06800
H 	H 	0.48260 0.22860 0.34600 0.05700
C 	C 	0.37980 0.18790 0.36230 -0.02700
H 	H 	0.35010 0.21950 0.37670 0.04600
C 	C 	0.34590 0.13570 0.36010 -0.02000
H 	H 	0.29350 0.13150 0.37520 0.04600
C 	C 	0.39100 0.08920 0.33490 -0.07800
H 	H 	0.36780 0.05400 0.33210 0.06900
C 	C 	0.59020 0.15470 0.29760 -0.10500
H 	H 	0.60120 0.19460 0.29260 0.07000
H 	H 	0.60280 0.13750 0.23490 0.07300
C 	C 	0.70920 0.10910 0.36470 0.09200
H 	H 	0.73450 0.10570 0.30460 0.00100
C 	C 	0.68470 0.10530 0.51570 0.01100
H 	H 	0.68850 0.09850 0.58290 0.02400
C 	C 	0.62210 0.12860 0.47060 -0.00600
H 	H 	0.57670 0.14110 0.50060 0.03700
Co	Co	0.14805 0.57257 0.01642 1.14900
O 	O 	0.14290 0.49356 0.96560 -0.41200
O 	O 	0.19080 0.54821 0.84890 -0.35000
O 	O 	0.97200 0.09460 0.54770 -0.38500
O 	O 	0.88570 0.15810 0.51890 -0.42400
O 	O 	0.17250 0.31364 0.62380 -0.33000
N 	N 	0.09690 0.55496 0.15020 -0.23900
N 	N 	0.02630 0.50403 0.25140 -0.10200
N 	N 	0.86150 0.36994 0.37450 -0.10800
N 	N 	0.75970 0.40645 0.44920 -0.24600
C 	C 	0.16660 0.45160 0.80990 -0.20600
C 	C 	0.20290 0.45360 0.72060 0.17400
H 	H 	0.22830 0.48630 0.70160 -0.02600
C 	C 	0.20260 0.40750 0.65740 -0.30400
H 	H 	0.22790 0.40920 0.59700 0.14900
C 	C 	0.16440 0.35940 0.68590 0.32100
C 	C 	0.12670 0.35670 0.77520 -0.31100
H 	H 	0.10110 0.32400 0.79410 0.14200
C 	C 	0.12750 0.40290 0.83640 0.17400
H 	H 	0.10140 0.40150 0.89620 -0.00900
C 	C 	0.16780 0.50060 0.87690 0.33600
C 	C 	0.11340 0.27450 0.61270 0.32000
C 	C 	0.13670 0.22030 0.59660 -0.31000
H 	H 	0.18950 0.21210 0.59880 0.16500
C 	C 	0.08550 0.17800 0.57750 0.17000
H 	H 	0.10250 0.14120 0.56940 -0.01000
C 	C 	0.00800 0.19140 0.57050 -0.17400
C 	C 	0.98150 0.24550 0.58740 0.13100
H 	H 	0.92880 0.25380 0.58300 -0.00200
C 	C 	0.03650 0.28870 0.61170 -0.28400
H 	H 	0.02030 0.32510 0.62630 0.13200
C 	C 	0.94850 0.14270 0.54180 0.37600
C 	C 	0.05710 0.50810 0.16160 0.08000
H 	H 	0.05110 0.48110 0.11280 0.02400
C 	C 	0.04630 0.55180 0.29990 -0.01500
H 	H 	0.03270 0.56140 0.36390 0.03600
C 	C 	0.09010 0.58320 0.23660 0.01800
H 	H 	0.11170 0.61810 0.25050 0.01200
C 	C 	0.98090 0.45740 0.28920 -0.10900
H 	H 	0.95360 0.46940 0.34790 0.07500
H 	H 	0.94230 0.44680 0.24060 0.08300
C 	C 	0.03060 0.40590 0.31390 0.03600
C 	C 	0.99510 0.35350 0.31890 0.02900
C 	C 	0.04050 0.30670 0.34290 -0.07100
H 	H 	0.01740 0.27140 0.34600 0.05800
C 	C 	0.12020 0.31210 0.36230 -0.02500
H 	H 	0.14990 0.28050 0.37670 0.04500
C 	C 	0.15410 0.36430 0.36010 -0.02300
H 	H 	0.20650 0.36850 0.37520 0.04700
C 	C 	0.10900 0.41080 0.33490 -0.07500
H 	H 	0.13220 0.44600 0.33210 0.06800
C 	C 	0.90980 0.34530 0.29760 -0.10700
H 	H 	0.89880 0.30540 0.29260 0.07000
H 	H 	0.89720 0.36250 0.23490 0.07400
C 	C 	0.79080 0.39090 0.36470 0.09200
H 	H 	0.76550 0.39430 0.30460 0.00100
C 	C 	0.81530 0.39470 0.51570 0.01100
H 	H 	0.81150 0.40150 0.58290 0.02400
C 	C 	0.87790 0.37140 0.47060 -0.00600
H 	H 	0.92330 0.35890 0.50060 0.03700
