data_crystal

_cell_length_a 38.02700
_cell_length_b 19.03000
_cell_length_c 19.75150
_cell_angle_alpha 90.00000
_cell_angle_beta  104.12300
_cell_angle_gamma 90.00000

_symmetry_space_group_name_	'P 1'
_symmetry_space_group_name_H-M	'P 1'

loop_
_symmetry_equiv_pos_as_xyz
  x,y,z

loop_
_atom_site_label
_atom_site_type_symbol
_atom_site_fract_x
_atom_site_fract_y
_atom_site_fract_z
_atom_site_charge
Zn	Zn	0.90116 0.38890 0.08891 1.23100
Zn	Zn	0.89303 0.10900 0.20344 1.21200
Zn	Zn	0.81100 0.41066 0.05121 1.21700
C 	C 	0.93040 0.05670 0.10400 0.34000
C 	C 	0.92830 0.03190 0.03240 -0.09600
C 	C 	0.95640 0.99150 0.02200 0.00600
H 	H 	0.97560 0.98110 0.05980 0.05100
C 	C 	0.95680 0.96600 0.95680 -0.04700
H 	H 	0.97640 0.93950 0.95100 0.07000
C 	C 	0.92810 0.97970 0.89980 -0.03900
C 	C 	0.89877 0.02050 0.91050 -0.06800
H 	H 	0.87920 0.02950 0.87290 0.07100
C 	C 	0.89851 0.04700 0.97490 0.05600
C 	C 	0.92780 0.95310 0.82840 0.33800
C 	C 	0.86703 0.09000 0.98150 -0.00500
C 	C 	0.87258 0.15880 0.00790 -0.02000
H 	H 	0.89600 0.17660 0.02190 0.05500
C 	C 	0.84322 0.20040 0.01330 -0.10700
C 	C 	0.80832 0.17180 0.99480 0.02300
H 	H 	0.78870 0.19860 0.00010 0.05500
C 	C 	0.80254 0.10490 0.96880 -0.08500
C 	C 	0.83264 0.06400 0.96120 -0.02400
H 	H 	0.82880 0.01920 0.94210 0.05700
C 	C 	0.84841 0.27410 0.04130 0.39800
C 	C 	0.76560 0.07330 0.95200 0.33900
C 	C 	0.93608 0.22430 0.24800 0.33600
C 	C 	0.94389 0.29550 0.28130 -0.06600
C 	C 	0.97955 0.31560 0.31040 0.00800
H 	H 	0.99850 0.28450 0.31070 0.07200
C 	C 	0.98691 0.38300 0.33940 -0.06500
C 	C 	0.95752 0.42840 0.33880 -0.02300
H 	H 	0.96220 0.47380 0.35620 0.06300
C 	C 	0.92214 0.40720 0.31310 -0.00100
C 	C 	0.91496 0.34080 0.28270 -0.03000
H 	H 	0.89120 0.32680 0.26350 0.05500
C 	C 	0.02464 0.40600 0.36890 0.33200
C 	C 	0.89095 0.45390 0.31660 0.07300
C 	C 	0.89011 0.48290 0.37960 -0.07900
H 	H 	0.90960 0.47560 0.41790 0.08100
C 	C 	0.86100 0.52290 0.38800 -0.03400
C 	C 	0.83190 0.53380 0.33140 -0.05800
H 	H 	0.81240 0.56090 0.33630 0.06600
C 	C 	0.83210 0.50410 0.26700 0.02900
H 	H 	0.81250 0.51110 0.22890 0.03100
C 	C 	0.86132 0.46400 0.25970 -0.12900
C 	C 	0.86040 0.55210 0.46000 0.36200
C 	C 	0.86030 0.43630 0.18750 0.42200
O 	O 	0.89988 0.05890 0.12320 -0.45700
O 	O 	0.95968 0.07080 0.14150 -0.24800
O 	O 	0.89783 0.94980 0.78550 -0.46600
O 	O 	0.95663 0.93470 0.81700 -0.25500
O 	O 	0.82085 0.30660 0.04610 -0.45500
O 	O 	0.88031 0.29780 0.05690 -0.48400
O 	O 	0.74055 0.10990 0.96550 -0.44200
O 	O 	0.76092 0.01290 0.92560 -0.28800
O 	O 	0.90315 0.20620 0.22790 -0.47100
O 	O 	0.96145 0.18890 0.24010 -0.25200
O 	O 	0.03122 0.46920 0.38000 -0.27800
O 	O 	0.04920 0.35910 0.37930 -0.43200
O 	O 	0.83041 0.41360 0.15340 -0.49900
O 	O 	0.88766 0.44060 0.16530 -0.50200
O 	O 	0.83014 0.57470 0.46550 -0.48000
O 	O 	0.88965 0.55110 0.50530 -0.47500
Zn	Zn	0.40116 0.88890 0.08891 1.23200
Zn	Zn	0.39303 0.60900 0.20344 1.21300
Zn	Zn	0.31100 0.91066 0.05121 1.21800
C 	C 	0.43040 0.55670 0.10400 0.34100
C 	C 	0.42830 0.53190 0.03240 -0.09600
C 	C 	0.45640 0.49150 0.02200 0.00900
H 	H 	0.47560 0.48110 0.05980 0.05200
C 	C 	0.45680 0.46600 0.95680 -0.04700
H 	H 	0.47640 0.43950 0.95100 0.07100
C 	C 	0.42810 0.47970 0.89980 -0.03700
C 	C 	0.39877 0.52050 0.91050 -0.06800
H 	H 	0.37920 0.52950 0.87290 0.07200
C 	C 	0.39851 0.54700 0.97490 0.05700
C 	C 	0.42780 0.45310 0.82840 0.33800
C 	C 	0.36703 0.59000 0.98150 -0.00500
C 	C 	0.37258 0.65880 0.00790 -0.01900
H 	H 	0.39600 0.67660 0.02190 0.05500
C 	C 	0.34322 0.70040 0.01330 -0.10800
C 	C 	0.30832 0.67180 0.99480 0.02400
H 	H 	0.28870 0.69860 0.00010 0.05500
C 	C 	0.30254 0.60490 0.96880 -0.08500
C 	C 	0.33264 0.56400 0.96120 -0.02300
H 	H 	0.32880 0.51920 0.94210 0.05700
C 	C 	0.34841 0.77410 0.04130 0.39800
C 	C 	0.26560 0.57330 0.95200 0.33900
C 	C 	0.43608 0.72430 0.24800 0.33600
C 	C 	0.44389 0.79550 0.28130 -0.06600
C 	C 	0.47955 0.81560 0.31040 0.00800
H 	H 	0.49850 0.78450 0.31070 0.07200
C 	C 	0.48691 0.88300 0.33940 -0.06500
C 	C 	0.45752 0.92840 0.33880 -0.02300
H 	H 	0.46220 0.97380 0.35620 0.06300
C 	C 	0.42214 0.90720 0.31310 -0.00100
C 	C 	0.41496 0.84080 0.28270 -0.03000
H 	H 	0.39120 0.82680 0.26350 0.05500
C 	C 	0.52464 0.90600 0.36890 0.33200
C 	C 	0.39095 0.95390 0.31660 0.07300
C 	C 	0.39011 0.98290 0.37960 -0.07900
H 	H 	0.40960 0.97560 0.41790 0.08100
C 	C 	0.36100 0.02290 0.38800 -0.03400
C 	C 	0.33190 0.03380 0.33140 -0.05900
H 	H 	0.31240 0.06090 0.33630 0.06600
C 	C 	0.33210 0.00410 0.26700 0.02900
H 	H 	0.31250 0.01110 0.22890 0.03100
C 	C 	0.36132 0.96400 0.25970 -0.13000
C 	C 	0.36040 0.05210 0.46000 0.36200
C 	C 	0.36030 0.93630 0.18750 0.42200
O 	O 	0.39988 0.55890 0.12320 -0.45700
O 	O 	0.45968 0.57080 0.14150 -0.24800
O 	O 	0.39783 0.44980 0.78550 -0.46600
O 	O 	0.45663 0.43470 0.81700 -0.25500
O 	O 	0.32085 0.80660 0.04610 -0.45500
O 	O 	0.38031 0.79780 0.05690 -0.48400
O 	O 	0.24055 0.60990 0.96550 -0.44200
O 	O 	0.26092 0.51290 0.92560 -0.28700
O 	O 	0.40315 0.70620 0.22790 -0.47100
O 	O 	0.46145 0.68890 0.24010 -0.25200
O 	O 	0.53122 0.96920 0.38000 -0.27800
O 	O 	0.54920 0.85910 0.37930 -0.43200
O 	O 	0.33041 0.91360 0.15340 -0.49900
O 	O 	0.38766 0.94060 0.16530 -0.50300
O 	O 	0.33014 0.07470 0.46550 -0.48000
O 	O 	0.38965 0.05110 0.50530 -0.47500
Zn	Zn	0.09884 0.38890 0.41109 1.23200
Zn	Zn	0.10697 0.10900 0.29656 1.21300
Zn	Zn	0.18900 0.41066 0.44879 1.21800
C 	C 	0.06960 0.05670 0.39600 0.34100
C 	C 	0.07170 0.03190 0.46760 -0.09600
C 	C 	0.04360 0.99150 0.47800 0.00900
H 	H 	0.02440 0.98110 0.44020 0.05200
C 	C 	0.04320 0.96600 0.54320 -0.04700
H 	H 	0.02360 0.93950 0.54900 0.07100
C 	C 	0.07190 0.97970 0.60020 -0.03700
C 	C 	0.10123 0.02050 0.58950 -0.06800
H 	H 	0.12080 0.02950 0.62710 0.07200
C 	C 	0.10149 0.04700 0.52510 0.05700
C 	C 	0.07220 0.95310 0.67160 0.33800
C 	C 	0.13297 0.09000 0.51850 -0.00500
C 	C 	0.12742 0.15880 0.49210 -0.01900
H 	H 	0.10400 0.17660 0.47810 0.05500
C 	C 	0.15678 0.20040 0.48670 -0.10800
C 	C 	0.19168 0.17180 0.50520 0.02400
H 	H 	0.21130 0.19860 0.49990 0.05500
C 	C 	0.19746 0.10490 0.53120 -0.08500
C 	C 	0.16736 0.06400 0.53880 -0.02300
H 	H 	0.17120 0.01920 0.55790 0.05700
C 	C 	0.15159 0.27410 0.45870 0.39800
C 	C 	0.23440 0.07330 0.54800 0.33900
C 	C 	0.06392 0.22430 0.25200 0.33600
C 	C 	0.05611 0.29550 0.21870 -0.06600
C 	C 	0.02045 0.31560 0.18960 0.00800
H 	H 	0.00150 0.28450 0.18930 0.07200
C 	C 	0.01309 0.38300 0.16060 -0.06500
C 	C 	0.04248 0.42840 0.16120 -0.02300
H 	H 	0.03780 0.47380 0.14380 0.06300
C 	C 	0.07786 0.40720 0.18690 -0.00100
C 	C 	0.08504 0.34080 0.21730 -0.03000
H 	H 	0.10880 0.32680 0.23650 0.05500
C 	C 	0.97536 0.40600 0.13110 0.33200
C 	C 	0.10905 0.45390 0.18340 0.07300
C 	C 	0.10989 0.48290 0.12040 -0.07900
H 	H 	0.09040 0.47560 0.08210 0.08100
C 	C 	0.13900 0.52290 0.11200 -0.03400
C 	C 	0.16810 0.53380 0.16860 -0.05800
H 	H 	0.18760 0.56090 0.16370 0.06600
C 	C 	0.16790 0.50410 0.23300 0.02900
H 	H 	0.18750 0.51110 0.27110 0.03100
C 	C 	0.13868 0.46400 0.24030 -0.12900
C 	C 	0.13960 0.55210 0.04000 0.36200
C 	C 	0.13970 0.43630 0.31250 0.42200
O 	O 	0.10012 0.05890 0.37680 -0.45700
O 	O 	0.04032 0.07080 0.35850 -0.24800
O 	O 	0.10217 0.94980 0.71450 -0.46600
O 	O 	0.04337 0.93470 0.68300 -0.25500
O 	O 	0.17915 0.30660 0.45390 -0.45500
O 	O 	0.11969 0.29780 0.44310 -0.48400
O 	O 	0.25945 0.10990 0.53450 -0.44200
O 	O 	0.23908 0.01290 0.57440 -0.28800
O 	O 	0.09685 0.20620 0.27210 -0.47100
O 	O 	0.03855 0.18890 0.25990 -0.25200
O 	O 	0.96878 0.46920 0.12000 -0.27800
O 	O 	0.95080 0.35910 0.12070 -0.43200
O 	O 	0.16959 0.41360 0.34660 -0.49900
O 	O 	0.11234 0.44060 0.33470 -0.50200
O 	O 	0.16986 0.57470 0.03450 -0.48000
O 	O 	0.11035 0.55110 0.99470 -0.47500
Zn	Zn	0.59884 0.88890 0.41109 1.23200
Zn	Zn	0.60697 0.60900 0.29656 1.21300
Zn	Zn	0.68900 0.91066 0.44879 1.21800
C 	C 	0.56960 0.55670 0.39600 0.34100
C 	C 	0.57170 0.53190 0.46760 -0.09600
C 	C 	0.54360 0.49150 0.47800 0.00900
H 	H 	0.52440 0.48110 0.44020 0.05200
C 	C 	0.54320 0.46600 0.54320 -0.04700
H 	H 	0.52360 0.43950 0.54900 0.07100
C 	C 	0.57190 0.47970 0.60020 -0.03700
C 	C 	0.60123 0.52050 0.58950 -0.06800
H 	H 	0.62080 0.52950 0.62710 0.07200
C 	C 	0.60149 0.54700 0.52510 0.05700
C 	C 	0.57220 0.45310 0.67160 0.33800
C 	C 	0.63297 0.59000 0.51850 -0.00500
C 	C 	0.62742 0.65880 0.49210 -0.02000
H 	H 	0.60400 0.67660 0.47810 0.05500
C 	C 	0.65678 0.70040 0.48670 -0.10800
C 	C 	0.69168 0.67180 0.50520 0.02400
H 	H 	0.71130 0.69860 0.49990 0.05500
C 	C 	0.69746 0.60490 0.53120 -0.08500
C 	C 	0.66736 0.56400 0.53880 -0.02400
H 	H 	0.67120 0.51920 0.55790 0.05700
C 	C 	0.65159 0.77410 0.45870 0.39800
C 	C 	0.73440 0.57330 0.54800 0.33900
C 	C 	0.56392 0.72430 0.25200 0.33600
C 	C 	0.55611 0.79550 0.21870 -0.06600
C 	C 	0.52045 0.81560 0.18960 0.00800
H 	H 	0.50150 0.78450 0.18930 0.07200
C 	C 	0.51309 0.88300 0.16060 -0.06500
C 	C 	0.54248 0.92840 0.16120 -0.02300
H 	H 	0.53780 0.97380 0.14380 0.06300
C 	C 	0.57786 0.90720 0.18690 -0.00100
C 	C 	0.58504 0.84080 0.21730 -0.03000
H 	H 	0.60880 0.82680 0.23650 0.05500
C 	C 	0.47536 0.90600 0.13110 0.33200
C 	C 	0.60905 0.95390 0.18340 0.07300
C 	C 	0.60989 0.98290 0.12040 -0.08000
H 	H 	0.59040 0.97560 0.08210 0.08100
C 	C 	0.63900 0.02290 0.11200 -0.03400
C 	C 	0.66810 0.03380 0.16860 -0.05900
H 	H 	0.68760 0.06090 0.16370 0.06600
C 	C 	0.66790 0.00410 0.23300 0.02900
H 	H 	0.68750 0.01110 0.27110 0.03100
C 	C 	0.63868 0.96400 0.24030 -0.13000
C 	C 	0.63960 0.05210 0.04000 0.36200
C 	C 	0.63970 0.93630 0.31250 0.42200
O 	O 	0.60012 0.55890 0.37680 -0.45700
O 	O 	0.54032 0.57080 0.35850 -0.24800
O 	O 	0.60217 0.44980 0.71450 -0.46600
O 	O 	0.54337 0.43470 0.68300 -0.25500
O 	O 	0.67915 0.80660 0.45390 -0.45500
O 	O 	0.61969 0.79780 0.44310 -0.48400
O 	O 	0.75945 0.60990 0.53450 -0.44200
O 	O 	0.73908 0.51290 0.57440 -0.28700
O 	O 	0.59685 0.70620 0.27210 -0.47100
O 	O 	0.53855 0.68890 0.25990 -0.25200
O 	O 	0.46878 0.96920 0.12000 -0.27800
O 	O 	0.45080 0.85910 0.12070 -0.43200
O 	O 	0.66959 0.91360 0.34660 -0.49900
O 	O 	0.61234 0.94060 0.33470 -0.50300
O 	O 	0.66986 0.07470 0.03450 -0.48000
O 	O 	0.61035 0.05110 0.99470 -0.47500
Zn	Zn	0.09884 0.61110 0.91109 1.23200
Zn	Zn	0.10697 0.89100 0.79656 1.21300
Zn	Zn	0.18900 0.58934 0.94879 1.21800
C 	C 	0.06960 0.94330 0.89600 0.34100
C 	C 	0.07170 0.96810 0.96760 -0.09500
C 	C 	0.04360 0.00850 0.97800 0.00700
H 	H 	0.02440 0.01890 0.94020 0.05200
C 	C 	0.04320 0.03400 0.04320 -0.04600
H 	H 	0.02360 0.06050 0.04900 0.07100
C 	C 	0.07190 0.02030 0.10020 -0.03800
C 	C 	0.10123 0.97950 0.08950 -0.06700
H 	H 	0.12080 0.97050 0.12710 0.07200
C 	C 	0.10149 0.95300 0.02510 0.05600
C 	C 	0.07220 0.04690 0.17160 0.33800
C 	C 	0.13297 0.91000 0.01850 -0.00500
C 	C 	0.12742 0.84120 0.99210 -0.02000
H 	H 	0.10400 0.82340 0.97810 0.05500
C 	C 	0.15678 0.79960 0.98670 -0.10700
C 	C 	0.19168 0.82820 0.00520 0.02300
H 	H 	0.21130 0.80140 0.99990 0.05500
C 	C 	0.19746 0.89510 0.03120 -0.08500
C 	C 	0.16736 0.93600 0.03880 -0.02400
H 	H 	0.17120 0.98080 0.05790 0.05700
C 	C 	0.15159 0.72590 0.95870 0.39800
C 	C 	0.23440 0.92670 0.04800 0.33900
C 	C 	0.06392 0.77570 0.75200 0.33600
C 	C 	0.05611 0.70450 0.71870 -0.06600
C 	C 	0.02045 0.68440 0.68960 0.00800
H 	H 	0.00150 0.71550 0.68930 0.07200
C 	C 	0.01309 0.61700 0.66060 -0.06500
C 	C 	0.04248 0.57160 0.66120 -0.02300
H 	H 	0.03780 0.52620 0.64380 0.06300
C 	C 	0.07786 0.59280 0.68690 -0.00100
C 	C 	0.08504 0.65920 0.71730 -0.03000
H 	H 	0.10880 0.67320 0.73650 0.05500
C 	C 	0.97536 0.59400 0.63110 0.33200
C 	C 	0.10905 0.54610 0.68340 0.07300
C 	C 	0.10989 0.51710 0.62040 -0.07900
H 	H 	0.09040 0.52440 0.58210 0.08100
C 	C 	0.13900 0.47710 0.61200 -0.03400
C 	C 	0.16810 0.46620 0.66860 -0.05800
H 	H 	0.18760 0.43910 0.66370 0.06600
C 	C 	0.16790 0.49590 0.73300 0.02900
H 	H 	0.18750 0.48890 0.77110 0.03100
C 	C 	0.13868 0.53600 0.74030 -0.12900
C 	C 	0.13960 0.44790 0.54000 0.36200
C 	C 	0.13970 0.56370 0.81250 0.42200
O 	O 	0.10012 0.94110 0.87680 -0.45700
O 	O 	0.04032 0.92920 0.85850 -0.24800
O 	O 	0.10217 0.05020 0.21450 -0.46600
O 	O 	0.04337 0.06530 0.18300 -0.25500
O 	O 	0.17915 0.69340 0.95390 -0.45500
O 	O 	0.11969 0.70220 0.94310 -0.48400
O 	O 	0.25945 0.89010 0.03450 -0.44200
O 	O 	0.23908 0.98710 0.07440 -0.28800
O 	O 	0.09685 0.79380 0.77210 -0.47100
O 	O 	0.03855 0.81110 0.75990 -0.25200
O 	O 	0.96878 0.53080 0.62000 -0.27800
O 	O 	0.95080 0.64090 0.62070 -0.43200
O 	O 	0.16959 0.58640 0.84660 -0.49900
O 	O 	0.11234 0.55940 0.83470 -0.50200
O 	O 	0.16986 0.42530 0.53450 -0.48000
O 	O 	0.11035 0.44890 0.49470 -0.47500
Zn	Zn	0.59884 0.11110 0.91109 1.23200
Zn	Zn	0.60697 0.39100 0.79656 1.21300
Zn	Zn	0.68900 0.08934 0.94879 1.21800
C 	C 	0.56960 0.44330 0.89600 0.34100
C 	C 	0.57170 0.46810 0.96760 -0.09600
C 	C 	0.54360 0.50850 0.97800 0.00900
H 	H 	0.52440 0.51890 0.94020 0.05200
C 	C 	0.54320 0.53400 0.04320 -0.04700
H 	H 	0.52360 0.56050 0.04900 0.07100
C 	C 	0.57190 0.52030 0.10020 -0.03700
C 	C 	0.60123 0.47950 0.08950 -0.06800
H 	H 	0.62080 0.47050 0.12710 0.07200
C 	C 	0.60149 0.45300 0.02510 0.05700
C 	C 	0.57220 0.54690 0.17160 0.33800
C 	C 	0.63297 0.41000 0.01850 -0.00500
C 	C 	0.62742 0.34120 0.99210 -0.01900
H 	H 	0.60400 0.32340 0.97810 0.05500
C 	C 	0.65678 0.29960 0.98670 -0.10800
C 	C 	0.69168 0.32820 0.00520 0.02400
H 	H 	0.71130 0.30140 0.99990 0.05500
C 	C 	0.69746 0.39510 0.03120 -0.08500
C 	C 	0.66736 0.43600 0.03880 -0.02300
H 	H 	0.67120 0.48080 0.05790 0.05700
C 	C 	0.65159 0.22590 0.95870 0.39800
C 	C 	0.73440 0.42670 0.04800 0.33900
C 	C 	0.56392 0.27570 0.75200 0.33600
C 	C 	0.55611 0.20450 0.71870 -0.06600
C 	C 	0.52045 0.18440 0.68960 0.00800
H 	H 	0.50150 0.21550 0.68930 0.07200
C 	C 	0.51309 0.11700 0.66060 -0.06500
C 	C 	0.54248 0.07160 0.66120 -0.02300
H 	H 	0.53780 0.02620 0.64380 0.06300
C 	C 	0.57786 0.09280 0.68690 -0.00100
C 	C 	0.58504 0.15920 0.71730 -0.03000
H 	H 	0.60880 0.17320 0.73650 0.05500
C 	C 	0.47536 0.09400 0.63110 0.33200
C 	C 	0.60905 0.04610 0.68340 0.07300
C 	C 	0.60989 0.01710 0.62040 -0.07900
H 	H 	0.59040 0.02440 0.58210 0.08100
C 	C 	0.63900 0.97710 0.61200 -0.03400
C 	C 	0.66810 0.96620 0.66860 -0.05900
H 	H 	0.68760 0.93910 0.66370 0.06600
C 	C 	0.66790 0.99590 0.73300 0.02900
H 	H 	0.68750 0.98890 0.77110 0.03100
C 	C 	0.63868 0.03600 0.74030 -0.13000
C 	C 	0.63960 0.94790 0.54000 0.36200
C 	C 	0.63970 0.06370 0.81250 0.42200
O 	O 	0.60012 0.44110 0.87680 -0.45700
O 	O 	0.54032 0.42920 0.85850 -0.24800
O 	O 	0.60217 0.55020 0.21450 -0.46600
O 	O 	0.54337 0.56530 0.18300 -0.25500
O 	O 	0.67915 0.19340 0.95390 -0.45500
O 	O 	0.61969 0.20220 0.94310 -0.48400
O 	O 	0.75945 0.39010 0.03450 -0.44200
O 	O 	0.73908 0.48710 0.07440 -0.28700
O 	O 	0.59685 0.29380 0.77210 -0.47100
O 	O 	0.53855 0.31110 0.75990 -0.25200
O 	O 	0.46878 0.03080 0.62000 -0.27800
O 	O 	0.45080 0.14090 0.62070 -0.43200
O 	O 	0.66959 0.08640 0.84660 -0.49900
O 	O 	0.61234 0.05940 0.83470 -0.50300
O 	O 	0.66986 0.92530 0.53450 -0.48000
O 	O 	0.61035 0.94890 0.49470 -0.47500
Zn	Zn	0.90116 0.61110 0.58891 1.23200
Zn	Zn	0.89303 0.89100 0.70344 1.21300
Zn	Zn	0.81100 0.58934 0.55121 1.21800
C 	C 	0.93040 0.94330 0.60400 0.34100
C 	C 	0.92830 0.96810 0.53240 -0.09600
C 	C 	0.95640 0.00850 0.52200 0.00900
H 	H 	0.97560 0.01890 0.55980 0.05200
C 	C 	0.95680 0.03400 0.45680 -0.04700
H 	H 	0.97640 0.06050 0.45100 0.07100
C 	C 	0.92810 0.02030 0.39980 -0.03700
C 	C 	0.89877 0.97950 0.41050 -0.06800
H 	H 	0.87920 0.97050 0.37290 0.07200
C 	C 	0.89851 0.95300 0.47490 0.05700
C 	C 	0.92780 0.04690 0.32840 0.33800
C 	C 	0.86703 0.91000 0.48150 -0.00500
C 	C 	0.87258 0.84120 0.50790 -0.01900
H 	H 	0.89600 0.82340 0.52190 0.05500
C 	C 	0.84322 0.79960 0.51330 -0.10800
C 	C 	0.80832 0.82820 0.49480 0.02400
H 	H 	0.78870 0.80140 0.50010 0.05500
C 	C 	0.80254 0.89510 0.46880 -0.08500
C 	C 	0.83264 0.93600 0.46120 -0.02300
H 	H 	0.82880 0.98080 0.44210 0.05700
C 	C 	0.84841 0.72590 0.54130 0.39800
C 	C 	0.76560 0.92670 0.45200 0.33900
C 	C 	0.93608 0.77570 0.74800 0.33600
C 	C 	0.94389 0.70450 0.78130 -0.06600
C 	C 	0.97955 0.68440 0.81040 0.00800
H 	H 	0.99850 0.71550 0.81070 0.07200
C 	C 	0.98691 0.61700 0.83940 -0.06500
C 	C 	0.95752 0.57160 0.83880 -0.02300
H 	H 	0.96220 0.52620 0.85620 0.06300
C 	C 	0.92214 0.59280 0.81310 -0.00100
C 	C 	0.91496 0.65920 0.78270 -0.03000
H 	H 	0.89120 0.67320 0.76350 0.05500
C 	C 	0.02464 0.59400 0.86890 0.33200
C 	C 	0.89095 0.54610 0.81660 0.07300
C 	C 	0.89011 0.51710 0.87960 -0.07900
H 	H 	0.90960 0.52440 0.91790 0.08100
C 	C 	0.86100 0.47710 0.88800 -0.03400
C 	C 	0.83190 0.46620 0.83140 -0.05800
H 	H 	0.81240 0.43910 0.83630 0.06600
C 	C 	0.83210 0.49590 0.76700 0.02900
H 	H 	0.81250 0.48890 0.72890 0.03100
C 	C 	0.86132 0.53600 0.75970 -0.12900
C 	C 	0.86040 0.44790 0.96000 0.36200
C 	C 	0.86030 0.56370 0.68750 0.42200
O 	O 	0.89988 0.94110 0.62320 -0.45700
O 	O 	0.95968 0.92920 0.64150 -0.24800
O 	O 	0.89783 0.05020 0.28550 -0.46600
O 	O 	0.95663 0.06530 0.31700 -0.25500
O 	O 	0.82085 0.69340 0.54610 -0.45500
O 	O 	0.88031 0.70220 0.55690 -0.48400
O 	O 	0.74055 0.89010 0.46550 -0.44200
O 	O 	0.76092 0.98710 0.42560 -0.28800
O 	O 	0.90315 0.79380 0.72790 -0.47100
O 	O 	0.96145 0.81110 0.74010 -0.25200
O 	O 	0.03122 0.53080 0.88000 -0.27800
O 	O 	0.04920 0.64090 0.87930 -0.43200
O 	O 	0.83041 0.58640 0.65340 -0.49900
O 	O 	0.88766 0.55940 0.66530 -0.50200
O 	O 	0.83014 0.42530 0.96550 -0.48000
O 	O 	0.88965 0.44890 0.00530 -0.47500
Zn	Zn	0.40116 0.11110 0.58891 1.23200
Zn	Zn	0.39303 0.39100 0.70344 1.21300
Zn	Zn	0.31100 0.08934 0.55121 1.21800
C 	C 	0.43040 0.44330 0.60400 0.34100
C 	C 	0.42830 0.46810 0.53240 -0.09600
C 	C 	0.45640 0.50850 0.52200 0.00900
H 	H 	0.47560 0.51890 0.55980 0.05200
C 	C 	0.45680 0.53400 0.45680 -0.04700
H 	H 	0.47640 0.56050 0.45100 0.07100
C 	C 	0.42810 0.52030 0.39980 -0.03700
C 	C 	0.39877 0.47950 0.41050 -0.06800
H 	H 	0.37920 0.47050 0.37290 0.07200
C 	C 	0.39851 0.45300 0.47490 0.05700
C 	C 	0.42780 0.54690 0.32840 0.33800
C 	C 	0.36703 0.41000 0.48150 -0.00500
C 	C 	0.37258 0.34120 0.50790 -0.02000
H 	H 	0.39600 0.32340 0.52190 0.05500
C 	C 	0.34322 0.29960 0.51330 -0.10800
C 	C 	0.30832 0.32820 0.49480 0.02400
H 	H 	0.28870 0.30140 0.50010 0.05500
C 	C 	0.30254 0.39510 0.46880 -0.08500
C 	C 	0.33264 0.43600 0.46120 -0.02400
H 	H 	0.32880 0.48080 0.44210 0.05700
C 	C 	0.34841 0.22590 0.54130 0.39800
C 	C 	0.26560 0.42670 0.45200 0.33900
C 	C 	0.43608 0.27570 0.74800 0.33600
C 	C 	0.44389 0.20450 0.78130 -0.06600
C 	C 	0.47955 0.18440 0.81040 0.00800
H 	H 	0.49850 0.21550 0.81070 0.07200
C 	C 	0.48691 0.11700 0.83940 -0.06500
C 	C 	0.45752 0.07160 0.83880 -0.02300
H 	H 	0.46220 0.02620 0.85620 0.06300
C 	C 	0.42214 0.09280 0.81310 -0.00100
C 	C 	0.41496 0.15920 0.78270 -0.03000
H 	H 	0.39120 0.17320 0.76350 0.05500
C 	C 	0.52464 0.09400 0.86890 0.33200
C 	C 	0.39095 0.04610 0.81660 0.07300
C 	C 	0.39011 0.01710 0.87960 -0.08000
H 	H 	0.40960 0.02440 0.91790 0.08100
C 	C 	0.36100 0.97710 0.88800 -0.03400
C 	C 	0.33190 0.96620 0.83140 -0.05900
H 	H 	0.31240 0.93910 0.83630 0.06600
C 	C 	0.33210 0.99590 0.76700 0.02900
H 	H 	0.31250 0.98890 0.72890 0.03100
C 	C 	0.36132 0.03600 0.75970 -0.13000
C 	C 	0.36040 0.94790 0.96000 0.36200
C 	C 	0.36030 0.06370 0.68750 0.42200
O 	O 	0.39988 0.44110 0.62320 -0.45700
O 	O 	0.45968 0.42920 0.64150 -0.24800
O 	O 	0.39783 0.55020 0.28550 -0.46600
O 	O 	0.45663 0.56530 0.31700 -0.25500
O 	O 	0.32085 0.19340 0.54610 -0.45500
O 	O 	0.38031 0.20220 0.55690 -0.48400
O 	O 	0.24055 0.39010 0.46550 -0.44200
O 	O 	0.26092 0.48710 0.42560 -0.28700
O 	O 	0.40315 0.29380 0.72790 -0.47100
O 	O 	0.46145 0.31110 0.74010 -0.25200
O 	O 	0.53122 0.03080 0.88000 -0.27800
O 	O 	0.54920 0.14090 0.87930 -0.43200
O 	O 	0.33041 0.08640 0.65340 -0.49900
O 	O 	0.38766 0.05940 0.66530 -0.50300
O 	O 	0.33014 0.92530 0.96550 -0.48000
O 	O 	0.38965 0.94890 0.00530 -0.47500
