data_crystal

_cell_length_a 18.27150
_cell_length_b 18.27150
_cell_length_c 17.09120
_cell_angle_alpha 90.00000
_cell_angle_beta  90.00000
_cell_angle_gamma 90.00000

_symmetry_space_group_name_	'P 1'
_symmetry_space_group_name_H-M	'P 1'

loop_
_symmetry_equiv_pos_as_xyz
  x,y,z

loop_
_atom_site_label
_atom_site_type_symbol
_atom_site_fract_x
_atom_site_fract_y
_atom_site_fract_z
_atom_site_charge
C 	C 	0.72553 0.00421 0.48986 0.01000
H 	H 	0.75350 0.00410 0.44300 0.06200
C 	C 	0.70800 0.07008 0.52600 -0.06100
C 	C 	0.66710 0.07022 0.59450 -0.03100
H 	H 	0.65510 0.11520 0.61920 0.06800
C 	C 	0.64370 0.00450 0.62700 0.02800
C 	C 	0.66120 0.93863 0.59090 -0.03500
H 	H 	0.64530 0.89370 0.61310 0.06800
C 	C 	0.70220 0.93848 0.52230 -0.05900
C 	C 	0.54660 0.05520 0.99720 0.00600
C 	C 	0.54200 0.10600 0.05670 -0.00500
C 	C 	0.50549 0.14524 0.18770 0.02300
C 	C 	0.43955 0.16446 0.22266 -0.02600
H 	H 	0.39460 0.14830 0.20060 0.06400
C 	C 	0.43933 0.20730 0.28987 -0.07700
C 	C 	0.50506 0.23092 0.32212 0.02100
H 	H 	0.50490 0.26020 0.36800 0.05700
C 	C 	0.57100 0.21170 0.28720 -0.07000
C 	C 	0.57122 0.16886 0.21995 -0.02800
H 	H 	0.61630 0.15570 0.19610 0.06400
C 	C 	0.53970 0.93500 0.94769 -0.02300
C 	C 	0.53280 0.98310 0.01030 0.01100
C 	C 	0.51290 0.95688 0.08360 -0.00600
C 	C 	0.50014 0.11739 0.09431 0.04400
C 	C 	0.49330 0.16550 0.03169 -0.04600
C 	C 	0.52660 0.86080 0.95838 0.13500
C 	C 	0.51790 0.08260 0.13090 -0.04200
C 	C 	0.50800 0.00880 0.14500 0.01100
C 	C 	0.61920 0.99660 0.71850 0.04700
C 	C 	0.54480 0.98780 0.73280 0.00200
C 	C 	0.52080 0.96740 0.80680 0.00300
C 	C 	0.57110 0.95560 0.86650 -0.01000
C 	C 	0.64550 0.96440 0.85220 0.11900
C 	C 	0.66950 0.98490 0.77820 -0.04100
C 	C 	0.57940 0.01230 0.68210 -0.04500
C 	C 	0.60570 0.03150 0.75790 -0.01700
C 	C 	0.44640 0.95780 0.81840 0.01200
Cu	Cu	0.70856 0.71633 0.46098 0.90600
Cu	Cu	0.78361 0.79074 0.35394 0.90900
C 	C 	0.64200 0.22760 0.32820 0.34900
C 	C 	0.37050 0.22210 0.33340 0.36500
O 	O 	0.76200 0.87260 0.42090 -0.38400
C 	C 	0.71950 0.86870 0.48440 0.31000
O 	O 	0.69630 0.80890 0.51290 -0.39100
O 	O 	0.76360 0.13390 0.42260 -0.40200
C 	C 	0.72760 0.13860 0.48360 0.33900
O 	O 	0.70470 0.19730 0.51810 -0.38000
O 	O 	0.31210 0.19770 0.30070 -0.39200
O 	O 	0.69980 0.20430 0.30200 -0.41600
O 	O 	0.63450 0.26470 0.39340 -0.39400
O 	O 	0.37350 0.26080 0.39120 -0.41800
O 	O 	0.52300 0.81320 0.89580 -0.21400
O 	O 	0.68940 0.94630 0.91750 -0.20200
C 	C 	0.76370 0.92660 0.91140 0.09900
C 	C 	0.51740 0.73880 0.90160 0.11300
C 	C 	0.45430 0.69490 0.92500 -0.02100
C 	C 	0.80570 0.89000 0.84200 -0.01200
C 	C 	0.27447 0.99579 0.48986 0.00900
H 	H 	0.24650 0.99590 0.44300 0.06100
C 	C 	0.29200 0.92992 0.52600 -0.06200
C 	C 	0.33290 0.92978 0.59450 -0.03300
H 	H 	0.34490 0.88480 0.61920 0.06700
C 	C 	0.35630 0.99550 0.62700 0.02800
C 	C 	0.33880 0.06137 0.59090 -0.03700
H 	H 	0.35470 0.10630 0.61310 0.06700
C 	C 	0.29780 0.06152 0.52230 -0.06000
C 	C 	0.45340 0.94480 0.99720 0.00500
C 	C 	0.45800 0.89400 0.05670 -0.00500
C 	C 	0.49451 0.85476 0.18770 0.02300
C 	C 	0.56045 0.83554 0.22266 -0.02600
H 	H 	0.60540 0.85170 0.20060 0.06400
C 	C 	0.56067 0.79270 0.28987 -0.07700
C 	C 	0.49494 0.76908 0.32212 0.02100
H 	H 	0.49510 0.73980 0.36800 0.05700
C 	C 	0.42900 0.78830 0.28720 -0.07000
C 	C 	0.42878 0.83114 0.21995 -0.02800
H 	H 	0.38370 0.84430 0.19610 0.06400
C 	C 	0.46030 0.06500 0.94769 -0.02200
C 	C 	0.46720 0.01690 0.01030 0.01000
C 	C 	0.48710 0.04312 0.08360 -0.00500
C 	C 	0.49986 0.88261 0.09431 0.04300
C 	C 	0.50670 0.83450 0.03169 -0.04600
C 	C 	0.47340 0.13920 0.95838 0.13500
C 	C 	0.48210 0.91740 0.13090 -0.04100
C 	C 	0.49200 0.99120 0.14500 0.00900
C 	C 	0.38080 0.00340 0.71850 0.04100
C 	C 	0.45520 0.01220 0.73280 0.00000
C 	C 	0.47920 0.03260 0.80680 0.00300
C 	C 	0.42890 0.04440 0.86650 -0.01000
C 	C 	0.35450 0.03560 0.85220 0.11800
C 	C 	0.33050 0.01510 0.77820 -0.04000
C 	C 	0.42060 0.98770 0.68210 -0.04100
C 	C 	0.39430 0.96850 0.75790 -0.01300
C 	C 	0.55360 0.04220 0.81840 0.01300
Cu	Cu	0.29144 0.28367 0.46098 0.90600
Cu	Cu	0.21639 0.20926 0.35394 0.90900
C 	C 	0.35800 0.77240 0.32820 0.34900
C 	C 	0.62950 0.77790 0.33340 0.36500
O 	O 	0.23800 0.12740 0.42090 -0.38400
C 	C 	0.28050 0.13130 0.48440 0.31000
O 	O 	0.30370 0.19110 0.51290 -0.39100
O 	O 	0.23640 0.86610 0.42260 -0.40200
C 	C 	0.27240 0.86140 0.48360 0.33900
O 	O 	0.29530 0.80270 0.51810 -0.38000
O 	O 	0.68790 0.80230 0.30070 -0.39200
O 	O 	0.30020 0.79570 0.30200 -0.41600
O 	O 	0.36550 0.73530 0.39340 -0.39400
O 	O 	0.62650 0.73920 0.39120 -0.41800
O 	O 	0.47700 0.18680 0.89580 -0.21400
O 	O 	0.31060 0.05370 0.91750 -0.20200
C 	C 	0.23630 0.07340 0.91140 0.09900
C 	C 	0.48260 0.26120 0.90160 0.11300
C 	C 	0.54570 0.30510 0.92500 -0.02100
C 	C 	0.19430 0.11000 0.84200 -0.01200
C 	C 	0.99579 0.72553 0.48986 0.00900
H 	H 	0.99590 0.75350 0.44300 0.06100
C 	C 	0.92992 0.70800 0.52600 -0.06200
C 	C 	0.92978 0.66710 0.59450 -0.03300
H 	H 	0.88480 0.65510 0.61920 0.06700
C 	C 	0.99550 0.64370 0.62700 0.02800
C 	C 	0.06137 0.66120 0.59090 -0.03700
H 	H 	0.10630 0.64530 0.61310 0.06700
C 	C 	0.06152 0.70220 0.52230 -0.06000
C 	C 	0.94480 0.54660 0.99720 0.00500
C 	C 	0.89400 0.54200 0.05670 -0.00500
C 	C 	0.85476 0.50549 0.18770 0.02300
C 	C 	0.83554 0.43955 0.22266 -0.02600
H 	H 	0.85170 0.39460 0.20060 0.06400
C 	C 	0.79270 0.43933 0.28987 -0.07700
C 	C 	0.76908 0.50506 0.32212 0.02100
H 	H 	0.73980 0.50490 0.36800 0.05700
C 	C 	0.78830 0.57100 0.28720 -0.07000
C 	C 	0.83114 0.57122 0.21995 -0.02800
H 	H 	0.84430 0.61630 0.19610 0.06400
C 	C 	0.06500 0.53970 0.94769 -0.02200
C 	C 	0.01690 0.53280 0.01030 0.01000
C 	C 	0.04312 0.51290 0.08360 -0.00500
C 	C 	0.88261 0.50014 0.09431 0.04300
C 	C 	0.83450 0.49330 0.03169 -0.04600
C 	C 	0.13920 0.52660 0.95838 0.13500
C 	C 	0.91740 0.51790 0.13090 -0.04100
C 	C 	0.99120 0.50800 0.14500 0.00900
C 	C 	0.00340 0.61920 0.71850 0.04100
C 	C 	0.01220 0.54480 0.73280 0.00000
C 	C 	0.03260 0.52080 0.80680 0.00300
C 	C 	0.04440 0.57110 0.86650 -0.01000
C 	C 	0.03560 0.64550 0.85220 0.11800
C 	C 	0.01510 0.66950 0.77820 -0.04000
C 	C 	0.98770 0.57940 0.68210 -0.04100
C 	C 	0.96850 0.60570 0.75790 -0.01300
C 	C 	0.04220 0.44640 0.81840 0.01300
Cu	Cu	0.28367 0.70856 0.46098 0.90600
Cu	Cu	0.20926 0.78361 0.35394 0.90900
C 	C 	0.77240 0.64200 0.32820 0.34900
C 	C 	0.77790 0.37050 0.33340 0.36500
O 	O 	0.12740 0.76200 0.42090 -0.38400
C 	C 	0.13130 0.71950 0.48440 0.31000
O 	O 	0.19110 0.69630 0.51290 -0.39100
O 	O 	0.86610 0.76360 0.42260 -0.40200
C 	C 	0.86140 0.72760 0.48360 0.33900
O 	O 	0.80270 0.70470 0.51810 -0.38000
O 	O 	0.80230 0.31210 0.30070 -0.39200
O 	O 	0.79570 0.69980 0.30200 -0.41600
O 	O 	0.73530 0.63450 0.39340 -0.39400
O 	O 	0.73920 0.37350 0.39120 -0.41800
O 	O 	0.18680 0.52300 0.89580 -0.21400
O 	O 	0.05370 0.68940 0.91750 -0.20200
C 	C 	0.07340 0.76370 0.91140 0.09900
C 	C 	0.26120 0.51740 0.90160 0.11300
C 	C 	0.30510 0.45430 0.92500 -0.02100
C 	C 	0.11000 0.80570 0.84200 -0.01200
C 	C 	0.00421 0.27447 0.48986 0.00900
H 	H 	0.00410 0.24650 0.44300 0.06100
C 	C 	0.07008 0.29200 0.52600 -0.06200
C 	C 	0.07022 0.33290 0.59450 -0.03200
H 	H 	0.11520 0.34490 0.61920 0.06700
C 	C 	0.00450 0.35630 0.62700 0.02700
C 	C 	0.93863 0.33880 0.59090 -0.03600
H 	H 	0.89370 0.35470 0.61310 0.06700
C 	C 	0.93848 0.29780 0.52230 -0.06000
C 	C 	0.05520 0.45340 0.99720 0.00500
C 	C 	0.10600 0.45800 0.05670 -0.00500
C 	C 	0.14524 0.49451 0.18770 0.02300
C 	C 	0.16446 0.56045 0.22266 -0.02600
H 	H 	0.14830 0.60540 0.20060 0.06400
C 	C 	0.20730 0.56067 0.28987 -0.07700
C 	C 	0.23092 0.49494 0.32212 0.02100
H 	H 	0.26020 0.49510 0.36800 0.05700
C 	C 	0.21170 0.42900 0.28720 -0.07000
C 	C 	0.16886 0.42878 0.21995 -0.02800
H 	H 	0.15570 0.38370 0.19610 0.06400
C 	C 	0.93500 0.46030 0.94769 -0.02300
C 	C 	0.98310 0.46720 0.01030 0.01100
C 	C 	0.95688 0.48710 0.08360 -0.00600
C 	C 	0.11739 0.49986 0.09431 0.04400
C 	C 	0.16550 0.50670 0.03169 -0.04600
C 	C 	0.86080 0.47340 0.95838 0.13500
C 	C 	0.08260 0.48210 0.13090 -0.04200
C 	C 	0.00880 0.49200 0.14500 0.01100
C 	C 	0.99660 0.38080 0.71850 0.04700
C 	C 	0.98780 0.45520 0.73280 0.00200
C 	C 	0.96740 0.47920 0.80680 0.00300
C 	C 	0.95560 0.42890 0.86650 -0.01000
C 	C 	0.96440 0.35450 0.85220 0.11900
C 	C 	0.98490 0.33050 0.77820 -0.04100
C 	C 	0.01230 0.42060 0.68210 -0.04500
C 	C 	0.03150 0.39430 0.75790 -0.01700
C 	C 	0.95780 0.55360 0.81840 0.01200
Cu	Cu	0.71633 0.29144 0.46098 0.90600
Cu	Cu	0.79074 0.21639 0.35394 0.90900
C 	C 	0.22760 0.35800 0.32820 0.34900
C 	C 	0.22210 0.62950 0.33340 0.36500
O 	O 	0.87260 0.23800 0.42090 -0.38400
C 	C 	0.86870 0.28050 0.48440 0.31000
O 	O 	0.80890 0.30370 0.51290 -0.39100
O 	O 	0.13390 0.23640 0.42260 -0.40200
C 	C 	0.13860 0.27240 0.48360 0.33900
O 	O 	0.19730 0.29530 0.51810 -0.38000
O 	O 	0.19770 0.68790 0.30070 -0.39200
O 	O 	0.20430 0.30020 0.30200 -0.41600
O 	O 	0.26470 0.36550 0.39340 -0.39400
O 	O 	0.26080 0.62650 0.39120 -0.41800
O 	O 	0.81320 0.47700 0.89580 -0.21400
O 	O 	0.94630 0.31060 0.91750 -0.20200
C 	C 	0.92660 0.23630 0.91140 0.09900
C 	C 	0.73880 0.48260 0.90160 0.11300
C 	C 	0.69490 0.54570 0.92500 -0.02100
C 	C 	0.89000 0.19430 0.84200 -0.01200
C 	C 	0.50000 0.00000 0.67060 0.02200
C 	C 	0.00000 0.50000 0.67060 0.02200
