data_crystal

_cell_length_a 18.29590
_cell_length_b 18.29590
_cell_length_c 17.10990
_cell_angle_alpha 90.00000
_cell_angle_beta  90.00000
_cell_angle_gamma 90.00000

_symmetry_space_group_name_	'P 1'
_symmetry_space_group_name_H-M	'P 1'

loop_
_symmetry_equiv_pos_as_xyz
  x,y,z

loop_
_atom_site_label
_atom_site_type_symbol
_atom_site_fract_x
_atom_site_fract_y
_atom_site_fract_z
_atom_site_charge
C 	C 	0.72781 0.99943 0.49086 0.01900
H 	H 	0.75610 0.99860 0.44430 0.05900
C 	C 	0.70800 0.06580 0.52423 -0.07000
C 	C 	0.66660 0.06697 0.59236 -0.02100
H 	H 	0.65310 0.11230 0.61520 0.06700
C 	C 	0.64506 0.00177 0.62711 0.01600
C 	C 	0.66490 0.93540 0.59374 -0.02500
H 	H 	0.65010 0.89080 0.61750 0.06100
C 	C 	0.70625 0.93423 0.52561 -0.06800
C 	C 	0.45930 0.94580 0.99310 0.00200
C 	C 	0.46590 0.89390 0.05310 0.02700
C 	C 	0.49759 0.85607 0.18847 0.01000
C 	C 	0.56432 0.83641 0.22111 -0.01500
H 	H 	0.60860 0.85190 0.19730 0.06000
C 	C 	0.56625 0.79412 0.28858 -0.08500
C 	C 	0.50144 0.77150 0.32340 0.02900
H 	H 	0.50280 0.74260 0.36950 0.05400
C 	C 	0.43471 0.79117 0.29075 -0.08200
C 	C 	0.43278 0.83345 0.22329 -0.01900
H 	H 	0.38720 0.84690 0.20100 0.06200
C 	C 	0.53590 0.93410 0.94614 -0.00900
C 	C 	0.53160 0.98270 0.00854 0.00500
C 	C 	0.51370 0.95725 0.08277 -0.00600
C 	C 	0.50022 0.88321 0.09461 -0.06000
C 	C 	0.50450 0.83460 0.03221 -0.01600
C 	C 	0.52240 0.86000 0.95797 0.10900
C 	C 	0.49290 0.91210 0.12730 0.04500
C 	C 	0.50580 0.01140 0.14460 -0.00300
C 	C 	0.61890 0.99960 0.71810 0.17200
C 	C 	0.54460 0.98990 0.73190 0.02700
C 	C 	0.52050 0.96830 0.80530 -0.02300
C 	C 	0.57050 0.95640 0.86510 -0.01800
C 	C 	0.64480 0.96600 0.85130 0.13000
C 	C 	0.66900 0.98760 0.77790 -0.06500
C 	C 	0.57840 0.01040 0.68440 -0.13300
C 	C 	0.60740 0.03140 0.75780 -0.09100
C 	C 	0.55260 0.03790 0.81710 0.05100
Cu	Cu	0.71259 0.71276 0.46057 0.90600
Cu	Cu	0.78760 0.78744 0.35466 0.90500
C 	C 	0.36600 0.77590 0.33080 0.34900
C 	C 	0.63110 0.77690 0.32810 0.31000
O 	O 	0.76280 0.86900 0.42420 -0.41500
C 	C 	0.72400 0.86150 0.48390 0.37800
O 	O 	0.69860 0.80640 0.51230 -0.42100
O 	O 	0.86780 0.76330 0.42080 -0.41900
C 	C 	0.72590 0.13690 0.48220 0.36500
O 	O 	0.80710 0.69960 0.51160 -0.40900
O 	O 	0.69400 0.79960 0.29750 -0.36600
O 	O 	0.30720 0.79870 0.29870 -0.38700
O 	O 	0.37010 0.73790 0.39160 -0.40100
O 	O 	0.63060 0.73840 0.39220 -0.38300
O 	O 	0.48790 0.81520 0.90100 -0.19900
O 	O 	0.68960 0.94580 0.91480 -0.20300
C 	C 	0.76730 0.94700 0.90640 0.10100
C 	C 	0.49580 0.73930 0.90440 0.09400
C 	C 	0.42600 0.71100 0.85900 -0.00200
C 	C 	0.81430 0.89300 0.87400 -0.01700
C 	C 	0.27219 0.00057 0.49086 0.01600
H 	H 	0.24390 0.00140 0.44430 0.05800
C 	C 	0.29200 0.93420 0.52423 -0.06900
C 	C 	0.33340 0.93303 0.59236 -0.02400
H 	H 	0.34690 0.88770 0.61520 0.06600
C 	C 	0.35494 0.99823 0.62711 0.01800
C 	C 	0.33510 0.06460 0.59374 -0.02800
H 	H 	0.34990 0.10920 0.61750 0.06200
C 	C 	0.29375 0.06577 0.52561 -0.06700
C 	C 	0.54070 0.05420 0.99310 -0.00100
C 	C 	0.53410 0.10610 0.05310 0.03700
C 	C 	0.50241 0.14393 0.18847 0.00800
C 	C 	0.43568 0.16359 0.22111 -0.01400
H 	H 	0.39140 0.14810 0.19730 0.06000
C 	C 	0.43375 0.20588 0.28858 -0.08600
C 	C 	0.49856 0.22850 0.32340 0.03000
H 	H 	0.49720 0.25740 0.36950 0.05400
C 	C 	0.56529 0.20883 0.29075 -0.08200
C 	C 	0.56722 0.16655 0.22329 -0.01800
H 	H 	0.61280 0.15310 0.20100 0.06100
C 	C 	0.46410 0.06590 0.94614 -0.00800
C 	C 	0.46840 0.01730 0.00854 0.00700
C 	C 	0.48630 0.04275 0.08277 -0.01300
C 	C 	0.49978 0.11679 0.09461 -0.07900
C 	C 	0.49550 0.16540 0.03221 -0.01200
C 	C 	0.47760 0.14000 0.95797 0.10700
C 	C 	0.50710 0.08790 0.12730 0.06100
C 	C 	0.49420 0.98860 0.14460 -0.01600
C 	C 	0.38110 0.00040 0.71810 0.15000
C 	C 	0.45540 0.01010 0.73190 0.01800
C 	C 	0.47950 0.03170 0.80530 -0.01900
C 	C 	0.42950 0.04360 0.86510 -0.01800
C 	C 	0.35520 0.03400 0.85130 0.12800
C 	C 	0.33100 0.01240 0.77790 -0.06200
C 	C 	0.42160 0.98960 0.68440 -0.11700
C 	C 	0.39260 0.96860 0.75780 -0.07700
C 	C 	0.44740 0.96210 0.81710 0.04800
Cu	Cu	0.28741 0.28724 0.46057 0.90600
Cu	Cu	0.21240 0.21256 0.35466 0.90500
C 	C 	0.63400 0.22410 0.33080 0.34900
C 	C 	0.36890 0.22310 0.32810 0.31100
O 	O 	0.23720 0.13100 0.42420 -0.41500
C 	C 	0.27600 0.13850 0.48390 0.37800
O 	O 	0.30140 0.19360 0.51230 -0.42100
O 	O 	0.13220 0.23670 0.42080 -0.42000
C 	C 	0.27410 0.86310 0.48220 0.36500
O 	O 	0.19290 0.30040 0.51160 -0.40900
O 	O 	0.30600 0.20040 0.29750 -0.36600
O 	O 	0.69280 0.20130 0.29870 -0.38700
O 	O 	0.62990 0.26210 0.39160 -0.40100
O 	O 	0.36940 0.26160 0.39220 -0.38300
O 	O 	0.51210 0.18480 0.90100 -0.19900
O 	O 	0.31040 0.05420 0.91480 -0.20300
C 	C 	0.23270 0.05300 0.90640 0.10000
C 	C 	0.50420 0.26070 0.90440 0.09400
C 	C 	0.57400 0.28900 0.85900 -0.00200
C 	C 	0.18570 0.10700 0.87400 -0.01700
C 	C 	0.00057 0.72781 0.49086 0.01600
H 	H 	0.00140 0.75610 0.44430 0.05800
C 	C 	0.93420 0.70800 0.52423 -0.06900
C 	C 	0.93303 0.66660 0.59236 -0.02400
H 	H 	0.88770 0.65310 0.61520 0.06600
C 	C 	0.99823 0.64506 0.62711 0.01800
C 	C 	0.06460 0.66490 0.59374 -0.02800
H 	H 	0.10920 0.65010 0.61750 0.06200
C 	C 	0.06577 0.70625 0.52561 -0.06700
C 	C 	0.05420 0.45930 0.99310 -0.00100
C 	C 	0.10610 0.46590 0.05310 0.03700
C 	C 	0.14393 0.49759 0.18847 0.00800
C 	C 	0.16359 0.56432 0.22111 -0.01400
H 	H 	0.14810 0.60860 0.19730 0.06000
C 	C 	0.20588 0.56625 0.28858 -0.08600
C 	C 	0.22850 0.50144 0.32340 0.03000
H 	H 	0.25740 0.50280 0.36950 0.05400
C 	C 	0.20883 0.43471 0.29075 -0.08200
C 	C 	0.16655 0.43278 0.22329 -0.01800
H 	H 	0.15310 0.38720 0.20100 0.06100
C 	C 	0.06590 0.53590 0.94614 -0.00800
C 	C 	0.01730 0.53160 0.00854 0.00700
C 	C 	0.04275 0.51370 0.08277 -0.01300
C 	C 	0.11679 0.50022 0.09461 -0.08000
C 	C 	0.16540 0.50450 0.03221 -0.01200
C 	C 	0.14000 0.52240 0.95797 0.10700
C 	C 	0.08790 0.49290 0.12730 0.06100
C 	C 	0.98860 0.50580 0.14460 -0.01600
C 	C 	0.00040 0.61890 0.71810 0.14900
C 	C 	0.01010 0.54460 0.73190 0.01800
C 	C 	0.03170 0.52050 0.80530 -0.01900
C 	C 	0.04360 0.57050 0.86510 -0.01800
C 	C 	0.03400 0.64480 0.85130 0.12800
C 	C 	0.01240 0.66900 0.77790 -0.06200
C 	C 	0.98960 0.57840 0.68440 -0.11700
C 	C 	0.96860 0.60740 0.75780 -0.07700
C 	C 	0.96210 0.55260 0.81710 0.04800
Cu	Cu	0.28724 0.71259 0.46057 0.90600
Cu	Cu	0.21256 0.78760 0.35466 0.90500
C 	C 	0.22410 0.36600 0.33080 0.34900
C 	C 	0.22310 0.63110 0.32810 0.31100
O 	O 	0.13100 0.76280 0.42420 -0.41500
C 	C 	0.13850 0.72400 0.48390 0.37800
O 	O 	0.19360 0.69860 0.51230 -0.42100
O 	O 	0.23670 0.86780 0.42080 -0.41900
C 	C 	0.86310 0.72590 0.48220 0.36500
O 	O 	0.30040 0.80710 0.51160 -0.40900
O 	O 	0.20040 0.69400 0.29750 -0.36600
O 	O 	0.20130 0.30720 0.29870 -0.38700
O 	O 	0.26210 0.37010 0.39160 -0.40100
O 	O 	0.26160 0.63060 0.39220 -0.38300
O 	O 	0.18480 0.48790 0.90100 -0.19900
O 	O 	0.05420 0.68960 0.91480 -0.20300
C 	C 	0.05300 0.76730 0.90640 0.10000
C 	C 	0.26070 0.49580 0.90440 0.09400
C 	C 	0.28900 0.42600 0.85900 -0.00200
C 	C 	0.10700 0.81430 0.87400 -0.01700
C 	C 	0.99943 0.27219 0.49086 0.01800
H 	H 	0.99860 0.24390 0.44430 0.05800
C 	C 	0.06580 0.29200 0.52423 -0.07200
C 	C 	0.06697 0.33340 0.59236 -0.02200
H 	H 	0.11230 0.34690 0.61520 0.06600
C 	C 	0.00177 0.35494 0.62711 0.01500
C 	C 	0.93540 0.33510 0.59374 -0.02600
H 	H 	0.89080 0.34990 0.61750 0.06100
C 	C 	0.93423 0.29375 0.52561 -0.06800
C 	C 	0.94580 0.54070 0.99310 0.00200
C 	C 	0.89390 0.53410 0.05310 0.02700
C 	C 	0.85607 0.50241 0.18847 0.01000
C 	C 	0.83641 0.43568 0.22111 -0.01500
H 	H 	0.85190 0.39140 0.19730 0.06000
C 	C 	0.79412 0.43375 0.28858 -0.08500
C 	C 	0.77150 0.49856 0.32340 0.02900
H 	H 	0.74260 0.49720 0.36950 0.05400
C 	C 	0.79117 0.56529 0.29075 -0.08200
C 	C 	0.83345 0.56722 0.22329 -0.01900
H 	H 	0.84690 0.61280 0.20100 0.06200
C 	C 	0.93410 0.46410 0.94614 -0.00900
C 	C 	0.98270 0.46840 0.00854 0.00500
C 	C 	0.95725 0.48630 0.08277 -0.00500
C 	C 	0.88321 0.49978 0.09461 -0.05900
C 	C 	0.83460 0.49550 0.03221 -0.01600
C 	C 	0.86000 0.47760 0.95797 0.10900
C 	C 	0.91210 0.50710 0.12730 0.04500
C 	C 	0.01140 0.49420 0.14460 -0.00300
C 	C 	0.99960 0.38110 0.71810 0.17200
C 	C 	0.98990 0.45540 0.73190 0.02700
C 	C 	0.96830 0.47950 0.80530 -0.02300
C 	C 	0.95640 0.42950 0.86510 -0.01800
C 	C 	0.96600 0.35520 0.85130 0.13000
C 	C 	0.98760 0.33100 0.77790 -0.06500
C 	C 	0.01040 0.42160 0.68440 -0.13300
C 	C 	0.03140 0.39260 0.75780 -0.09100
C 	C 	0.03790 0.44740 0.81710 0.05100
Cu	Cu	0.71276 0.28741 0.46057 0.90600
Cu	Cu	0.78744 0.21240 0.35466 0.90500
C 	C 	0.77590 0.63400 0.33080 0.34900
C 	C 	0.77690 0.36890 0.32810 0.31000
O 	O 	0.86900 0.23720 0.42420 -0.41500
C 	C 	0.86150 0.27600 0.48390 0.37800
O 	O 	0.80640 0.30140 0.51230 -0.42100
O 	O 	0.76330 0.13220 0.42080 -0.42000
C 	C 	0.13690 0.27410 0.48220 0.36500
O 	O 	0.69960 0.19290 0.51160 -0.40900
O 	O 	0.79960 0.30600 0.29750 -0.36600
O 	O 	0.79870 0.69280 0.29870 -0.38700
O 	O 	0.73790 0.62990 0.39160 -0.40100
O 	O 	0.73840 0.36940 0.39220 -0.38300
O 	O 	0.81520 0.51210 0.90100 -0.19900
O 	O 	0.94580 0.31040 0.91480 -0.20300
C 	C 	0.94700 0.23270 0.90640 0.10100
C 	C 	0.73930 0.50420 0.90440 0.09400
C 	C 	0.71100 0.57400 0.85900 -0.00200
C 	C 	0.89300 0.18570 0.87400 -0.01700
C 	C 	0.50000 -0.00000 0.67020 0.05800
C 	C 	-0.00000 0.50000 0.67020 0.05800
