data_crystal

_cell_length_a 18.06480
_cell_length_b 18.06480
_cell_length_c 17.11320
_cell_angle_alpha 90.00000
_cell_angle_beta  90.00000
_cell_angle_gamma 90.00000

_symmetry_space_group_name_	'P 1'
_symmetry_space_group_name_H-M	'P 1'

loop_
_symmetry_equiv_pos_as_xyz
  x,y,z

loop_
_atom_site_label
_atom_site_type_symbol
_atom_site_fract_x
_atom_site_fract_y
_atom_site_fract_z
_atom_site_charge
C 	C 	0.72680 0.00110 0.48630 0.00200
H 	H 	0.75390 0.00140 0.43870 0.06500
C 	C 	0.71040 0.06750 0.52370 -0.06700
C 	C 	0.67070 0.06710 0.59330 -0.02800
H 	H 	0.65960 0.11240 0.61890 0.06500
C 	C 	0.64750 0.00040 0.62550 0.02700
C 	C 	0.66380 0.93410 0.58810 -0.03800
H 	H 	0.64790 0.88850 0.61010 0.06900
C 	C 	0.70350 0.93440 0.51850 -0.04600
C 	C 	0.54500 0.05700 0.98250 0.00500
C 	C 	0.53600 0.10610 0.04800 0.00000
C 	C 	0.50190 0.14140 0.18060 0.02500
C 	C 	0.43520 0.15670 0.21770 -0.02900
H 	H 	0.39000 0.13950 0.19590 0.06400
C 	C 	0.43460 0.19730 0.28670 -0.07100
C 	C 	0.50070 0.22250 0.31870 0.01200
H 	H 	0.50020 0.25030 0.36580 0.05800
C 	C 	0.56740 0.20720 0.28160 -0.05800
C 	C 	0.56800 0.16660 0.21260 -0.03300
H 	H 	0.61360 0.15620 0.18720 0.06600
C 	C 	0.54450 0.93230 0.93870 -0.02300
C 	C 	0.53460 0.98210 0.99930 0.00700
C 	C 	0.51440 0.95770 0.07310 0.00100
C 	C 	0.49600 0.11670 0.08650 0.03100
C 	C 	0.48600 0.16650 0.02600 -0.04600
C 	C 	0.53420 0.85800 0.95210 0.12600
C 	C 	0.51400 0.07540 0.12000 -0.03600
C 	C 	0.51300 0.00150 0.13960 0.01000
C 	C 	0.62070 0.99750 0.71250 0.01000
C 	C 	0.54570 0.98900 0.72780 0.00200
C 	C 	0.52200 0.97220 0.80310 0.00300
C 	C 	0.57330 0.96400 0.86290 -0.00500
C 	C 	0.64840 0.97250 0.84750 0.09500
C 	C 	0.67210 0.98930 0.77230 -0.02400
C 	C 	0.57470 0.01480 0.67890 -0.02100
C 	C 	0.60440 0.04550 0.74740 0.00000
C 	C 	0.44850 0.94710 0.80860 0.00900
Cu	Cu	0.70930 0.71410 0.45289 0.91100
Cu	Cu	0.78690 0.78960 0.34758 0.92300
C 	C 	0.63560 0.22940 0.32480 0.31200
C 	C 	0.36450 0.21570 0.32520 0.33900
O 	O 	0.76250 0.87400 0.41220 -0.38000
C 	C 	0.72380 0.86560 0.47610 0.30200
O 	O 	0.69700 0.80680 0.50690 -0.38900
O 	O 	0.86680 0.75940 0.40930 -0.39800
C 	C 	0.72780 0.13350 0.47910 0.32300
O 	O 	0.80530 0.70670 0.50840 -0.38100
O 	O 	0.30460 0.18770 0.30030 -0.39700
O 	O 	0.70010 0.20620 0.29480 -0.38400
O 	O 	0.63180 0.26780 0.38690 -0.39100
O 	O 	0.36610 0.26670 0.37780 -0.40100
O 	O 	0.55080 0.81750 0.88700 -0.21700
O 	O 	0.70050 0.98470 0.91130 -0.19600
C 	C 	0.81300 0.92200 0.93000 -0.02900
C 	C 	0.83900 0.87700 0.99000 0.00800
C 	C 	0.91200 0.88200 0.01300 0.00300
C 	C 	0.96000 0.93000 0.97600 -0.00000
C 	C 	0.93500 0.97500 0.91600 -0.00300
C 	C 	0.86100 0.97100 0.89300 0.02100
C 	C 	0.73700 0.91800 0.90800 0.10000
C 	C 	0.52920 0.69840 0.93230 -0.02900
C 	C 	0.46600 0.68700 0.88710 0.02200
C 	C 	0.41500 0.63300 0.90900 -0.00800
C 	C 	0.42600 0.59200 0.97700 -0.00200
C 	C 	0.48900 0.60390 0.02200 0.00500
C 	C 	0.54100 0.65700 0.99980 0.00700
C 	C 	0.58500 0.75450 0.91000 0.10500
C 	C 	0.27320 0.99890 0.48630 0.00200
H 	H 	0.24610 0.99860 0.43870 0.06400
C 	C 	0.28960 0.93250 0.52370 -0.06800
C 	C 	0.32930 0.93290 0.59330 -0.02900
H 	H 	0.34040 0.88760 0.61890 0.06400
C 	C 	0.35250 0.99960 0.62550 0.02700
C 	C 	0.33620 0.06590 0.58810 -0.04000
H 	H 	0.35210 0.11150 0.61010 0.06800
C 	C 	0.29650 0.06560 0.51850 -0.04700
C 	C 	0.45500 0.94300 0.98250 0.00600
C 	C 	0.46400 0.89390 0.04800 0.00000
C 	C 	0.49810 0.85860 0.18060 0.02500
C 	C 	0.56480 0.84330 0.21770 -0.02900
H 	H 	0.61000 0.86050 0.19590 0.06400
C 	C 	0.56540 0.80270 0.28670 -0.07100
C 	C 	0.49930 0.77750 0.31870 0.01200
H 	H 	0.49980 0.74970 0.36580 0.05800
C 	C 	0.43260 0.79280 0.28160 -0.05800
C 	C 	0.43200 0.83340 0.21260 -0.03300
H 	H 	0.38640 0.84380 0.18720 0.06600
C 	C 	0.45550 0.06770 0.93870 -0.02300
C 	C 	0.46540 0.01790 0.99930 0.00600
C 	C 	0.48560 0.04230 0.07310 0.00100
C 	C 	0.50400 0.88330 0.08650 0.03100
C 	C 	0.51400 0.83350 0.02600 -0.04600
C 	C 	0.46580 0.14200 0.95210 0.12600
C 	C 	0.48600 0.92460 0.12000 -0.03500
C 	C 	0.48700 0.99850 0.13960 0.00800
C 	C 	0.37930 0.00250 0.71250 0.00800
C 	C 	0.45430 0.01100 0.72780 0.00100
C 	C 	0.47800 0.02780 0.80310 0.00300
C 	C 	0.42670 0.03600 0.86290 -0.00500
C 	C 	0.35160 0.02750 0.84750 0.09500
C 	C 	0.32790 0.01070 0.77230 -0.02400
C 	C 	0.42530 0.98520 0.67890 -0.02000
C 	C 	0.39560 0.95450 0.74740 0.00100
C 	C 	0.55150 0.05290 0.80860 0.00900
Cu	Cu	0.29070 0.28590 0.45289 0.91100
Cu	Cu	0.21310 0.21040 0.34758 0.92300
C 	C 	0.36440 0.77060 0.32480 0.31200
C 	C 	0.63550 0.78430 0.32520 0.33900
O 	O 	0.23750 0.12600 0.41220 -0.38000
C 	C 	0.27620 0.13440 0.47610 0.30200
O 	O 	0.30300 0.19320 0.50690 -0.38900
O 	O 	0.13320 0.24060 0.40930 -0.39800
C 	C 	0.27220 0.86650 0.47910 0.32300
O 	O 	0.19470 0.29330 0.50840 -0.38100
O 	O 	0.69540 0.81230 0.30030 -0.39700
O 	O 	0.29990 0.79380 0.29480 -0.38400
O 	O 	0.36820 0.73220 0.38690 -0.39100
O 	O 	0.63390 0.73330 0.37780 -0.40100
O 	O 	0.44920 0.18250 0.88700 -0.21700
O 	O 	0.29950 0.01530 0.91130 -0.19700
C 	C 	0.18700 0.07800 0.93000 -0.02900
C 	C 	0.16100 0.12300 0.99000 0.00800
C 	C 	0.08800 0.11800 0.01300 0.00300
C 	C 	0.04000 0.07000 0.97600 -0.00000
C 	C 	0.06500 0.02500 0.91600 -0.00400
C 	C 	0.13900 0.02900 0.89300 0.02100
C 	C 	0.26300 0.08200 0.90800 0.10000
C 	C 	0.47080 0.30160 0.93230 -0.02900
C 	C 	0.53400 0.31300 0.88710 0.02200
C 	C 	0.58500 0.36700 0.90900 -0.00800
C 	C 	0.57400 0.40800 0.97700 -0.00200
C 	C 	0.51100 0.39610 0.02200 0.00500
C 	C 	0.45900 0.34300 0.99980 0.00700
C 	C 	0.41500 0.24550 0.91000 0.10500
C 	C 	0.99890 0.72680 0.48630 0.00200
H 	H 	0.99860 0.75390 0.43870 0.06400
C 	C 	0.93250 0.71040 0.52370 -0.06800
C 	C 	0.93290 0.67070 0.59330 -0.02900
H 	H 	0.88760 0.65960 0.61890 0.06400
C 	C 	0.99960 0.64750 0.62550 0.02700
C 	C 	0.06590 0.66380 0.58810 -0.04000
H 	H 	0.11150 0.64790 0.61010 0.06800
C 	C 	0.06560 0.70350 0.51850 -0.04700
C 	C 	0.94300 0.54500 0.98250 0.00600
C 	C 	0.89390 0.53600 0.04800 0.00000
C 	C 	0.85860 0.50190 0.18060 0.02500
C 	C 	0.84330 0.43520 0.21770 -0.02900
H 	H 	0.86050 0.39000 0.19590 0.06400
C 	C 	0.80270 0.43460 0.28670 -0.07100
C 	C 	0.77750 0.50070 0.31870 0.01200
H 	H 	0.74970 0.50020 0.36580 0.05800
C 	C 	0.79280 0.56740 0.28160 -0.05800
C 	C 	0.83340 0.56800 0.21260 -0.03300
H 	H 	0.84380 0.61360 0.18720 0.06600
C 	C 	0.06770 0.54450 0.93870 -0.02300
C 	C 	0.01790 0.53460 0.99930 0.00600
C 	C 	0.04230 0.51440 0.07310 0.00100
C 	C 	0.88330 0.49600 0.08650 0.03100
C 	C 	0.83350 0.48600 0.02600 -0.04600
C 	C 	0.14200 0.53420 0.95210 0.12600
C 	C 	0.92460 0.51400 0.12000 -0.03500
C 	C 	0.99850 0.51300 0.13960 0.00800
C 	C 	0.00250 0.62070 0.71250 0.00800
C 	C 	0.01100 0.54570 0.72780 0.00100
C 	C 	0.02780 0.52200 0.80310 0.00300
C 	C 	0.03600 0.57330 0.86290 -0.00500
C 	C 	0.02750 0.64840 0.84750 0.09500
C 	C 	0.01070 0.67210 0.77230 -0.02400
C 	C 	0.98520 0.57470 0.67890 -0.02000
C 	C 	0.95450 0.60440 0.74740 0.00100
C 	C 	0.05290 0.44850 0.80860 0.00900
Cu	Cu	0.28590 0.70930 0.45289 0.91100
Cu	Cu	0.21040 0.78690 0.34758 0.92300
C 	C 	0.77060 0.63560 0.32480 0.31200
C 	C 	0.78430 0.36450 0.32520 0.33900
O 	O 	0.12600 0.76250 0.41220 -0.38000
C 	C 	0.13440 0.72380 0.47610 0.30200
O 	O 	0.19320 0.69700 0.50690 -0.38900
O 	O 	0.24060 0.86680 0.40930 -0.39800
C 	C 	0.86650 0.72780 0.47910 0.32300
O 	O 	0.29330 0.80530 0.50840 -0.38100
O 	O 	0.81230 0.30460 0.30030 -0.39700
O 	O 	0.79380 0.70010 0.29480 -0.38400
O 	O 	0.73220 0.63180 0.38690 -0.39100
O 	O 	0.73330 0.36610 0.37780 -0.40100
O 	O 	0.18250 0.55080 0.88700 -0.21700
O 	O 	0.01530 0.70050 0.91130 -0.19700
C 	C 	0.07800 0.81300 0.93000 -0.02900
C 	C 	0.12300 0.83900 0.99000 0.00800
C 	C 	0.11800 0.91200 0.01300 0.00300
C 	C 	0.07000 0.96000 0.97600 -0.00000
C 	C 	0.02500 0.93500 0.91600 -0.00400
C 	C 	0.02900 0.86100 0.89300 0.02100
C 	C 	0.08200 0.73700 0.90800 0.10000
C 	C 	0.30160 0.52920 0.93230 -0.02900
C 	C 	0.31300 0.46600 0.88710 0.02200
C 	C 	0.36700 0.41500 0.90900 -0.00800
C 	C 	0.40800 0.42600 0.97700 -0.00200
C 	C 	0.39610 0.48900 0.02200 0.00500
C 	C 	0.34300 0.54100 0.99980 0.00700
C 	C 	0.24550 0.58500 0.91000 0.10500
C 	C 	0.00110 0.27320 0.48630 0.00100
H 	H 	0.00140 0.24610 0.43870 0.06400
C 	C 	0.06750 0.28960 0.52370 -0.06800
C 	C 	0.06710 0.32930 0.59330 -0.02900
H 	H 	0.11240 0.34040 0.61890 0.06400
C 	C 	0.00040 0.35250 0.62550 0.02600
C 	C 	0.93410 0.33620 0.58810 -0.03900
H 	H 	0.88850 0.35210 0.61010 0.06800
C 	C 	0.93440 0.29650 0.51850 -0.04700
C 	C 	0.05700 0.45500 0.98250 0.00500
C 	C 	0.10610 0.46400 0.04800 0.00000
C 	C 	0.14140 0.49810 0.18060 0.02500
C 	C 	0.15670 0.56480 0.21770 -0.02900
H 	H 	0.13950 0.61000 0.19590 0.06400
C 	C 	0.19730 0.56540 0.28670 -0.07100
C 	C 	0.22250 0.49930 0.31870 0.01200
H 	H 	0.25030 0.49980 0.36580 0.05800
C 	C 	0.20720 0.43260 0.28160 -0.05800
C 	C 	0.16660 0.43200 0.21260 -0.03300
H 	H 	0.15620 0.38640 0.18720 0.06600
C 	C 	0.93230 0.45550 0.93870 -0.02300
C 	C 	0.98210 0.46540 0.99930 0.00700
C 	C 	0.95770 0.48560 0.07310 0.00100
C 	C 	0.11670 0.50400 0.08650 0.03100
C 	C 	0.16650 0.51400 0.02600 -0.04600
C 	C 	0.85800 0.46580 0.95210 0.12600
C 	C 	0.07540 0.48600 0.12000 -0.03600
C 	C 	0.00150 0.48700 0.13960 0.01000
C 	C 	0.99750 0.37930 0.71250 0.01000
C 	C 	0.98900 0.45430 0.72780 0.00200
C 	C 	0.97220 0.47800 0.80310 0.00300
C 	C 	0.96400 0.42670 0.86290 -0.00500
C 	C 	0.97250 0.35160 0.84750 0.09500
C 	C 	0.98930 0.32790 0.77230 -0.02400
C 	C 	0.01480 0.42530 0.67890 -0.02100
C 	C 	0.04550 0.39560 0.74740 0.00000
C 	C 	0.94710 0.55150 0.80860 0.00900
Cu	Cu	0.71410 0.29070 0.45289 0.91100
Cu	Cu	0.78960 0.21310 0.34758 0.92300
C 	C 	0.22940 0.36440 0.32480 0.31200
C 	C 	0.21570 0.63550 0.32520 0.33900
O 	O 	0.87400 0.23750 0.41220 -0.38000
C 	C 	0.86560 0.27620 0.47610 0.30200
O 	O 	0.80680 0.30300 0.50690 -0.38900
O 	O 	0.75940 0.13320 0.40930 -0.39800
C 	C 	0.13350 0.27220 0.47910 0.32300
O 	O 	0.70670 0.19470 0.50840 -0.38100
O 	O 	0.18770 0.69540 0.30030 -0.39700
O 	O 	0.20620 0.29990 0.29480 -0.38400
O 	O 	0.26780 0.36820 0.38690 -0.39100
O 	O 	0.26670 0.63390 0.37780 -0.40100
O 	O 	0.81750 0.44920 0.88700 -0.21700
O 	O 	0.98470 0.29950 0.91130 -0.19600
C 	C 	0.92200 0.18700 0.93000 -0.02900
C 	C 	0.87700 0.16100 0.99000 0.00800
C 	C 	0.88200 0.08800 0.01300 0.00300
C 	C 	0.93000 0.04000 0.97600 -0.00000
C 	C 	0.97500 0.06500 0.91600 -0.00400
C 	C 	0.97100 0.13900 0.89300 0.02100
C 	C 	0.91800 0.26300 0.90800 0.10000
C 	C 	0.69840 0.47080 0.93230 -0.02900
C 	C 	0.68700 0.53400 0.88710 0.02200
C 	C 	0.63300 0.58500 0.90900 -0.00800
C 	C 	0.59200 0.57400 0.97700 -0.00200
C 	C 	0.60390 0.51100 0.02200 0.00500
C 	C 	0.65700 0.45900 0.99980 0.00700
C 	C 	0.75450 0.41500 0.91000 0.10500
C 	C 	0.50000 0.00000 0.66530 0.01100
C 	C 	-0.00000 0.50000 0.66530 0.01100
