data_crystal

_cell_length_a 18.07250
_cell_length_b 18.07250
_cell_length_c 17.18540
_cell_angle_alpha 90.00000
_cell_angle_beta  90.00000
_cell_angle_gamma 90.00000

_symmetry_space_group_name_	'P 1'
_symmetry_space_group_name_H-M	'P 1'

loop_
_symmetry_equiv_pos_as_xyz
  x,y,z

loop_
_atom_site_label
_atom_site_type_symbol
_atom_site_fract_x
_atom_site_fract_y
_atom_site_fract_z
_atom_site_charge
C 	C 	0.71650 0.00670 0.49030 0.00200
H 	H 	0.74370 0.00740 0.44300 0.06500
C 	C 	0.70190 0.07340 0.53000 -0.04700
C 	C 	0.66140 0.07230 0.60020 -0.03500
H 	H 	0.65160 0.11730 0.62700 0.08400
C 	C 	0.63570 0.00460 0.63070 0.05100
C 	C 	0.65030 0.93800 0.59090 -0.05200
H 	H 	0.63290 0.89240 0.61150 0.06300
C 	C 	0.69070 0.93900 0.52080 -0.05700
C 	C 	0.45460 0.94170 0.99860 0.02100
C 	C 	0.45940 0.89100 0.06150 -0.00700
C 	C 	0.49330 0.84630 0.18190 0.03100
C 	C 	0.56070 0.82980 0.21940 -0.03900
H 	H 	0.60630 0.84470 0.19660 0.06800
C 	C 	0.56050 0.79140 0.29070 -0.05300
C 	C 	0.49300 0.76940 0.32460 -0.00500
H 	H 	0.49290 0.74340 0.37270 0.07000
C 	C 	0.42560 0.78580 0.28710 -0.04000
C 	C 	0.42580 0.82430 0.21570 -0.04200
H 	H 	0.38030 0.83540 0.19040 0.07100
O 	O 	0.69500 0.95820 0.91690 -0.16200
C 	C 	0.53570 0.93160 0.94590 0.00400
C 	C 	0.53310 0.98150 0.00900 -0.00900
C 	C 	0.51820 0.95520 0.08460 0.00300
C 	C 	0.50580 0.87910 0.09720 0.00900
C 	C 	0.50840 0.82930 0.03410 -0.02300
C 	C 	0.52340 0.85550 0.95850 0.11300
C 	C 	0.48100 0.92060 0.13280 -0.01300
C 	C 	0.51000 0.00380 0.14650 0.01000
C 	C 	0.61530 0.99300 0.71970 0.91900
C 	C 	0.53920 0.98820 0.73690 0.07600
C 	C 	0.51570 0.97380 0.81360 -0.09100
C 	C 	0.56840 0.96430 0.87330 -0.05700
C 	C 	0.64460 0.96910 0.85620 0.18000
C 	C 	0.66800 0.98350 0.77940 -0.15300
C 	C 	0.57670 0.00650 0.68100 -0.59700
C 	C 	0.60510 0.02500 0.75500 -0.61200
C 	C 	0.56100 0.03800 0.82100 0.25700
Cu	Cu	0.70590 0.71670 0.45951 0.92800
Cu	Cu	0.78270 0.79240 0.35572 0.91600
C 	C 	0.35660 0.77010 0.33370 0.30400
C 	C 	0.63090 0.77260 0.32960 0.31700
O 	O 	0.75580 0.86790 0.42660 -0.40700
C 	C 	0.71240 0.86770 0.48400 0.34900
O 	O 	0.68900 0.80560 0.51140 -0.39000
O 	O 	0.77070 0.13130 0.42980 -0.35500
C 	C 	0.72910 0.14340 0.49320 0.30600
O 	O 	0.71130 0.20660 0.51760 -0.38600
O 	O 	0.69110 0.80410 0.31140 -0.40800
O 	O 	0.29820 0.79270 0.30040 -0.39500
O 	O 	0.36550 0.73960 0.40210 -0.39300
O 	O 	0.62380 0.73620 0.39690 -0.38700
O 	O 	0.52700 0.80980 0.89450 -0.15500
C 	C 	0.28350 0.99330 0.49030 0.00500
H 	H 	0.25630 0.99260 0.44300 0.06400
C 	C 	0.29810 0.92660 0.53000 -0.04700
C 	C 	0.33860 0.92770 0.60020 -0.04100
H 	H 	0.34840 0.88270 0.62700 0.08200
C 	C 	0.36430 0.99540 0.63070 0.05900
C 	C 	0.34970 0.06200 0.59090 -0.05600
H 	H 	0.36710 0.10760 0.61150 0.06700
C 	C 	0.30930 0.06100 0.52080 -0.06000
C 	C 	0.54540 0.05830 0.99860 0.01700
C 	C 	0.54060 0.10900 0.06150 -0.00600
C 	C 	0.50670 0.15370 0.18190 0.03200
C 	C 	0.43930 0.17020 0.21940 -0.03900
H 	H 	0.39370 0.15530 0.19660 0.06700
C 	C 	0.43950 0.20860 0.29070 -0.05300
C 	C 	0.50700 0.23060 0.32460 -0.00500
H 	H 	0.50710 0.25660 0.37270 0.07000
C 	C 	0.57440 0.21420 0.28710 -0.04000
C 	C 	0.57420 0.17570 0.21570 -0.04200
H 	H 	0.61970 0.16460 0.19040 0.07100
O 	O 	0.30500 0.04180 0.91690 -0.16100
C 	C 	0.46430 0.06840 0.94590 0.00400
C 	C 	0.46690 0.01850 0.00900 -0.01500
C 	C 	0.48180 0.04480 0.08460 0.00500
C 	C 	0.49420 0.12090 0.09720 0.01100
C 	C 	0.49160 0.17070 0.03410 -0.02400
C 	C 	0.47660 0.14450 0.95850 0.11400
C 	C 	0.51900 0.07940 0.13280 -0.02000
C 	C 	0.49000 0.99620 0.14650 -0.00300
C 	C 	0.38470 0.00700 0.71970 0.78800
C 	C 	0.46080 0.01180 0.73690 0.04300
C 	C 	0.48430 0.02620 0.81360 -0.08600
C 	C 	0.43160 0.03570 0.87330 -0.05100
C 	C 	0.35540 0.03090 0.85620 0.17000
C 	C 	0.33200 0.01650 0.77940 -0.13900
C 	C 	0.42330 0.99350 0.68100 -0.52600
C 	C 	0.39490 0.97500 0.75500 -0.51100
C 	C 	0.43900 0.96200 0.82100 0.23000
Cu	Cu	0.29410 0.28330 0.45951 0.92900
Cu	Cu	0.21730 0.20760 0.35572 0.91600
C 	C 	0.64340 0.22990 0.33370 0.30400
C 	C 	0.36910 0.22740 0.32960 0.31700
O 	O 	0.24420 0.13210 0.42660 -0.40800
C 	C 	0.28760 0.13230 0.48400 0.34900
O 	O 	0.31100 0.19440 0.51140 -0.39000
O 	O 	0.22930 0.86870 0.42980 -0.35500
C 	C 	0.27090 0.85660 0.49320 0.30600
O 	O 	0.28870 0.79340 0.51760 -0.38600
O 	O 	0.30890 0.19590 0.31140 -0.40900
O 	O 	0.70180 0.20730 0.30040 -0.39500
O 	O 	0.63450 0.26040 0.40210 -0.39300
O 	O 	0.37620 0.26380 0.39690 -0.38700
O 	O 	0.47300 0.19020 0.89450 -0.15400
C 	C 	0.99330 0.71650 0.49030 0.00500
H 	H 	0.99260 0.74370 0.44300 0.06400
C 	C 	0.92660 0.70190 0.53000 -0.04700
C 	C 	0.92770 0.66140 0.60020 -0.04100
H 	H 	0.88270 0.65160 0.62700 0.08200
C 	C 	0.99540 0.63570 0.63070 0.05900
C 	C 	0.06200 0.65030 0.59090 -0.05600
H 	H 	0.10760 0.63290 0.61150 0.06700
C 	C 	0.06100 0.69070 0.52080 -0.06000
C 	C 	0.05830 0.45460 0.99860 0.01700
C 	C 	0.10900 0.45940 0.06150 -0.00600
C 	C 	0.15370 0.49330 0.18190 0.03200
C 	C 	0.17020 0.56070 0.21940 -0.03900
H 	H 	0.15530 0.60630 0.19660 0.06800
C 	C 	0.20860 0.56050 0.29070 -0.05300
C 	C 	0.23060 0.49300 0.32460 -0.00500
H 	H 	0.25660 0.49290 0.37270 0.07000
C 	C 	0.21420 0.42560 0.28710 -0.04000
C 	C 	0.17570 0.42580 0.21570 -0.04200
H 	H 	0.16460 0.38030 0.19040 0.07100
O 	O 	0.04180 0.69500 0.91690 -0.16100
C 	C 	0.06840 0.53570 0.94590 0.00400
C 	C 	0.01850 0.53310 0.00900 -0.01500
C 	C 	0.04480 0.51820 0.08460 0.00500
C 	C 	0.12090 0.50580 0.09720 0.01100
C 	C 	0.17070 0.50840 0.03410 -0.02400
C 	C 	0.14450 0.52340 0.95850 0.11400
C 	C 	0.07940 0.48100 0.13280 -0.02000
C 	C 	0.99620 0.51000 0.14650 -0.00300
C 	C 	0.00700 0.61530 0.71970 0.78700
C 	C 	0.01180 0.53920 0.73690 0.04400
C 	C 	0.02620 0.51570 0.81360 -0.08600
C 	C 	0.03570 0.56840 0.87330 -0.05100
C 	C 	0.03090 0.64460 0.85620 0.17000
C 	C 	0.01650 0.66800 0.77940 -0.13800
C 	C 	0.99350 0.57670 0.68100 -0.52600
C 	C 	0.97500 0.60510 0.75500 -0.51100
C 	C 	0.96200 0.56100 0.82100 0.23000
Cu	Cu	0.28330 0.70590 0.45951 0.92800
Cu	Cu	0.20760 0.78270 0.35572 0.91600
C 	C 	0.22990 0.35660 0.33370 0.30400
C 	C 	0.22740 0.63090 0.32960 0.31700
O 	O 	0.13210 0.75580 0.42660 -0.40800
C 	C 	0.13230 0.71240 0.48400 0.34900
O 	O 	0.19440 0.68900 0.51140 -0.39000
O 	O 	0.86870 0.77070 0.42980 -0.35500
C 	C 	0.85660 0.72910 0.49320 0.30600
O 	O 	0.79340 0.71130 0.51760 -0.38600
O 	O 	0.19590 0.69110 0.31140 -0.40900
O 	O 	0.20730 0.29820 0.30040 -0.39500
O 	O 	0.26040 0.36550 0.40210 -0.39300
O 	O 	0.26380 0.62380 0.39690 -0.38700
O 	O 	0.19020 0.52700 0.89450 -0.15400
C 	C 	0.00670 0.28350 0.49030 0.00100
H 	H 	0.00740 0.25630 0.44300 0.06400
C 	C 	0.07340 0.29810 0.53000 -0.04800
C 	C 	0.07230 0.33860 0.60020 -0.03600
H 	H 	0.11730 0.34840 0.62700 0.08300
C 	C 	0.00460 0.36430 0.63070 0.05100
C 	C 	0.93800 0.34970 0.59090 -0.05200
H 	H 	0.89240 0.36710 0.61150 0.06300
C 	C 	0.93900 0.30930 0.52080 -0.05800
C 	C 	0.94170 0.54540 0.99860 0.02100
C 	C 	0.89100 0.54060 0.06150 -0.00700
C 	C 	0.84630 0.50670 0.18190 0.03100
C 	C 	0.82980 0.43930 0.21940 -0.03900
H 	H 	0.84470 0.39370 0.19660 0.06800
C 	C 	0.79140 0.43950 0.29070 -0.05300
C 	C 	0.76940 0.50700 0.32460 -0.00500
H 	H 	0.74340 0.50710 0.37270 0.07000
C 	C 	0.78580 0.57440 0.28710 -0.04000
C 	C 	0.82430 0.57420 0.21570 -0.04200
H 	H 	0.83540 0.61970 0.19040 0.07100
O 	O 	0.95820 0.30500 0.91690 -0.16200
C 	C 	0.93160 0.46430 0.94590 0.00400
C 	C 	0.98150 0.46690 0.00900 -0.00900
C 	C 	0.95520 0.48180 0.08460 0.00300
C 	C 	0.87910 0.49420 0.09720 0.00900
C 	C 	0.82930 0.49160 0.03410 -0.02300
C 	C 	0.85550 0.47660 0.95850 0.11300
C 	C 	0.92060 0.51900 0.13280 -0.01300
C 	C 	0.00380 0.49000 0.14650 0.01000
C 	C 	0.99300 0.38470 0.71970 0.91900
C 	C 	0.98820 0.46080 0.73690 0.07600
C 	C 	0.97380 0.48430 0.81360 -0.09000
C 	C 	0.96430 0.43160 0.87330 -0.05700
C 	C 	0.96910 0.35540 0.85620 0.18000
C 	C 	0.98350 0.33200 0.77940 -0.15300
C 	C 	0.00650 0.42330 0.68100 -0.59700
C 	C 	0.02500 0.39490 0.75500 -0.61200
C 	C 	0.03800 0.43900 0.82100 0.25800
Cu	Cu	0.71670 0.29410 0.45951 0.92800
Cu	Cu	0.79240 0.21730 0.35572 0.91600
C 	C 	0.77010 0.64340 0.33370 0.30400
C 	C 	0.77260 0.36910 0.32960 0.31700
O 	O 	0.86790 0.24420 0.42660 -0.40700
C 	C 	0.86770 0.28760 0.48400 0.34900
O 	O 	0.80560 0.31100 0.51140 -0.39000
O 	O 	0.13130 0.22930 0.42980 -0.35600
C 	C 	0.14340 0.27090 0.49320 0.30600
O 	O 	0.20660 0.28870 0.51760 -0.38600
O 	O 	0.80410 0.30890 0.31140 -0.40800
O 	O 	0.79270 0.70180 0.30040 -0.39500
O 	O 	0.73960 0.63450 0.40210 -0.39300
O 	O 	0.73620 0.37620 0.39690 -0.38700
O 	O 	0.80980 0.47300 0.89450 -0.15500
C 	C 	0.50000 0.00000 0.67070 0.33700
C 	C 	-0.00000 0.50000 0.67070 0.33700
