data_crystal

_cell_length_a 18.86100
_cell_length_b 22.03900
_cell_length_c 29.58600
_cell_angle_alpha 90.02400
_cell_angle_beta  90.01800
_cell_angle_gamma 90.00200

_symmetry_space_group_name_	'P 1'
_symmetry_space_group_name_H-M	'P 1'

loop_
_symmetry_equiv_pos_as_xyz
  x,y,z

loop_
_atom_site_label
_atom_site_type_symbol
_atom_site_fract_x
_atom_site_fract_y
_atom_site_fract_z
_atom_site_charge
Cu	Cu	0.26968 0.20220 0.53914 0.82200
Cu	Cu	0.23038 0.70187 0.53913 0.82100
Cu	Cu	0.26964 0.70205 0.96079 0.81700
Cu	Cu	0.23041 0.20210 0.96070 0.81700
Cu	Cu	0.74999 0.67325 0.74993 0.85500
Cu	Cu	0.74989 0.17345 0.74987 0.85300
N 	N 	0.21760 0.79260 0.53910 -0.26300
N 	N 	0.25560 0.11290 0.54040 -0.24600
N 	N 	0.24330 0.61190 0.54150 -0.27900
N 	N 	0.28280 0.29180 0.54110 -0.24700
N 	N 	0.75050 0.58360 0.75100 -0.25300
N 	N 	0.75090 0.26310 0.75020 -0.24700
N 	N 	0.74790 0.76490 0.74990 -0.23300
N 	N 	0.74980 0.08180 0.75010 -0.25300
N 	N 	0.21750 0.29300 0.96010 -0.25400
N 	N 	0.25470 0.61140 0.95890 -0.25300
N 	N 	0.24780 0.11020 0.95920 -0.24600
N 	N 	0.28460 0.79410 0.96070 -0.26100
N 	N 	0.66610 0.67240 0.78950 -0.24800
N 	N 	0.35930 0.69070 0.92630 -0.24400
N 	N 	0.83410 0.67080 0.70930 -0.24300
N 	N 	0.14270 0.68910 0.57390 -0.25400
N 	N 	0.83310 0.17200 0.79150 -0.24700
N 	N 	0.14050 0.19040 0.92500 -0.24700
N 	N 	0.66490 0.17220 0.70900 -0.24000
N 	N 	0.35860 0.19070 0.57400 -0.25500
C 	C 	0.74730 0.86030 0.79000 -0.11200
H 	H 	0.74790 0.88120 0.81730 0.06000
C 	C 	0.61030 0.15170 0.63810 -0.13700
H 	H 	0.61460 0.14030 0.60800 0.06800
C 	C 	0.74700 0.29340 0.71310 0.07700
H 	H 	0.74350 0.27130 0.68640 -0.02700
C 	C 	0.48030 0.17840 0.62560 0.05700
C 	C 	0.83290 0.64810 0.66710 0.08000
H 	H 	0.79060 0.63190 0.65620 -0.02600
C 	C 	0.70020 0.05130 0.77070 0.10200
H 	H 	0.66630 0.07300 0.78680 -0.03600
C 	C 	0.35460 0.17120 0.61410 0.09800
H 	H 	0.31020 0.16150 0.62570 -0.03800
C 	C 	0.95330 0.17620 0.84650 0.05300
C 	C 	0.74950 0.35860 0.79160 -0.12800
H 	H 	0.74770 0.37850 0.81930 0.06500
C 	C 	0.23250 0.98560 0.54080 0.02800
C 	C 	0.29570 0.88680 0.92190 -0.17600
H 	H 	0.30840 0.90750 0.89570 0.08200
C 	C 	0.79880 0.55300 0.77200 0.10100
H 	H 	0.83120 0.57400 0.78980 -0.03600
C 	C 	0.01700 0.69650 0.58020 -0.15100
H 	H 	0.97420 0.70470 0.56590 0.06900
C 	C 	0.48450 0.19950 0.57940 -0.14600
H 	H 	0.52740 0.21040 0.56620 0.06700
C 	C 	0.54260 0.69980 0.80350 -0.15000
H 	H 	0.50150 0.71890 0.79360 0.07500
C 	C 	0.69740 0.49080 0.72940 -0.15100
H 	H 	0.65870 0.47120 0.71650 0.07600
C 	C 	0.20060 0.32270 0.92470 0.08100
H 	H 	0.18340 0.30120 0.89990 -0.02300
C 	C 	0.80390 0.98830 0.72730 -0.17500
H 	H 	0.83760 0.96840 0.70980 0.08400
C 	C 	0.23520 0.82520 0.50250 0.08100
H 	H 	0.24540 0.80430 0.47600 -0.04400
C 	C 	0.22730 0.41940 0.95950 0.04000
C 	C 	0.70040 0.55570 0.72870 0.08500
H 	H 	0.66700 0.57790 0.71260 -0.03400
C 	C 	0.80200 0.04990 0.73220 0.10200
H 	H 	0.84120 0.07150 0.72190 -0.03300
C 	C 	0.54270 0.19970 0.69780 -0.14600
H 	H 	0.50200 0.21900 0.70810 0.07300
C 	C 	0.74890 0.39110 0.75070 0.03700
C 	C 	0.75030 0.79550 0.71170 0.06800
H 	H 	0.74980 0.77360 0.68490 -0.02400
C 	C 	0.29760 0.58510 0.56070 0.10500
H 	H 	0.33210 0.61050 0.57300 -0.04800
C 	C 	0.95670 0.69750 0.69560 -0.13700
H 	H 	0.99890 0.71370 0.70650 0.06900
C 	C 	0.74770 0.35910 0.70940 -0.13200
H 	H 	0.74720 0.37880 0.68160 0.06600
C 	C 	0.26660 0.32400 0.50160 0.02300
H 	H 	0.25800 0.30340 0.47480 -0.02400
C 	C 	0.30030 0.57470 0.97860 0.08100
H 	H 	0.33930 0.59190 0.99310 -0.03100
C 	C 	0.89060 0.64800 0.63960 -0.14700
H 	H 	0.88760 0.62930 0.61140 0.07100
C 	C 	0.14430 0.17020 0.88270 0.07600
H 	H 	0.18820 0.16150 0.87000 -0.02800
C 	C 	0.66600 0.64790 0.83100 0.08000
H 	H 	0.70720 0.62790 0.83990 -0.02400
C 	C 	0.23800 0.38670 0.99990 -0.12900
H 	H 	0.24550 0.40690 0.02710 0.06400
C 	C 	0.20210 0.82360 0.57500 0.08800
H 	H 	0.18830 0.80260 0.60080 -0.02600
C 	C 	0.66820 0.14700 0.66800 0.06800
H 	H 	0.70890 0.12630 0.65920 -0.02200
C 	C 	0.22650 0.91950 0.54050 0.07400
C 	C 	0.29220 0.01270 0.51870 -0.11700
H 	H 	0.32400 0.98800 0.50320 0.06200
C 	C 	0.20660 0.38680 0.92120 -0.14000
H 	H 	0.19700 0.40660 0.89410 0.07000
C 	C 	0.80460 0.48950 0.76920 -0.15900
H 	H 	0.84380 0.46940 0.78090 0.07900
C 	C 	0.07890 0.19880 0.94420 0.08900
H 	H 	0.07710 0.20550 0.97530 -0.03800
C 	C 	0.23720 0.32450 0.99830 0.04800
H 	H 	0.25040 0.30280 0.02390 -0.03400
C 	C 	0.60370 0.69620 0.77670 0.07900
H 	H 	0.60070 0.71150 0.74750 -0.02600
C 	C 	0.20810 0.01290 0.97860 -0.11600
H 	H 	0.17430 0.98820 0.99220 0.06100
C 	C 	0.74490 0.79250 0.79060 0.03900
H 	H 	0.74160 0.77070 0.81740 -0.01300
C 	C 	0.26360 0.88680 0.99870 -0.17700
H 	H 	0.25510 0.90720 0.02570 0.08100
C 	C 	0.26570 0.98590 0.95740 0.03000
C 	C 	0.01640 0.19820 0.91990 -0.14800
H 	H 	0.97400 0.21020 0.93320 0.06800
C 	C 	0.01860 0.67780 0.62550 0.06000
C 	C 	0.01820 0.17900 0.87470 0.05600
C 	C 	0.26630 0.82510 0.99720 0.09000
H 	H 	0.25460 0.80360 0.02320 -0.04900
C 	C 	0.88960 0.15040 0.86030 -0.15600
H 	H 	0.88580 0.13450 0.88930 0.07400
C 	C 	0.83360 0.14790 0.83260 0.09400
H 	H 	0.79290 0.12830 0.84280 -0.02900
C 	C 	0.75280 0.29490 0.78920 0.06200
H 	H 	0.75650 0.27340 0.81610 -0.01900
C 	C 	0.23600 0.48520 0.95740 0.06100
C 	C 	0.26270 0.48620 0.54150 0.10000
C 	C 	0.27380 0.91740 0.95970 0.08300
C 	C 	0.95580 0.19960 0.80220 -0.14100
H 	H 	0.99690 0.21700 0.79070 0.07100
C 	C 	0.08170 0.70280 0.55680 0.09200
H 	H 	0.08050 0.71760 0.52740 -0.03900
C 	C 	0.27450 0.42050 0.54070 0.01700
C 	C 	0.29830 0.82480 0.92390 0.09900
H 	H 	0.31030 0.80350 0.89790 -0.02900
C 	C 	0.19880 0.07670 0.98060 0.05000
H 	H 	0.16090 0.09440 0.99580 -0.02400
C 	C 	0.69470 0.98810 0.77000 -0.17100
H 	H 	0.65560 0.96770 0.78160 0.08400
C 	C 	0.89660 0.69590 0.72280 0.06600
H 	H 	0.89930 0.71270 0.75160 -0.02300
C 	C 	0.30340 0.07350 0.52000 0.05000
H 	H 	0.34430 0.08920 0.50680 -0.01600
C 	C 	0.20860 0.51340 0.52020 -0.20700
H 	H 	0.17540 0.49010 0.50470 0.09300
C 	C 	0.19980 0.08680 0.56320 0.04400
H 	H 	0.16770 0.11140 0.57850 -0.02600
C 	C 	0.35450 0.67040 0.88440 0.07200
H 	H 	0.31000 0.66010 0.87320 -0.02900
C 	C 	0.41610 0.16320 0.64250 -0.15300
H 	H 	0.41180 0.14810 0.67170 0.07600
C 	C 	0.20530 0.88800 0.57690 -0.16200
H 	H 	0.19270 0.90820 0.60330 0.07800
C 	C 	0.14380 0.66950 0.61660 0.08600
H 	H 	0.18710 0.65910 0.62950 -0.03000
C 	C 	0.08320 0.66410 0.64220 -0.15200
H 	H 	0.08680 0.65060 0.67190 0.07500
C 	C 	0.95280 0.67470 0.65230 0.05200
C 	C 	0.74850 0.89120 0.75180 0.03200
C 	C 	0.26340 0.38770 0.50280 -0.10400
H 	H 	0.25330 0.40830 0.47610 0.05500
C 	C 	0.61060 0.64920 0.86210 -0.15300
H 	H 	0.61550 0.63530 0.89160 0.07400
C 	C 	0.29370 0.51120 0.97920 -0.14800
H 	H 	0.32720 0.48720 0.99380 0.07400
C 	C 	0.42080 0.20250 0.55570 0.08600
H 	H 	0.42210 0.21340 0.52540 -0.03500
C 	C 	0.20220 0.57420 0.52110 0.13500
H 	H 	0.16410 0.59070 0.50530 -0.04900
C 	C 	0.48410 0.69820 0.91880 -0.12900
H 	H 	0.52700 0.71030 0.93140 0.06200
C 	C 	0.75140 0.95830 0.75070 0.08100
C 	C 	0.19070 0.02380 0.56360 -0.11600
H 	H 	0.15370 0.00770 0.58060 0.06000
C 	C 	0.30940 0.52350 0.56460 -0.18600
H 	H 	0.34660 0.50800 0.58170 0.08500
C 	C 	0.30000 0.32430 0.57740 0.06300
H 	H 	0.31570 0.30420 0.60320 -0.01400
C 	C 	0.19100 0.52320 0.93680 -0.14100
H 	H 	0.15160 0.50690 0.92230 0.07000
C 	C 	0.54650 0.17390 0.65500 0.05200
C 	C 	0.75350 0.85980 0.70880 -0.12500
H 	H 	0.75850 0.88020 0.68150 0.06400
C 	C 	0.30140 0.08750 0.93700 0.07400
H 	H 	0.33300 0.11330 0.92250 -0.03900
C 	C 	0.42210 0.70100 0.94530 0.06900
H 	H 	0.42500 0.70990 0.97600 -0.02900
C 	C 	0.20030 0.58690 0.93580 0.06100
H 	H 	0.16930 0.61130 0.91950 -0.03300
C 	C 	0.29540 0.38620 0.57830 -0.12000
H 	H 	0.30670 0.40640 0.60500 0.06300
C 	C 	0.08180 0.16190 0.85730 -0.14200
H 	H 	0.08410 0.14470 0.82860 0.07200
C 	C 	0.23920 0.88630 0.50150 -0.16300
H 	H 	0.25030 0.90620 0.47460 0.07600
C 	C 	0.60160 0.19510 0.72370 0.07500
H 	H 	0.59890 0.20840 0.75350 -0.02600
C 	C 	0.31150 0.02570 0.93490 -0.13200
H 	H 	0.34920 0.01010 0.91830 0.06600
C 	C 	0.89400 0.19550 0.77640 0.07600
H 	H 	0.89530 0.21000 0.74700 -0.02900
C 	C 	0.75000 0.45750 0.74830 0.06900
C 	C 	0.54770 0.67280 0.84580 0.06300
C 	C 	0.48300 0.67840 0.87510 0.04000
C 	C 	0.41360 0.66360 0.85600 -0.12900
H 	H 	0.40880 0.65020 0.82630 0.06700
Cu	Cu	0.73032 0.79780 0.46086 0.82300
Cu	Cu	0.76962 0.29813 0.46087 0.82200
Cu	Cu	0.73036 0.29795 0.03921 0.81800
Cu	Cu	0.76959 0.79790 0.03930 0.81800
Cu	Cu	0.25001 0.32675 0.25007 0.85600
Cu	Cu	0.25011 0.82655 0.25013 0.85400
N 	N 	0.78240 0.20740 0.46090 -0.26200
N 	N 	0.74440 0.88710 0.45960 -0.24500
N 	N 	0.75670 0.38810 0.45850 -0.27800
N 	N 	0.71720 0.70820 0.45890 -0.24600
N 	N 	0.24950 0.41640 0.24900 -0.25300
N 	N 	0.24910 0.73690 0.24980 -0.24700
N 	N 	0.25210 0.23510 0.25010 -0.23300
N 	N 	0.25020 0.91820 0.24990 -0.25300
N 	N 	0.78250 0.70700 0.03990 -0.25400
N 	N 	0.74530 0.38860 0.04110 -0.25300
N 	N 	0.75220 0.88980 0.04080 -0.24600
N 	N 	0.71540 0.20590 0.03930 -0.26100
N 	N 	0.33390 0.32760 0.21050 -0.24800
N 	N 	0.64070 0.30930 0.07370 -0.24400
N 	N 	0.16590 0.32920 0.29070 -0.24300
N 	N 	0.85730 0.31090 0.42610 -0.25400
N 	N 	0.16690 0.82800 0.20850 -0.24700
N 	N 	0.85950 0.80960 0.07500 -0.24700
N 	N 	0.33510 0.82780 0.29100 -0.24000
N 	N 	0.64140 0.80930 0.42600 -0.25500
C 	C 	0.25270 0.13970 0.21000 -0.11200
H 	H 	0.25210 0.11880 0.18270 0.06000
C 	C 	0.38970 0.84830 0.36190 -0.13700
H 	H 	0.38540 0.85970 0.39200 0.06800
C 	C 	0.25300 0.70660 0.28690 0.07700
H 	H 	0.25650 0.72870 0.31360 -0.02700
C 	C 	0.51970 0.82160 0.37440 0.05700
C 	C 	0.16710 0.35190 0.33290 0.08000
H 	H 	0.20940 0.36810 0.34380 -0.02600
C 	C 	0.29980 0.94870 0.22930 0.10200
H 	H 	0.33370 0.92700 0.21320 -0.03600
C 	C 	0.64540 0.82880 0.38590 0.09800
H 	H 	0.68980 0.83850 0.37430 -0.03800
C 	C 	0.04670 0.82380 0.15350 0.05300
C 	C 	0.25050 0.64140 0.20840 -0.12800
H 	H 	0.25230 0.62150 0.18070 0.06500
C 	C 	0.76750 0.01440 0.45920 0.02800
C 	C 	0.70430 0.11320 0.07810 -0.17600
H 	H 	0.69160 0.09250 0.10430 0.08200
C 	C 	0.20120 0.44700 0.22800 0.10100
H 	H 	0.16880 0.42600 0.21020 -0.03600
C 	C 	0.98300 0.30350 0.41980 -0.15100
H 	H 	0.02580 0.29530 0.43410 0.06900
C 	C 	0.51550 0.80050 0.42060 -0.14600
H 	H 	0.47260 0.78960 0.43380 0.06700
C 	C 	0.45740 0.30020 0.19650 -0.15000
H 	H 	0.49850 0.28110 0.20640 0.07500
C 	C 	0.30260 0.50920 0.27060 -0.15100
H 	H 	0.34130 0.52880 0.28350 0.07600
C 	C 	0.79940 0.67730 0.07530 0.08100
H 	H 	0.81660 0.69880 0.10010 -0.02300
C 	C 	0.19610 0.01170 0.27270 -0.17500
H 	H 	0.16240 0.03160 0.29020 0.08400
C 	C 	0.76480 0.17480 0.49750 0.08100
H 	H 	0.75460 0.19570 0.52400 -0.04400
C 	C 	0.77270 0.58060 0.04050 0.04000
C 	C 	0.29960 0.44430 0.27130 0.08500
H 	H 	0.33300 0.42210 0.28740 -0.03400
C 	C 	0.19800 0.95010 0.26780 0.10200
H 	H 	0.15880 0.92850 0.27810 -0.03300
C 	C 	0.45730 0.80030 0.30220 -0.14600
H 	H 	0.49800 0.78100 0.29190 0.07300
C 	C 	0.25110 0.60890 0.24930 0.03700
C 	C 	0.24970 0.20450 0.28830 0.06800
H 	H 	0.25020 0.22640 0.31510 -0.02400
C 	C 	0.70240 0.41490 0.43930 0.10500
H 	H 	0.66790 0.38950 0.42700 -0.04800
C 	C 	0.04330 0.30250 0.30440 -0.13700
H 	H 	0.00110 0.28630 0.29350 0.06900
C 	C 	0.25230 0.64090 0.29060 -0.13200
H 	H 	0.25280 0.62120 0.31840 0.06600
C 	C 	0.73340 0.67600 0.49840 0.02300
H 	H 	0.74200 0.69660 0.52520 -0.02400
C 	C 	0.69970 0.42530 0.02140 0.08100
H 	H 	0.66070 0.40810 0.00690 -0.03100
C 	C 	0.10940 0.35200 0.36040 -0.14700
H 	H 	0.11240 0.37070 0.38860 0.07100
C 	C 	0.85570 0.82980 0.11730 0.07600
H 	H 	0.81180 0.83850 0.13000 -0.02800
C 	C 	0.33400 0.35210 0.16900 0.08000
H 	H 	0.29280 0.37210 0.16010 -0.02400
C 	C 	0.76200 0.61330 0.00010 -0.12900
H 	H 	0.75450 0.59310 0.97290 0.06400
C 	C 	0.79790 0.17640 0.42500 0.08800
H 	H 	0.81170 0.19740 0.39920 -0.02600
C 	C 	0.33180 0.85300 0.33200 0.06800
H 	H 	0.29110 0.87370 0.34080 -0.02200
C 	C 	0.77350 0.08050 0.45950 0.07400
C 	C 	0.70780 0.98730 0.48130 -0.11700
H 	H 	0.67600 0.01200 0.49680 0.06200
C 	C 	0.79340 0.61320 0.07880 -0.14000
H 	H 	0.80300 0.59340 0.10590 0.07000
C 	C 	0.19540 0.51050 0.23080 -0.15900
H 	H 	0.15620 0.53060 0.21910 0.07900
C 	C 	0.92110 0.80120 0.05580 0.08900
H 	H 	0.92290 0.79450 0.02470 -0.03800
C 	C 	0.76280 0.67550 0.00170 0.04800
H 	H 	0.74960 0.69720 0.97610 -0.03400
C 	C 	0.39630 0.30380 0.22330 0.07900
H 	H 	0.39930 0.28850 0.25250 -0.02600
C 	C 	0.79190 0.98710 0.02140 -0.11600
H 	H 	0.82570 0.01180 0.00780 0.06100
C 	C 	0.25510 0.20750 0.20940 0.03900
H 	H 	0.25840 0.22930 0.18260 -0.01300
C 	C 	0.73640 0.11320 0.00130 -0.17700
H 	H 	0.74490 0.09280 0.97430 0.08100
C 	C 	0.73430 0.01410 0.04260 0.03000
C 	C 	0.98360 0.80180 0.08010 -0.14800
H 	H 	0.02600 0.78980 0.06680 0.06800
C 	C 	0.98140 0.32220 0.37450 0.06000
C 	C 	0.98180 0.82100 0.12530 0.05600
C 	C 	0.73370 0.17490 0.00280 0.09000
H 	H 	0.74540 0.19640 0.97680 -0.04900
C 	C 	0.11040 0.84960 0.13970 -0.15600
H 	H 	0.11420 0.86550 0.11070 0.07400
C 	C 	0.16640 0.85210 0.16740 0.09400
H 	H 	0.20710 0.87170 0.15720 -0.02900
C 	C 	0.24720 0.70510 0.21080 0.06200
H 	H 	0.24350 0.72660 0.18390 -0.01900
C 	C 	0.76400 0.51480 0.04260 0.06100
C 	C 	0.73730 0.51380 0.45850 0.10000
C 	C 	0.72620 0.08260 0.04030 0.08300
C 	C 	0.04420 0.80040 0.19780 -0.14100
H 	H 	0.00310 0.78300 0.20930 0.07100
C 	C 	0.91830 0.29720 0.44320 0.09200
H 	H 	0.91950 0.28240 0.47260 -0.03900
C 	C 	0.72550 0.57950 0.45930 0.01700
C 	C 	0.70170 0.17520 0.07610 0.09900
H 	H 	0.68970 0.19650 0.10210 -0.02900
C 	C 	0.80120 0.92330 0.01940 0.05000
H 	H 	0.83910 0.90560 0.00420 -0.02400
C 	C 	0.30530 0.01190 0.23000 -0.17100
H 	H 	0.34440 0.03230 0.21840 0.08400
C 	C 	0.10340 0.30410 0.27720 0.06600
H 	H 	0.10070 0.28730 0.24840 -0.02300
C 	C 	0.69660 0.92650 0.48000 0.05000
H 	H 	0.65570 0.91080 0.49320 -0.01600
C 	C 	0.79140 0.48660 0.47980 -0.20700
H 	H 	0.82460 0.50990 0.49530 0.09300
C 	C 	0.80020 0.91320 0.43680 0.04400
H 	H 	0.83230 0.88860 0.42150 -0.02600
C 	C 	0.64550 0.32960 0.11560 0.07200
H 	H 	0.69000 0.33990 0.12680 -0.02900
C 	C 	0.58390 0.83680 0.35750 -0.15300
H 	H 	0.58820 0.85190 0.32830 0.07600
C 	C 	0.79470 0.11200 0.42310 -0.16200
H 	H 	0.80730 0.09180 0.39670 0.07800
C 	C 	0.85620 0.33050 0.38340 0.08600
H 	H 	0.81290 0.34090 0.37050 -0.03000
C 	C 	0.91680 0.33590 0.35780 -0.15200
H 	H 	0.91320 0.34940 0.32810 0.07500
C 	C 	0.04720 0.32530 0.34770 0.05200
C 	C 	0.25150 0.10880 0.24820 0.03200
C 	C 	0.73660 0.61230 0.49720 -0.10400
H 	H 	0.74670 0.59170 0.52390 0.05500
C 	C 	0.38940 0.35080 0.13790 -0.15300
H 	H 	0.38450 0.36470 0.10840 0.07400
C 	C 	0.70630 0.48880 0.02080 -0.14800
H 	H 	0.67280 0.51280 0.00620 0.07400
C 	C 	0.57920 0.79750 0.44430 0.08600
H 	H 	0.57790 0.78660 0.47460 -0.03500
C 	C 	0.79780 0.42580 0.47890 0.13500
H 	H 	0.83590 0.40930 0.49470 -0.04900
C 	C 	0.51590 0.30180 0.08120 -0.12900
H 	H 	0.47300 0.28970 0.06860 0.06200
C 	C 	0.24860 0.04170 0.24930 0.08100
C 	C 	0.80930 0.97620 0.43640 -0.11600
H 	H 	0.84630 0.99230 0.41940 0.06000
C 	C 	0.69060 0.47650 0.43540 -0.18600
H 	H 	0.65340 0.49200 0.41830 0.08500
C 	C 	0.70000 0.67570 0.42260 0.06300
H 	H 	0.68430 0.69580 0.39680 -0.01400
C 	C 	0.80900 0.47680 0.06320 -0.14100
H 	H 	0.84840 0.49310 0.07770 0.07000
C 	C 	0.45350 0.82610 0.34500 0.05200
C 	C 	0.24650 0.14020 0.29120 -0.12500
H 	H 	0.24150 0.11980 0.31850 0.06400
C 	C 	0.69860 0.91250 0.06300 0.07400
H 	H 	0.66700 0.88670 0.07750 -0.03900
C 	C 	0.57790 0.29900 0.05470 0.06900
H 	H 	0.57500 0.29010 0.02400 -0.02900
C 	C 	0.79970 0.41310 0.06420 0.06100
H 	H 	0.83070 0.38870 0.08050 -0.03300
C 	C 	0.70460 0.61380 0.42170 -0.12000
H 	H 	0.69330 0.59360 0.39500 0.06300
C 	C 	0.91820 0.83810 0.14270 -0.14200
H 	H 	0.91590 0.85530 0.17140 0.07200
C 	C 	0.76080 0.11370 0.49850 -0.16300
H 	H 	0.74970 0.09380 0.52540 0.07600
C 	C 	0.39840 0.80490 0.27630 0.07500
H 	H 	0.40110 0.79160 0.24650 -0.02600
C 	C 	0.68850 0.97430 0.06510 -0.13200
H 	H 	0.65080 0.98990 0.08170 0.06600
C 	C 	0.10600 0.80450 0.22360 0.07600
H 	H 	0.10470 0.79000 0.25300 -0.02900
C 	C 	0.25000 0.54250 0.25170 0.06900
C 	C 	0.45230 0.32720 0.15420 0.06300
C 	C 	0.51700 0.32160 0.12490 0.04000
C 	C 	0.58640 0.33640 0.14400 -0.12900
H 	H 	0.59120 0.34980 0.17370 0.06700
