data_crystal

_cell_length_a 16.53800
_cell_length_b 9.90400
_cell_length_c 21.90200
_cell_angle_alpha 90.00000
_cell_angle_beta  109.80400
_cell_angle_gamma 90.00000

_symmetry_space_group_name_	'P 1'
_symmetry_space_group_name_H-M	'P 1'

loop_
_symmetry_equiv_pos_as_xyz
  x,y,z

loop_
_atom_site_label
_atom_site_type_symbol
_atom_site_fract_x
_atom_site_fract_y
_atom_site_fract_z
_atom_site_charge
N 	N 	0.36860 0.03860 0.08490 -0.20200
N 	N 	0.40390 0.16970 0.10180 -0.08700
N 	N 	0.40950 0.19580 0.16690 -0.10800
C 	C 	0.37760 0.08100 0.19020 0.12000
N 	N 	0.35240 0.98370 0.13950 -0.22500
C 	C 	0.24350 0.27400 0.42540 0.19500
C 	C 	0.31610 0.17900 0.45330 -0.42300
H 	H 	0.32170 0.16160 0.49820 0.14700
H 	H 	0.30150 0.09350 0.43020 0.14100
C 	C 	0.40080 0.22300 0.45140 0.21300
C 	C 	0.29350 0.00400 0.25790 0.17700
C 	C 	0.38830 0.00700 0.25930 -0.32100
H 	H 	0.41140 0.91610 0.26100 0.09900
H 	H 	0.42480 0.05840 0.29590 0.12600
C 	C 	0.02130 0.70850 0.34910 0.19500
C 	C 	0.03380 0.70300 0.42070 -0.40100
H 	H 	0.03850 0.79420 0.43770 0.13900
H 	H 	0.08710 0.65630 0.44330 0.13100
C 	C 	0.96010 0.63120 0.43350 0.19400
C 	C 	0.88480 0.05910 0.42650 0.18300
C 	C 	0.83000 0.99900 0.46070 -0.39500
H 	H 	0.86270 0.93130 0.49110 0.13300
H 	H 	0.78120 0.95440 0.42940 0.13000
C 	C 	0.79750 0.10500 0.49730 0.17300
Cd	Cd	0.10173 0.02975 0.35320 1.17500
Cd	Cd	0.36425 0.53919 0.48661 1.16800
Cd	Cd	0.97097 0.38936 0.33565 1.17100
Cd	Cd	0.75881 0.32973 0.37995 1.16100
N 	N 	0.16060 0.23750 0.39460 -0.23700
N 	N 	0.11970 0.35330 0.38010 -0.17200
N 	N 	0.17020 0.45510 0.40030 -0.08800
N 	N 	0.24960 0.40890 0.43000 -0.23900
N 	N 	0.43730 0.34220 0.47170 -0.24200
N 	N 	0.51730 0.33120 0.46550 -0.19900
N 	N 	0.52500 0.20500 0.44340 -0.07800
N 	N 	0.45320 0.14600 0.43450 -0.12100
N 	N 	0.18870 0.99650 0.28980 -0.17600
N 	N 	0.17360 0.92110 0.23930 -0.17200
N 	N 	0.23880 0.92400 0.21840 -0.24300
N 	N 	0.26770 0.04900 0.30520 -0.13000
N 	N 	0.98490 0.08060 0.38730 -0.17600
N 	N 	0.93780 0.18690 0.37120 -0.19400
N 	N 	0.87390 0.17800 0.39540 -0.24400
N 	N 	0.95540 0.99790 0.42220 -0.12400
N 	N 	0.80520 0.09030 0.55930 -0.23100
N 	N 	0.76630 0.20510 0.57310 -0.09200
N 	N 	0.73510 0.27430 0.52050 -0.17100
N 	N 	0.75280 0.21460 0.47080 -0.24700
N 	N 	0.98750 0.65620 0.24970 -0.16300
N 	N 	0.99290 0.60900 0.30780 -0.23700
N 	N 	0.01300 0.78120 0.25590 -0.18300
N 	N 	0.03490 0.81850 0.31820 -0.22900
N 	N 	0.91830 0.68720 0.46890 -0.12800
N 	N 	0.85480 0.59430 0.46530 -0.07700
N 	N 	0.86420 0.48920 0.43120 -0.17600
N 	N 	0.93000 0.50820 0.41070 -0.23900
N 	N 	0.63140 0.53860 0.41510 -0.20200
N 	N 	0.59610 0.66970 0.39820 -0.08700
N 	N 	0.59050 0.69580 0.33310 -0.10900
C 	C 	0.62240 0.58100 0.30980 0.12000
N 	N 	0.64760 0.48370 0.36050 -0.22600
C 	C 	0.75650 0.77400 0.07460 0.19500
C 	C 	0.68390 0.67900 0.04670 -0.42300
H 	H 	0.67830 0.66160 0.00180 0.14700
H 	H 	0.69850 0.59350 0.06980 0.14100
C 	C 	0.59920 0.72300 0.04860 0.21300
C 	C 	0.70650 0.50400 0.24210 0.17600
C 	C 	0.61170 0.50700 0.24070 -0.31900
H 	H 	0.58860 0.41610 0.23900 0.09800
H 	H 	0.57520 0.55840 0.20410 0.12600
C 	C 	0.97870 0.20850 0.15090 0.19300
C 	C 	0.96620 0.20300 0.07930 -0.40200
H 	H 	0.96150 0.29420 0.06230 0.13900
H 	H 	0.91290 0.15630 0.05670 0.13000
C 	C 	0.03990 0.13120 0.06650 0.19500
C 	C 	0.11520 0.55910 0.07350 0.18900
C 	C 	0.17000 0.49900 0.03930 -0.40400
H 	H 	0.13730 0.43130 0.00890 0.13500
H 	H 	0.21880 0.45440 0.07060 0.13200
C 	C 	0.20250 0.60500 0.00270 0.17800
Cd	Cd	0.89827 0.52975 0.14680 1.17400
Cd	Cd	0.63575 0.03919 0.01339 1.16700
Cd	Cd	0.02903 0.88936 0.16435 1.17100
Cd	Cd	0.24119 0.82973 0.12005 1.16100
N 	N 	0.83940 0.73750 0.10540 -0.23700
N 	N 	0.88030 0.85330 0.11990 -0.17200
N 	N 	0.82980 0.95510 0.09970 -0.08600
N 	N 	0.75040 0.90890 0.07000 -0.23800
N 	N 	0.56270 0.84220 0.02830 -0.24200
N 	N 	0.48270 0.83120 0.03450 -0.19900
N 	N 	0.47500 0.70500 0.05660 -0.07800
N 	N 	0.54680 0.64600 0.06550 -0.12100
N 	N 	0.81130 0.49650 0.21020 -0.17600
N 	N 	0.82640 0.42110 0.26070 -0.17200
N 	N 	0.76120 0.42400 0.28160 -0.24300
N 	N 	0.73230 0.54900 0.19480 -0.13000
N 	N 	0.01510 0.58060 0.11270 -0.17400
N 	N 	0.06220 0.68690 0.12880 -0.19400
N 	N 	0.12610 0.67800 0.10460 -0.24500
N 	N 	0.04460 0.49790 0.07780 -0.12800
N 	N 	0.19480 0.59030 0.94070 -0.23100
N 	N 	0.23370 0.70510 0.92690 -0.09300
N 	N 	0.26490 0.77430 0.97950 -0.17200
N 	N 	0.24720 0.71460 0.02920 -0.24600
N 	N 	0.01250 0.15620 0.25030 -0.16200
N 	N 	0.00710 0.10900 0.19220 -0.23600
N 	N 	0.98700 0.28120 0.24410 -0.18400
N 	N 	0.96510 0.31850 0.18180 -0.22800
N 	N 	0.08170 0.18720 0.03110 -0.12900
N 	N 	0.14520 0.09430 0.03470 -0.07700
N 	N 	0.13580 0.98920 0.06880 -0.17600
N 	N 	0.07000 0.00820 0.08930 -0.23800
N 	N 	0.63140 0.96140 0.91510 -0.20300
N 	N 	0.59610 0.83030 0.89820 -0.08800
N 	N 	0.59050 0.80420 0.83310 -0.10900
C 	C 	0.62240 0.91900 0.80980 0.11900
N 	N 	0.64760 0.01630 0.86050 -0.22500
C 	C 	0.75650 0.72600 0.57460 0.19500
C 	C 	0.68390 0.82100 0.54670 -0.42300
H 	H 	0.67830 0.83840 0.50180 0.14700
H 	H 	0.69850 0.90650 0.56980 0.14100
C 	C 	0.59920 0.77700 0.54860 0.21300
C 	C 	0.70650 0.99600 0.74210 0.17700
C 	C 	0.61170 0.99300 0.74070 -0.32100
H 	H 	0.58860 0.08390 0.73900 0.09900
H 	H 	0.57520 0.94160 0.70410 0.12600
C 	C 	0.97870 0.29150 0.65090 0.19500
C 	C 	0.96620 0.29700 0.57930 -0.40100
H 	H 	0.96150 0.20580 0.56230 0.13900
H 	H 	0.91290 0.34370 0.55670 0.13100
C 	C 	0.03990 0.36880 0.56650 0.19400
C 	C 	0.11520 0.94090 0.57350 0.18300
C 	C 	0.17000 0.00100 0.53930 -0.39500
H 	H 	0.13730 0.06870 0.50890 0.13300
H 	H 	0.21880 0.04560 0.57060 0.13000
C 	C 	0.20250 0.89500 0.50270 0.17300
Cd	Cd	0.89827 0.97025 0.64680 1.17500
Cd	Cd	0.63575 0.46081 0.51339 1.16800
Cd	Cd	0.02903 0.61064 0.66435 1.17100
Cd	Cd	0.24119 0.67027 0.62005 1.16100
N 	N 	0.83940 0.76250 0.60540 -0.23700
N 	N 	0.88030 0.64670 0.61990 -0.17200
N 	N 	0.82980 0.54490 0.59970 -0.08800
N 	N 	0.75040 0.59110 0.57000 -0.23900
N 	N 	0.56270 0.65780 0.52830 -0.24200
N 	N 	0.48270 0.66880 0.53450 -0.19900
N 	N 	0.47500 0.79500 0.55660 -0.07800
N 	N 	0.54680 0.85400 0.56550 -0.12100
N 	N 	0.81130 0.00350 0.71020 -0.17600
N 	N 	0.82640 0.07890 0.76070 -0.17200
N 	N 	0.76120 0.07600 0.78160 -0.24300
N 	N 	0.73230 0.95100 0.69480 -0.13000
N 	N 	0.01510 0.91940 0.61270 -0.17600
N 	N 	0.06220 0.81310 0.62880 -0.19400
N 	N 	0.12610 0.82200 0.60460 -0.24400
N 	N 	0.04460 0.00210 0.57780 -0.12400
N 	N 	0.19480 0.90970 0.44070 -0.23100
N 	N 	0.23370 0.79490 0.42690 -0.09200
N 	N 	0.26490 0.72570 0.47950 -0.17100
N 	N 	0.24720 0.78540 0.52920 -0.24700
N 	N 	0.01250 0.34380 0.75030 -0.16300
N 	N 	0.00710 0.39100 0.69220 -0.23700
N 	N 	0.98700 0.21880 0.74410 -0.18300
N 	N 	0.96510 0.18150 0.68180 -0.22900
N 	N 	0.08170 0.31280 0.53110 -0.12800
N 	N 	0.14520 0.40570 0.53470 -0.07700
N 	N 	0.13580 0.51080 0.56880 -0.17600
N 	N 	0.07000 0.49180 0.58930 -0.23900
N 	N 	0.36860 0.46140 0.58490 -0.20200
N 	N 	0.40390 0.33030 0.60180 -0.08700
N 	N 	0.40950 0.30420 0.66690 -0.10900
C 	C 	0.37760 0.41900 0.69020 0.12000
N 	N 	0.35240 0.51630 0.63950 -0.22600
C 	C 	0.24350 0.22600 0.92540 0.19500
C 	C 	0.31610 0.32100 0.95330 -0.42300
H 	H 	0.32170 0.33840 0.99820 0.14700
H 	H 	0.30150 0.40650 0.93020 0.14100
C 	C 	0.40080 0.27700 0.95140 0.21300
C 	C 	0.29350 0.49600 0.75790 0.17600
C 	C 	0.38830 0.49300 0.75930 -0.31900
H 	H 	0.41140 0.58390 0.76100 0.09800
H 	H 	0.42480 0.44160 0.79590 0.12600
C 	C 	0.02130 0.79150 0.84910 0.19300
C 	C 	0.03380 0.79700 0.92070 -0.40200
H 	H 	0.03850 0.70580 0.93770 0.13900
H 	H 	0.08710 0.84370 0.94330 0.13000
C 	C 	0.96010 0.86880 0.93350 0.19500
C 	C 	0.88480 0.44090 0.92650 0.18900
C 	C 	0.83000 0.50100 0.96070 -0.40400
H 	H 	0.86270 0.56870 0.99110 0.13500
H 	H 	0.78120 0.54560 0.92940 0.13200
C 	C 	0.79750 0.39500 0.99730 0.17800
Cd	Cd	0.10173 0.47025 0.85320 1.17400
Cd	Cd	0.36425 0.96081 0.98661 1.16700
Cd	Cd	0.97097 0.11064 0.83565 1.17100
Cd	Cd	0.75881 0.17027 0.87995 1.16100
N 	N 	0.16060 0.26250 0.89460 -0.23700
N 	N 	0.11970 0.14670 0.88010 -0.17200
N 	N 	0.17020 0.04490 0.90030 -0.08600
N 	N 	0.24960 0.09110 0.93000 -0.23800
N 	N 	0.43730 0.15780 0.97170 -0.24200
N 	N 	0.51730 0.16880 0.96550 -0.19900
N 	N 	0.52500 0.29500 0.94340 -0.07800
N 	N 	0.45320 0.35400 0.93450 -0.12100
N 	N 	0.18870 0.50350 0.78980 -0.17600
N 	N 	0.17360 0.57890 0.73930 -0.17200
N 	N 	0.23880 0.57600 0.71840 -0.24300
N 	N 	0.26770 0.45100 0.80520 -0.13000
N 	N 	0.98490 0.41940 0.88730 -0.17400
N 	N 	0.93780 0.31310 0.87120 -0.19400
N 	N 	0.87390 0.32200 0.89540 -0.24500
N 	N 	0.95540 0.50210 0.92220 -0.12800
N 	N 	0.80520 0.40970 0.05930 -0.23100
N 	N 	0.76630 0.29490 0.07310 -0.09300
N 	N 	0.73510 0.22570 0.02050 -0.17200
N 	N 	0.75280 0.28540 0.97080 -0.24600
N 	N 	0.98750 0.84380 0.74970 -0.16200
N 	N 	0.99290 0.89100 0.80780 -0.23600
N 	N 	0.01300 0.71880 0.75590 -0.18400
N 	N 	0.03490 0.68150 0.81820 -0.22800
N 	N 	0.91830 0.81280 0.96890 -0.12900
N 	N 	0.85480 0.90570 0.96530 -0.07700
N 	N 	0.86420 0.01080 0.93120 -0.17600
N 	N 	0.93000 0.99180 0.91070 -0.23800
