data_crystal

_cell_length_a 9.99140
_cell_length_b 11.55360
_cell_length_c 18.10340
_cell_angle_alpha 101.14800
_cell_angle_beta  103.93700
_cell_angle_gamma 91.63100

_symmetry_space_group_name_	'P 1'
_symmetry_space_group_name_H-M	'P 1'

loop_
_symmetry_equiv_pos_as_xyz
  x,y,z

loop_
_atom_site_label
_atom_site_type_symbol
_atom_site_fract_x
_atom_site_fract_y
_atom_site_fract_z
_atom_site_charge
N 	N 	0.39140 0.03510 0.23900 -0.11100
C 	C 	0.31480 0.06190 0.29120 -0.05000
H 	H 	0.22520 0.08160 0.27210 0.00400
C 	C 	0.35490 0.06330 0.36930 -0.04900
H 	H 	0.29380 0.08250 0.40040 0.02200
C 	C 	0.48580 0.03590 0.40100 0.07700
C 	C 	0.57010 0.00680 0.35110 -0.06100
H 	H 	0.65950 0.98630 0.36960 0.03800
C 	C 	0.52000 0.00870 0.27400 -0.01700
H 	H 	0.58030 0.99000 0.24230 -0.01500
C 	C 	0.53540 0.03370 0.48510 -0.05000
H 	H 	0.61500 0.07900 0.51570 0.03600
N 	N 	0.40360 0.00650 0.23600 -0.11600
C 	C 	0.31300 0.97000 0.27020 0.09300
H 	H 	0.22060 0.95320 0.24330 -0.04100
C 	C 	0.35650 0.95690 0.34630 -0.09500
H 	H 	0.29300 0.93160 0.37100 0.05000
C 	C 	0.49490 0.98160 0.38600 -0.02500
C 	C 	0.58580 0.02020 0.34660 -0.03400
H 	H 	0.67910 0.03760 0.37150 -0.00200
C 	C 	0.53700 0.03270 0.27050 0.05800
H 	H 	0.59670 0.05900 0.24390 -0.03300
C 	C 	0.54550 0.96980 0.46860 -0.03800
H 	H 	0.62400 0.93080 0.48470 0.02400
Ni	Ni	0.32496 0.04946 0.12464 0.99700
Ni	Ni	0.93992 0.30789 0.28306 1.02800
O 	O 	0.08170 0.45041 0.31648 -0.42700
O 	O 	0.11850 0.30105 0.23222 -0.41900
O 	O 	0.38880 0.22442 0.18097 -0.41500
O 	O 	0.27310 0.32470 0.09543 -0.29900
N 	N 	0.24900 0.87320 0.08122 -0.29200
N 	N 	0.81610 0.37410 0.35287 -0.27300
N 	N 	0.81960 0.34970 0.18437 -0.26400
C 	C 	0.28610 0.46890 0.27322 -0.18800
C 	C 	0.36910 0.42930 0.22294 0.10400
C 	C 	0.48980 0.49980 0.22880 -0.33200
H 	H 	0.54640 0.47410 0.19600 0.15000
C 	C 	0.44430 0.64400 0.33140 -0.38200
H 	H 	0.46860 0.71480 0.36780 0.15800
C 	C 	0.32540 0.57640 0.32650 0.19600
H 	H 	0.26960 0.60310 0.35970 -0.02700
C 	C 	0.15620 0.40270 0.27344 0.34500
C 	C 	0.33880 0.31670 0.16156 0.27700
C 	C 	0.65440 0.68270 0.28550 -0.93600
H 	H 	0.67040 0.74660 0.33010 0.29300
H 	H 	0.64090 0.71420 0.23920 0.29300
H 	H 	0.73290 0.63610 0.28980 0.29800
C 	C 	0.30720 0.78580 0.11350 0.11300
H 	H 	0.39280 0.80300 0.14930 -0.04600
C 	C 	0.24730 0.67250 0.09650 -0.21000
H 	H 	0.29120 0.61570 0.12160 0.11000
C 	C 	0.12140 0.64230 0.04210 0.14900
C 	C 	0.06340 0.73110 0.00580 -0.21000
H 	H 	0.98080 0.71480 0.96730 0.10500
C 	C 	0.12910 0.84350 0.02717 0.10500
H 	H 	0.08780 0.90190 0.00270 -0.06900
C 	C 	0.05960 0.52000 0.02510 -0.10000
H 	H 	0.10830 0.46680 0.05170 0.08000
C 	C 	0.85970 0.46770 0.41110 0.08000
H 	H 	0.94820 0.50290 0.41890 -0.01600
C 	C 	0.78050 0.51470 0.46030 -0.17400
H 	H 	0.81540 0.58040 0.49990 0.07200
C 	C 	0.64870 0.46410 0.45080 0.11800
C 	C 	0.60390 0.36660 0.39110 -0.17400
H 	H 	0.51640 0.32910 0.38290 0.09500
C 	C 	0.68840 0.32460 0.34340 0.09000
H 	H 	0.65560 0.25940 0.30320 -0.03100
C 	C 	0.56330 0.51660 0.50260 -0.08700
H 	H 	0.60470 0.57970 0.54280 0.05500
C 	C 	0.82940 0.45600 0.16650 0.09700
H 	H 	0.90330 0.50950 0.19560 -0.01900
C 	C 	0.73530 0.49020 0.10700 -0.18800
H 	H 	0.74570 0.56550 0.09700 0.08700
C 	C 	0.62500 0.41210 0.06233 0.12100
C 	C 	0.61940 0.29980 0.07760 -0.17900
H 	H 	0.54980 0.24320 0.04710 0.05700
C 	C 	0.71660 0.27200 0.13790 0.09100
H 	H 	0.71110 0.19570 0.14710 -0.06500
C 	C 	0.51150 0.44550 0.00390 -0.08700
H 	H 	0.45120 0.38480 0.96980 0.05200
C 	C 	0.52710 0.60610 0.28180 0.42700
N 	N 	0.60860 0.96490 0.76100 -0.11000
C 	C 	0.68520 0.93810 0.70880 -0.04900
H 	H 	0.77480 0.91840 0.72790 0.00400
C 	C 	0.64510 0.93670 0.63070 -0.04900
H 	H 	0.70620 0.91750 0.59960 0.02200
C 	C 	0.51420 0.96410 0.59900 0.07700
C 	C 	0.42990 0.99320 0.64890 -0.06100
H 	H 	0.34050 0.01370 0.63040 0.03800
C 	C 	0.48000 0.99130 0.72600 -0.01700
H 	H 	0.41970 0.01000 0.75770 -0.01500
C 	C 	0.46460 0.96630 0.51490 -0.05000
H 	H 	0.38500 0.92100 0.48430 0.03600
N 	N 	0.59640 0.99350 0.76400 -0.11600
C 	C 	0.68700 0.03000 0.72980 0.09300
H 	H 	0.77940 0.04680 0.75670 -0.04100
C 	C 	0.64350 0.04310 0.65370 -0.09500
H 	H 	0.70700 0.06840 0.62900 0.05000
C 	C 	0.50510 0.01840 0.61400 -0.02500
C 	C 	0.41420 0.97980 0.65340 -0.03400
H 	H 	0.32090 0.96240 0.62850 -0.00200
C 	C 	0.46300 0.96730 0.72950 0.05800
H 	H 	0.40330 0.94100 0.75610 -0.03300
C 	C 	0.45450 0.03020 0.53140 -0.03800
H 	H 	0.37600 0.06920 0.51530 0.02400
Ni	Ni	0.67504 0.95054 0.87536 0.99700
Ni	Ni	0.06008 0.69211 0.71694 1.02800
O 	O 	0.91830 0.54959 0.68352 -0.42700
O 	O 	0.88150 0.69895 0.76778 -0.41900
O 	O 	0.61120 0.77558 0.81903 -0.41500
O 	O 	0.72690 0.67530 0.90457 -0.29900
N 	N 	0.75100 0.12680 0.91878 -0.29200
N 	N 	0.18390 0.62590 0.64713 -0.27300
N 	N 	0.18040 0.65030 0.81563 -0.26400
C 	C 	0.71390 0.53110 0.72678 -0.18800
C 	C 	0.63090 0.57070 0.77706 0.10400
C 	C 	0.51020 0.50020 0.77120 -0.33200
H 	H 	0.45360 0.52590 0.80400 0.15000
C 	C 	0.55570 0.35600 0.66860 -0.38200
H 	H 	0.53140 0.28520 0.63220 0.15800
C 	C 	0.67460 0.42360 0.67350 0.19600
H 	H 	0.73040 0.39690 0.64030 -0.02700
C 	C 	0.84380 0.59730 0.72656 0.34500
C 	C 	0.66120 0.68330 0.83844 0.27700
C 	C 	0.34560 0.31730 0.71450 -0.93600
H 	H 	0.32960 0.25340 0.66990 0.29300
H 	H 	0.35910 0.28580 0.76080 0.29300
H 	H 	0.26710 0.36390 0.71020 0.29800
C 	C 	0.69280 0.21420 0.88650 0.11300
H 	H 	0.60720 0.19700 0.85070 -0.04600
C 	C 	0.75270 0.32750 0.90350 -0.21000
H 	H 	0.70880 0.38430 0.87840 0.11000
C 	C 	0.87860 0.35770 0.95790 0.14900
C 	C 	0.93660 0.26890 0.99420 -0.21000
H 	H 	0.01920 0.28520 0.03270 0.10500
C 	C 	0.87090 0.15650 0.97283 0.10500
H 	H 	0.91220 0.09810 0.99730 -0.06900
C 	C 	0.94040 0.48000 0.97490 -0.10000
H 	H 	0.89170 0.53320 0.94830 0.08000
C 	C 	0.14030 0.53230 0.58890 0.08000
H 	H 	0.05180 0.49710 0.58110 -0.01600
C 	C 	0.21950 0.48530 0.53970 -0.17400
H 	H 	0.18460 0.41960 0.50010 0.07200
C 	C 	0.35130 0.53590 0.54920 0.11800
C 	C 	0.39610 0.63340 0.60890 -0.17400
H 	H 	0.48360 0.67090 0.61710 0.09500
C 	C 	0.31160 0.67540 0.65660 0.09000
H 	H 	0.34440 0.74060 0.69680 -0.03100
C 	C 	0.43670 0.48340 0.49740 -0.08700
H 	H 	0.39530 0.42030 0.45720 0.05500
C 	C 	0.17060 0.54400 0.83350 0.09700
H 	H 	0.09670 0.49050 0.80440 -0.01900
C 	C 	0.26470 0.50980 0.89300 -0.18800
H 	H 	0.25430 0.43450 0.90300 0.08700
C 	C 	0.37500 0.58790 0.93767 0.12100
C 	C 	0.38060 0.70020 0.92240 -0.17900
H 	H 	0.45020 0.75680 0.95290 0.05700
C 	C 	0.28340 0.72800 0.86210 0.09100
H 	H 	0.28890 0.80430 0.85290 -0.06500
C 	C 	0.48850 0.55450 0.99610 -0.08700
H 	H 	0.54880 0.61520 0.03020 0.05200
C 	C 	0.47290 0.39390 0.71820 0.42700
