data_crystal

_cell_length_a 17.71400
_cell_length_b 12.56700
_cell_length_c 25.64300
_cell_angle_alpha 90.00000
_cell_angle_beta  93.44000
_cell_angle_gamma 90.00000

_symmetry_space_group_name_	'P 1'
_symmetry_space_group_name_H-M	'P 1'

loop_
_symmetry_equiv_pos_as_xyz
  x,y,z

loop_
_atom_site_label
_atom_site_type_symbol
_atom_site_fract_x
_atom_site_fract_y
_atom_site_fract_z
_atom_site_charge
Cu	Cu	0.82189 0.22490 0.50327 0.89500
O 	O 	0.83540 0.34510 0.55140 -0.37200
O 	O 	0.70590 0.39040 0.54620 -0.38600
O 	O 	0.82860 0.67730 0.94280 -0.38400
O 	O 	0.70040 0.63280 0.93830 -0.38800
C 	C 	0.93420 0.53770 0.71800 0.00500
C 	C 	0.93280 0.53880 0.77440 -0.00700
C 	C 	0.00120 0.53800 0.69490 -0.07400
H 	H 	0.00230 0.53760 0.65860 0.06100
C 	C 	0.86340 0.55040 0.68210 0.02600
C 	C 	0.85200 0.47420 0.63890 -0.06500
H 	H 	0.88820 0.42260 0.63320 0.07000
C 	C 	0.78690 0.48060 0.60730 -0.02200
C 	C 	0.73630 0.56760 0.61440 -0.04500
H 	H 	0.69450 0.57450 0.59100 0.06000
C 	C 	0.74570 0.63930 0.65260 -0.01900
H 	H 	0.71100 0.69100 0.64500 0.04100
C 	C 	0.80840 0.63070 0.68880 -0.07200
H 	H 	0.81370 0.67730 0.71690 0.06100
C 	C 	0.85450 0.52820 0.80110 0.06200
C 	C 	0.84730 0.57520 0.84450 -0.10000
H 	H 	0.88720 0.61630 0.85870 0.08000
C 	C 	0.78000 0.56700 0.87230 0.00300
C 	C 	0.72300 0.49840 0.85230 -0.07700
H 	H 	0.67770 0.49230 0.86850 0.07300
C 	C 	0.73520 0.44220 0.80960 0.01900
H 	H 	0.69810 0.39470 0.79720 0.02500
C 	C 	0.80170 0.45140 0.78230 -0.10800
H 	H 	0.81020 0.40910 0.75350 0.07500
C 	C 	0.77290 0.39760 0.56480 0.27700
C 	C 	0.76850 0.63130 0.92450 0.28800
Cu	Cu	0.32189 0.72490 0.50327 0.89400
O 	O 	0.33540 0.84510 0.55140 -0.37300
O 	O 	0.20590 0.89040 0.54620 -0.38600
O 	O 	0.32860 0.17730 0.94280 -0.38400
O 	O 	0.20040 0.13280 0.93830 -0.38900
C 	C 	0.43420 0.03770 0.71800 0.00500
C 	C 	0.43280 0.03880 0.77440 -0.00700
C 	C 	0.50120 0.03800 0.69490 -0.07300
H 	H 	0.50230 0.03760 0.65860 0.06100
C 	C 	0.36340 0.05040 0.68210 0.02600
C 	C 	0.35200 0.97420 0.63890 -0.06500
H 	H 	0.38820 0.92260 0.63320 0.07000
C 	C 	0.28690 0.98060 0.60730 -0.02200
C 	C 	0.23630 0.06760 0.61440 -0.04500
H 	H 	0.19450 0.07450 0.59100 0.06000
C 	C 	0.24570 0.13930 0.65260 -0.01900
H 	H 	0.21100 0.19100 0.64500 0.04100
C 	C 	0.30840 0.13070 0.68880 -0.07200
H 	H 	0.31370 0.17730 0.71690 0.06100
C 	C 	0.35450 0.02820 0.80110 0.06100
C 	C 	0.34730 0.07520 0.84450 -0.10000
H 	H 	0.38720 0.11630 0.85870 0.08000
C 	C 	0.28000 0.06700 0.87230 0.00200
C 	C 	0.22300 0.99840 0.85230 -0.07600
H 	H 	0.17770 0.99230 0.86850 0.07300
C 	C 	0.23520 0.94220 0.80960 0.01800
H 	H 	0.19810 0.89470 0.79720 0.02600
C 	C 	0.30170 0.95140 0.78230 -0.10700
H 	H 	0.31020 0.90910 0.75350 0.07400
C 	C 	0.27290 0.89760 0.56480 0.27700
C 	C 	0.26850 0.13130 0.92450 0.28800
Cu	Cu	0.17811 0.22490 0.99673 0.89400
O 	O 	0.16460 0.34510 0.94860 -0.37300
O 	O 	0.29410 0.39040 0.95380 -0.38600
O 	O 	0.17140 0.67730 0.55720 -0.38400
O 	O 	0.29960 0.63280 0.56170 -0.38900
C 	C 	0.06580 0.53770 0.78200 0.00400
C 	C 	0.06720 0.53880 0.72560 -0.00700
C 	C 	0.99880 0.53800 0.80510 -0.07300
H 	H 	0.99770 0.53760 0.84140 0.06100
C 	C 	0.13660 0.55040 0.81790 0.02600
C 	C 	0.14800 0.47420 0.86110 -0.06600
H 	H 	0.11180 0.42260 0.86680 0.07000
C 	C 	0.21310 0.48060 0.89270 -0.02200
C 	C 	0.26370 0.56760 0.88560 -0.04500
H 	H 	0.30550 0.57450 0.90900 0.06000
C 	C 	0.25430 0.63930 0.84740 -0.01900
H 	H 	0.28900 0.69100 0.85500 0.04100
C 	C 	0.19160 0.63070 0.81120 -0.07200
H 	H 	0.18630 0.67730 0.78310 0.06100
C 	C 	0.14550 0.52820 0.69890 0.06200
C 	C 	0.15270 0.57520 0.65550 -0.10000
H 	H 	0.11280 0.61630 0.64130 0.08000
C 	C 	0.22000 0.56700 0.62770 0.00300
C 	C 	0.27700 0.49840 0.64770 -0.07700
H 	H 	0.32230 0.49230 0.63150 0.07300
C 	C 	0.26480 0.44220 0.69040 0.01800
H 	H 	0.30190 0.39470 0.70280 0.02500
C 	C 	0.19830 0.45140 0.71770 -0.10800
H 	H 	0.18980 0.40910 0.74650 0.07500
C 	C 	0.22710 0.39760 0.93520 0.27700
C 	C 	0.23150 0.63130 0.57550 0.28800
Cu	Cu	0.67811 0.72490 0.99673 0.89400
O 	O 	0.66460 0.84510 0.94860 -0.37200
O 	O 	0.79410 0.89040 0.95380 -0.38500
O 	O 	0.67140 0.17730 0.55720 -0.38400
O 	O 	0.79960 0.13280 0.56170 -0.38900
C 	C 	0.56580 0.03770 0.78200 0.00500
C 	C 	0.56720 0.03880 0.72560 -0.00700
C 	C 	0.49880 0.03800 0.80510 -0.07300
H 	H 	0.49770 0.03760 0.84140 0.06100
C 	C 	0.63660 0.05040 0.81790 0.02600
C 	C 	0.64800 0.97420 0.86110 -0.06500
H 	H 	0.61180 0.92260 0.86680 0.07000
C 	C 	0.71310 0.98060 0.89270 -0.02200
C 	C 	0.76370 0.06760 0.88560 -0.04500
H 	H 	0.80550 0.07450 0.90900 0.06000
C 	C 	0.75430 0.13930 0.84740 -0.01900
H 	H 	0.78900 0.19100 0.85500 0.04100
C 	C 	0.69160 0.13070 0.81120 -0.07200
H 	H 	0.68630 0.17730 0.78310 0.06100
C 	C 	0.64550 0.02820 0.69890 0.06200
C 	C 	0.65270 0.07520 0.65550 -0.10000
H 	H 	0.61280 0.11630 0.64130 0.08000
C 	C 	0.72000 0.06700 0.62770 0.00300
C 	C 	0.77700 0.99840 0.64770 -0.07700
H 	H 	0.82230 0.99230 0.63150 0.07300
C 	C 	0.76480 0.94220 0.69040 0.01800
H 	H 	0.80190 0.89470 0.70280 0.02600
C 	C 	0.69830 0.95140 0.71770 -0.10700
H 	H 	0.68980 0.90910 0.74650 0.07500
C 	C 	0.72710 0.89760 0.93520 0.27700
C 	C 	0.73150 0.13130 0.57550 0.28800
Cu	Cu	0.17811 0.77510 0.49673 0.89400
O 	O 	0.16460 0.65490 0.44860 -0.37300
O 	O 	0.29410 0.60960 0.45380 -0.38600
O 	O 	0.17140 0.32270 0.05720 -0.38400
O 	O 	0.29960 0.36720 0.06170 -0.38800
C 	C 	0.06580 0.46230 0.28200 0.00500
C 	C 	0.06720 0.46120 0.22560 -0.00700
C 	C 	0.99880 0.46200 0.30510 -0.07400
H 	H 	0.99770 0.46240 0.34140 0.06100
C 	C 	0.13660 0.44960 0.31790 0.02600
C 	C 	0.14800 0.52580 0.36110 -0.06500
H 	H 	0.11180 0.57740 0.36680 0.07000
C 	C 	0.21310 0.51940 0.39270 -0.02200
C 	C 	0.26370 0.43240 0.38560 -0.04500
H 	H 	0.30550 0.42550 0.40900 0.06000
C 	C 	0.25430 0.36070 0.34740 -0.01900
H 	H 	0.28900 0.30900 0.35500 0.04100
C 	C 	0.19160 0.36930 0.31120 -0.07200
H 	H 	0.18630 0.32270 0.28310 0.06100
C 	C 	0.14550 0.47180 0.19890 0.06200
C 	C 	0.15270 0.42480 0.15550 -0.10000
H 	H 	0.11280 0.38370 0.14130 0.08000
C 	C 	0.22000 0.43300 0.12770 0.00300
C 	C 	0.27700 0.50160 0.14770 -0.07700
H 	H 	0.32230 0.50770 0.13150 0.07300
C 	C 	0.26480 0.55780 0.19040 0.01900
H 	H 	0.30190 0.60530 0.20280 0.02500
C 	C 	0.19830 0.54860 0.21770 -0.10800
H 	H 	0.18980 0.59090 0.24650 0.07500
C 	C 	0.22710 0.60240 0.43520 0.27700
C 	C 	0.23150 0.36870 0.07550 0.28800
Cu	Cu	0.67811 0.27510 0.49673 0.89400
O 	O 	0.66460 0.15490 0.44860 -0.37300
O 	O 	0.79410 0.10960 0.45380 -0.38600
O 	O 	0.67140 0.82270 0.05720 -0.38400
O 	O 	0.79960 0.86720 0.06170 -0.38900
C 	C 	0.56580 0.96230 0.28200 0.00500
C 	C 	0.56720 0.96120 0.22560 -0.00700
C 	C 	0.49880 0.96200 0.30510 -0.07300
H 	H 	0.49770 0.96240 0.34140 0.06100
C 	C 	0.63660 0.94960 0.31790 0.02600
C 	C 	0.64800 0.02580 0.36110 -0.06500
H 	H 	0.61180 0.07740 0.36680 0.07000
C 	C 	0.71310 0.01940 0.39270 -0.02200
C 	C 	0.76370 0.93240 0.38560 -0.04500
H 	H 	0.80550 0.92550 0.40900 0.06000
C 	C 	0.75430 0.86070 0.34740 -0.01900
H 	H 	0.78900 0.80900 0.35500 0.04100
C 	C 	0.69160 0.86930 0.31120 -0.07200
H 	H 	0.68630 0.82270 0.28310 0.06100
C 	C 	0.64550 0.97180 0.19890 0.06100
C 	C 	0.65270 0.92480 0.15550 -0.10000
H 	H 	0.61280 0.88370 0.14130 0.08000
C 	C 	0.72000 0.93300 0.12770 0.00200
C 	C 	0.77700 0.00160 0.14770 -0.07600
H 	H 	0.82230 0.00770 0.13150 0.07300
C 	C 	0.76480 0.05780 0.19040 0.01800
H 	H 	0.80190 0.10530 0.20280 0.02600
C 	C 	0.69830 0.04860 0.21770 -0.10700
H 	H 	0.68980 0.09090 0.24650 0.07400
C 	C 	0.72710 0.10240 0.43520 0.27700
C 	C 	0.73150 0.86870 0.07550 0.28800
Cu	Cu	0.82189 0.77510 0.00327 0.89400
O 	O 	0.83540 0.65490 0.05140 -0.37300
O 	O 	0.70590 0.60960 0.04620 -0.38600
O 	O 	0.82860 0.32270 0.44280 -0.38400
O 	O 	0.70040 0.36720 0.43830 -0.38900
C 	C 	0.93420 0.46230 0.21800 0.00400
C 	C 	0.93280 0.46120 0.27440 -0.00700
C 	C 	0.00120 0.46200 0.19490 -0.07300
H 	H 	0.00230 0.46240 0.15860 0.06100
C 	C 	0.86340 0.44960 0.18210 0.02600
C 	C 	0.85200 0.52580 0.13890 -0.06600
H 	H 	0.88820 0.57740 0.13320 0.07000
C 	C 	0.78690 0.51940 0.10730 -0.02200
C 	C 	0.73630 0.43240 0.11440 -0.04500
H 	H 	0.69450 0.42550 0.09100 0.06000
C 	C 	0.74570 0.36070 0.15260 -0.01900
H 	H 	0.71100 0.30900 0.14500 0.04100
C 	C 	0.80840 0.36930 0.18880 -0.07200
H 	H 	0.81370 0.32270 0.21690 0.06100
C 	C 	0.85450 0.47180 0.30110 0.06200
C 	C 	0.84730 0.42480 0.34450 -0.10000
H 	H 	0.88720 0.38370 0.35870 0.08000
C 	C 	0.78000 0.43300 0.37230 0.00300
C 	C 	0.72300 0.50160 0.35230 -0.07700
H 	H 	0.67770 0.50770 0.36850 0.07300
C 	C 	0.73520 0.55780 0.30960 0.01800
H 	H 	0.69810 0.60530 0.29720 0.02500
C 	C 	0.80170 0.54860 0.28230 -0.10800
H 	H 	0.81020 0.59090 0.25350 0.07500
C 	C 	0.77290 0.60240 0.06480 0.27700
C 	C 	0.76850 0.36870 0.42450 0.28800
Cu	Cu	0.32189 0.27510 0.00327 0.89400
O 	O 	0.33540 0.15490 0.05140 -0.37200
O 	O 	0.20590 0.10960 0.04620 -0.38500
O 	O 	0.32860 0.82270 0.44280 -0.38400
O 	O 	0.20040 0.86720 0.43830 -0.38900
C 	C 	0.43420 0.96230 0.21800 0.00500
C 	C 	0.43280 0.96120 0.27440 -0.00700
C 	C 	0.50120 0.96200 0.19490 -0.07300
H 	H 	0.50230 0.96240 0.15860 0.06100
C 	C 	0.36340 0.94960 0.18210 0.02600
C 	C 	0.35200 0.02580 0.13890 -0.06500
H 	H 	0.38820 0.07740 0.13320 0.07000
C 	C 	0.28690 0.01940 0.10730 -0.02200
C 	C 	0.23630 0.93240 0.11440 -0.04500
H 	H 	0.19450 0.92550 0.09100 0.06000
C 	C 	0.24570 0.86070 0.15260 -0.01900
H 	H 	0.21100 0.80900 0.14500 0.04100
C 	C 	0.30840 0.86930 0.18880 -0.07200
H 	H 	0.31370 0.82270 0.21690 0.06100
C 	C 	0.35450 0.97180 0.30110 0.06200
C 	C 	0.34730 0.92480 0.34450 -0.10000
H 	H 	0.38720 0.88370 0.35870 0.08000
C 	C 	0.28000 0.93300 0.37230 0.00300
C 	C 	0.22300 0.00160 0.35230 -0.07700
H 	H 	0.17770 0.00770 0.36850 0.07300
C 	C 	0.23520 0.05780 0.30960 0.01800
H 	H 	0.19810 0.10530 0.29720 0.02600
C 	C 	0.30170 0.04860 0.28230 -0.10700
H 	H 	0.31020 0.09090 0.25350 0.07500
C 	C 	0.27290 0.10240 0.06480 0.27700
C 	C 	0.26850 0.86870 0.42450 0.28800
