data_crystal

_cell_length_a 13.42700
_cell_length_b 18.68400
_cell_length_c 16.76400
_cell_angle_alpha 90.00000
_cell_angle_beta  112.11000
_cell_angle_gamma 90.00000

_symmetry_space_group_name_	'P 1'
_symmetry_space_group_name_H-M	'P 1'

loop_
_symmetry_equiv_pos_as_xyz
  x,y,z

loop_
_atom_site_label
_atom_site_type_symbol
_atom_site_fract_x
_atom_site_fract_y
_atom_site_fract_z
_atom_site_charge
O 	O 	0.40869 0.09306 0.49836 -0.43500
O 	O 	0.25954 0.05405 0.51380 -0.32100
O 	O 	0.14639 0.11150 0.33186 -0.45800
O 	O 	0.00832 0.16174 0.34738 -0.57600
N 	N 	0.58960 0.01192 0.63271 -0.27200
N 	N 	0.70610 0.98833 0.76300 -0.06800
N 	N 	0.96730 0.00101 0.83123 0.14700
N 	N 	0.90310 0.05206 0.92222 -0.46400
H 	H 	0.86230 0.05990 0.95040 0.27300
C 	C 	0.31870 0.10167 0.50271 0.33700
C 	C 	0.10720 0.15530 0.36896 0.33300
C 	C 	0.18170 0.20262 0.43846 -0.09600
C 	C 	0.28110 0.17879 0.49784 -0.03900
C 	C 	0.34780 0.22665 0.55712 -0.02400
H 	H 	0.41450 0.21090 0.59520 0.05300
C 	C 	0.66350 0.96890 0.68180 0.13800
H 	H 	0.68440 0.92780 0.66110 0.00600
C 	C 	0.60870 0.07510 0.67880 -0.14300
H 	H 	0.57670 0.11890 0.65750 0.07800
C 	C 	0.68140 0.06420 0.75840 0.08300
H 	H 	0.70980 0.09810 0.80170 0.02000
C 	C 	0.79350 0.95374 0.83230 -0.20300
H 	H 	0.81120 0.90880 0.81180 0.14800
H 	H 	0.77080 0.94330 0.87960 0.14100
C 	C 	0.89000 0.00024 0.86335 0.23000
C 	C 	0.03460 0.05774 0.87220 -1.31400
C 	C 	0.12500 0.08510 0.86280 1.01400
H 	H 	0.15220 0.06420 0.82480 -0.37100
C 	C 	0.17350 0.14350 0.91060 -1.18100
H 	H 	0.23470 0.16230 0.90500 0.42400
C 	C 	0.13380 0.17580 0.96740 1.12500
H 	H 	0.16870 0.21570 0.99860 -0.39000
C 	C 	0.04360 0.14960 0.97840 -1.59800
H 	H 	0.01730 0.17050 0.01690 0.39400
C 	C 	0.99440 0.09076 0.92910 1.55500
C 	C 	0.55110 0.04010 0.69440 0.14400
H 	H 	0.48990 0.06840 0.68130 -0.03300
C 	C 	0.61770 0.02250 0.77470 -0.18300
H 	H 	0.60720 0.03040 0.82570 0.08700
O 	O 	0.90869 0.59306 0.49836 -0.22700
O 	O 	0.75954 0.55405 0.51380 -0.27000
O 	O 	0.64639 0.61150 0.33186 -0.38800
O 	O 	0.50832 0.66174 0.34738 -0.36600
N 	N 	0.08960 0.51192 0.63271 0.00900
N 	N 	0.20610 0.48833 0.76300 0.03500
N 	N 	0.46730 0.50101 0.83123 -0.27900
N 	N 	0.40310 0.55206 0.92222 -0.23400
H 	H 	0.36230 0.55990 0.95040 0.19900
C 	C 	0.81870 0.60167 0.50271 0.32700
C 	C 	0.60720 0.65530 0.36896 0.31000
C 	C 	0.68170 0.70262 0.43846 -0.06200
C 	C 	0.78110 0.67879 0.49784 -0.02500
C 	C 	0.84780 0.72665 0.55712 -0.02800
H 	H 	0.91450 0.71090 0.59520 0.09500
C 	C 	0.16350 0.46890 0.68180 -0.11100
H 	H 	0.18440 0.42780 0.66110 0.05800
C 	C 	0.10870 0.57510 0.67880 -9.43600
H 	H 	0.07670 0.61890 0.65750 3.14900
C 	C 	0.18140 0.56420 0.75840 7.91800
H 	H 	0.20980 0.59810 0.80170 -2.73400
C 	C 	0.29350 0.45374 0.83230 -0.30800
H 	H 	0.31120 0.40880 0.81180 0.12800
H 	H 	0.27080 0.44330 0.87960 0.20000
C 	C 	0.39000 0.50024 0.86335 0.14800
C 	C 	0.53460 0.55774 0.87220 0.08100
C 	C 	0.62500 0.58510 0.86280 -0.17900
H 	H 	0.65220 0.56420 0.82480 0.09900
C 	C 	0.67350 0.64350 0.91060 0.05200
H 	H 	0.73470 0.66230 0.90500 -0.00800
C 	C 	0.63380 0.67580 0.96740 -0.09900
H 	H 	0.66870 0.71570 0.99860 0.08100
C 	C 	0.54360 0.64960 0.97840 0.00400
H 	H 	0.51730 0.67050 0.01690 0.03300
C 	C 	0.49440 0.59076 0.92910 0.05900
C 	C 	0.05110 0.54010 0.69440 8.42800
H 	H 	0.98990 0.56840 0.68130 -2.34000
C 	C 	0.11770 0.52250 0.77470 -7.94900
H 	H 	0.10720 0.53040 0.82570 2.78700
O 	O 	0.59131 0.09306 0.00164 -0.49900
O 	O 	0.74046 0.05405 0.98620 -0.32800
O 	O 	0.85361 0.11150 0.16814 -0.29700
O 	O 	0.99168 0.16174 0.15262 -0.10400
N 	N 	0.41040 0.01192 0.86729 -0.26900
N 	N 	0.29390 0.98833 0.73700 -0.08600
N 	N 	0.03270 0.00101 0.66877 -0.63800
N 	N 	0.09690 0.05206 0.57778 0.01100
H 	H 	0.13770 0.05990 0.54960 0.04700
C 	C 	0.68130 0.10167 0.99729 0.45900
C 	C 	0.89280 0.15530 0.13104 0.23900
C 	C 	0.81830 0.20262 0.06154 0.08400
C 	C 	0.71890 0.17879 0.00216 -0.21400
C 	C 	0.65220 0.22665 0.94288 0.14700
H 	H 	0.58550 0.21090 0.90480 -0.00300
C 	C 	0.33650 0.96890 0.81820 0.15600
H 	H 	0.31560 0.92780 0.83890 0.00200
C 	C 	0.39130 0.07510 0.82120 -0.00100
H 	H 	0.42330 0.11890 0.84250 0.01900
C 	C 	0.31860 0.06420 0.74160 -0.02500
H 	H 	0.29020 0.09810 0.69830 0.03700
C 	C 	0.20650 0.95374 0.66770 -0.07600
H 	H 	0.18880 0.90880 0.68820 0.02400
H 	H 	0.22920 0.94330 0.62040 0.06400
C 	C 	0.11000 0.00024 0.63665 0.02700
C 	C 	0.96540 0.05774 0.62780 1.42500
C 	C 	0.87500 0.08510 0.63720 -1.23500
H 	H 	0.84780 0.06420 0.67520 0.48400
C 	C 	0.82650 0.14350 0.58940 1.16700
H 	H 	0.76530 0.16230 0.59500 -0.36900
C 	C 	0.86620 0.17580 0.53260 -1.22100
H 	H 	0.83130 0.21570 0.50140 0.49000
C 	C 	0.95640 0.14960 0.52160 1.48200
H 	H 	0.98270 0.17050 0.48310 -0.28200
C 	C 	0.00560 0.09076 0.57090 -1.42700
C 	C 	0.44890 0.04010 0.80560 0.00100
H 	H 	0.51010 0.06840 0.81870 0.01400
C 	C 	0.38230 0.02250 0.72530 -0.06000
H 	H 	0.39280 0.03040 0.67430 0.04100
O 	O 	0.09131 0.59306 0.00164 -0.61900
O 	O 	0.24046 0.55405 0.98620 -0.33100
O 	O 	0.35361 0.61150 0.16814 -0.40200
O 	O 	0.49168 0.66174 0.15262 -0.34400
N 	N 	0.91040 0.51192 0.86729 -0.43100
N 	N 	0.79390 0.48833 0.73700 -0.21200
N 	N 	0.53270 0.50101 0.66877 -0.23800
N 	N 	0.59690 0.55206 0.57778 -0.24200
H 	H 	0.63770 0.55990 0.54960 0.14400
C 	C 	0.18130 0.60167 0.99729 0.44400
C 	C 	0.39280 0.65530 0.13104 0.26800
C 	C 	0.31830 0.70262 0.06154 0.04200
C 	C 	0.21890 0.67879 0.00216 -0.20700
C 	C 	0.15220 0.72665 0.94288 0.13600
H 	H 	0.08550 0.71090 0.90480 -0.03900
C 	C 	0.83650 0.46890 0.81820 0.26100
H 	H 	0.81560 0.42780 0.83890 -0.00600
C 	C 	0.89130 0.57510 0.82120 9.26200
H 	H 	0.92330 0.61890 0.84250 -3.03500
C 	C 	0.81860 0.56420 0.74160 -7.81000
H 	H 	0.79020 0.59810 0.69830 2.77800
C 	C 	0.70650 0.45374 0.66770 -0.13000
H 	H 	0.68880 0.40880 0.68820 0.07200
H 	H 	0.72920 0.44330 0.62040 0.02500
C 	C 	0.61000 0.50024 0.63665 0.23300
C 	C 	0.46540 0.55774 0.62780 0.01600
C 	C 	0.37500 0.58510 0.63720 -0.01600
H 	H 	0.34780 0.56420 0.67520 0.01800
C 	C 	0.32650 0.64350 0.58940 -0.08200
H 	H 	0.26530 0.66230 0.59500 0.07800
C 	C 	0.36620 0.67580 0.53260 0.03700
H 	H 	0.33130 0.71570 0.50140 0.00800
C 	C 	0.45640 0.64960 0.52160 -0.16000
H 	H 	0.48270 0.67050 0.48310 0.09700
C 	C 	0.50560 0.59076 0.57090 0.11200
C 	C 	0.94890 0.54010 0.80560 -8.27000
H 	H 	0.01010 0.56840 0.81870 2.32600
C 	C 	0.88230 0.52250 0.72530 7.76700
H 	H 	0.89280 0.53040 0.67430 -2.65800
O 	O 	0.59131 0.90694 0.50164 -0.41900
O 	O 	0.74046 0.94595 0.48620 -0.28200
O 	O 	0.85361 0.88850 0.66814 -0.28100
O 	O 	0.99168 0.83826 0.65262 -0.09800
N 	N 	0.41040 0.98808 0.36729 -0.19700
N 	N 	0.29390 0.01167 0.23700 -0.11200
N 	N 	0.03270 0.99899 0.16877 -0.61900
N 	N 	0.09690 0.94794 0.07778 -0.01800
H 	H 	0.13770 0.94010 0.04960 0.06400
C 	C 	0.68130 0.89833 0.49729 0.34400
C 	C 	0.89280 0.84470 0.63104 0.27000
C 	C 	0.81830 0.79738 0.56154 0.00600
C 	C 	0.71890 0.82121 0.50216 -0.07200
C 	C 	0.65220 0.77335 0.44288 0.01300
H 	H 	0.58550 0.78910 0.40480 0.03800
C 	C 	0.33650 0.03110 0.31820 0.01400
H 	H 	0.31560 0.07220 0.33890 0.03400
C 	C 	0.39130 0.92490 0.32120 -0.02500
H 	H 	0.42330 0.88110 0.34250 0.02200
C 	C 	0.31860 0.93580 0.24160 0.02100
H 	H 	0.29020 0.90190 0.19830 0.02300
C 	C 	0.20650 0.04626 0.16770 -0.22500
H 	H 	0.18880 0.09120 0.18820 0.05400
H 	H 	0.22920 0.05670 0.12040 0.06900
C 	C 	0.11000 0.99976 0.13665 0.14900
C 	C 	0.96540 0.94226 0.12780 1.40300
C 	C 	0.87500 0.91490 0.13720 -1.18500
H 	H 	0.84780 0.93580 0.17520 0.48600
C 	C 	0.82650 0.85650 0.08940 1.10900
H 	H 	0.76530 0.83770 0.09500 -0.35000
C 	C 	0.86620 0.82420 0.03260 -1.13800
H 	H 	0.83130 0.78430 0.00140 0.44900
C 	C 	0.95640 0.85040 0.02160 1.36100
H 	H 	0.98270 0.82950 0.98310 -0.21700
C 	C 	0.00560 0.90924 0.07090 -1.36700
C 	C 	0.44890 0.95990 0.30560 0.00700
H 	H 	0.51010 0.93160 0.31870 0.01300
C 	C 	0.38230 0.97750 0.22530 0.00600
H 	H 	0.39280 0.96960 0.17430 0.03400
O 	O 	0.09131 0.40694 0.50164 -0.56700
O 	O 	0.24046 0.44595 0.48620 -0.32000
O 	O 	0.35361 0.38850 0.66814 -0.40600
O 	O 	0.49168 0.33826 0.65262 -0.35000
N 	N 	0.91040 0.48808 0.36729 -0.43900
N 	N 	0.79390 0.51167 0.23700 -0.21400
N 	N 	0.53270 0.49899 0.16877 -0.23300
N 	N 	0.59690 0.44794 0.07778 -0.25100
H 	H 	0.63770 0.44010 0.04960 0.13600
C 	C 	0.18130 0.39833 0.49729 0.33900
C 	C 	0.39280 0.34470 0.63104 0.30100
C 	C 	0.31830 0.29738 0.56154 -0.03700
C 	C 	0.21890 0.32121 0.50216 -0.07500
C 	C 	0.15220 0.27335 0.44288 0.00800
H 	H 	0.08550 0.28910 0.40480 -0.00100
C 	C 	0.83650 0.53110 0.31820 0.26200
H 	H 	0.81560 0.57220 0.33890 -0.01000
C 	C 	0.89130 0.42490 0.32120 9.31600
H 	H 	0.92330 0.38110 0.34250 -3.05900
C 	C 	0.81860 0.43580 0.24160 -7.85600
H 	H 	0.79020 0.40190 0.19830 2.79100
C 	C 	0.70650 0.54626 0.16770 -0.12300
H 	H 	0.68880 0.59120 0.18820 0.06600
H 	H 	0.72920 0.55670 0.12040 0.01600
C 	C 	0.61000 0.49976 0.13665 0.22600
C 	C 	0.46540 0.44226 0.12780 -0.01600
C 	C 	0.37500 0.41490 0.13720 0.02500
H 	H 	0.34780 0.43580 0.17520 0.00200
C 	C 	0.32650 0.35650 0.08940 -0.14500
H 	H 	0.26530 0.33770 0.09500 0.09200
C 	C 	0.36620 0.32420 0.03260 0.11300
H 	H 	0.33130 0.28430 0.00140 -0.03500
C 	C 	0.45640 0.35040 0.02160 -0.28000
H 	H 	0.48270 0.32950 0.98310 0.16200
C 	C 	0.50560 0.40924 0.07090 0.15100
C 	C 	0.94890 0.45990 0.30560 -8.31800
H 	H 	0.01010 0.43160 0.31870 2.33800
C 	C 	0.88230 0.47750 0.22530 7.81200
H 	H 	0.89280 0.46960 0.17430 -2.67600
O 	O 	0.40869 0.90694 0.99836 -0.35400
O 	O 	0.25954 0.94595 0.01380 -0.27500
O 	O 	0.14639 0.88850 0.83186 -0.44100
O 	O 	0.00832 0.83826 0.84738 -0.56900
N 	N 	0.58960 0.98808 0.13271 -0.19400
N 	N 	0.70610 0.01167 0.26300 -0.09500
N 	N 	0.96730 0.99899 0.33123 0.17000
N 	N 	0.90310 0.94794 0.42222 -0.49700
H 	H 	0.86230 0.94010 0.45040 0.29100
C 	C 	0.31870 0.89833 0.00271 0.23000
C 	C 	0.10720 0.84470 0.86896 0.36400
C 	C 	0.18170 0.79738 0.93846 -0.17100
C 	C 	0.28110 0.82121 0.99784 0.09500
C 	C 	0.34780 0.77335 0.05712 -0.15200
H 	H 	0.41450 0.78910 0.09520 0.09100
C 	C 	0.66350 0.03110 0.18180 -0.00800
H 	H 	0.68440 0.07220 0.16110 0.03900
C 	C 	0.60870 0.92490 0.17880 -0.16500
H 	H 	0.57670 0.88110 0.15750 0.08200
C 	C 	0.68140 0.93580 0.25840 0.12700
H 	H 	0.70980 0.90190 0.30170 0.00600
C 	C 	0.79350 0.04626 0.33230 -0.35200
H 	H 	0.81120 0.09120 0.31180 0.17800
H 	H 	0.77080 0.05670 0.37960 0.14700
C 	C 	0.89000 0.99976 0.36335 0.35200
C 	C 	0.03460 0.94226 0.37220 -1.35600
C 	C 	0.12500 0.91490 0.36280 1.08200
H 	H 	0.15220 0.93580 0.32480 -0.37600
C 	C 	0.17350 0.85650 0.41060 -1.26100
H 	H 	0.23470 0.83770 0.40500 0.45000
C 	C 	0.13380 0.82420 0.46740 1.23200
H 	H 	0.16870 0.78430 0.49860 -0.44100
C 	C 	0.04360 0.85040 0.47840 -1.75300
H 	H 	0.01730 0.82950 0.51690 0.47500
C 	C 	0.99440 0.90924 0.42910 1.63700
C 	C 	0.55110 0.95990 0.19440 0.14700
H 	H 	0.48990 0.93160 0.18130 -0.03400
C 	C 	0.61770 0.97750 0.27470 -0.11500
H 	H 	0.60720 0.96960 0.32570 0.07800
O 	O 	0.90869 0.40694 0.99836 -0.17200
O 	O 	0.75954 0.44595 0.01380 -0.25800
O 	O 	0.64639 0.38850 0.83186 -0.39200
O 	O 	0.50832 0.33826 0.84738 -0.37200
N 	N 	0.08960 0.48808 0.13271 0.00600
N 	N 	0.20610 0.51167 0.26300 0.03300
N 	N 	0.46730 0.49899 0.33123 -0.27400
N 	N 	0.40310 0.44794 0.42222 -0.24300
H 	H 	0.36230 0.44010 0.45040 0.19200
C 	C 	0.81870 0.39833 0.00271 0.22100
C 	C 	0.60720 0.34470 0.86896 0.34400
C 	C 	0.68170 0.29738 0.93846 -0.14300
C 	C 	0.78110 0.32121 0.99784 0.10900
C 	C 	0.84780 0.27335 0.05712 -0.16000
H 	H 	0.91450 0.28910 0.09520 0.13400
C 	C 	0.16350 0.53110 0.18180 -0.11100
H 	H 	0.18440 0.57220 0.16110 0.05400
C 	C 	0.10870 0.42490 0.17880 -9.43000
H 	H 	0.07670 0.38110 0.15750 3.14200
C 	C 	0.18140 0.43580 0.25840 7.91200
H 	H 	0.20980 0.40190 0.30170 -2.73400
C 	C 	0.29350 0.54626 0.33230 -0.30000
H 	H 	0.31120 0.59120 0.31180 0.12200
H 	H 	0.27080 0.55670 0.37960 0.19000
C 	C 	0.39000 0.49976 0.36335 0.14100
C 	C 	0.53460 0.44226 0.37220 0.05100
C 	C 	0.62500 0.41490 0.36280 -0.14100
H 	H 	0.65220 0.43580 0.32480 0.08400
C 	C 	0.67350 0.35650 0.41060 -0.00700
H 	H 	0.73470 0.33770 0.40500 0.00500
C 	C 	0.63380 0.32420 0.46740 -0.02700
H 	H 	0.66870 0.28430 0.49860 0.04100
C 	C 	0.54360 0.35040 0.47840 -0.11000
H 	H 	0.51730 0.32950 0.51690 0.09500
C 	C 	0.49440 0.40924 0.42910 0.09500
C 	C 	0.05110 0.45990 0.19440 8.42100
H 	H 	0.98990 0.43160 0.18130 -2.34000
C 	C 	0.11770 0.47750 0.27470 -7.94300
H 	H 	0.10720 0.46960 0.32570 2.78200
Co	Co	0.50000 0.00000 0.50000 1.09100
Co	Co	0.00000 0.50000 0.50000 0.93800
Co	Co	0.50000 0.00000 -0.00000 1.07600
Co	Co	-0.00000 0.50000 -0.00000 0.92600
Co	Co	0.00000 0.07186 0.25000 0.96100
Co	Co	0.50000 0.57186 0.25000 1.15400
Co	Co	0.00000 0.92814 0.75000 0.99300
Co	Co	0.50000 0.42814 0.75000 1.15500
