data_crystal

_cell_length_a 15.37630
_cell_length_b 15.37630
_cell_length_c 9.80860
_cell_angle_alpha 90.00000
_cell_angle_beta  90.00000
_cell_angle_gamma 90.00000

_symmetry_space_group_name_	'P 1'
_symmetry_space_group_name_H-M	'P 1'

loop_
_symmetry_equiv_pos_as_xyz
  x,y,z

loop_
_atom_site_label
_atom_site_type_symbol
_atom_site_fract_x
_atom_site_fract_y
_atom_site_fract_z
_atom_site_charge
O 	O 	0.03119 0.87444 0.12234 -0.40400
C 	C 	0.88692 0.74442 0.12200 0.03700
H 	H 	0.91210 0.76160 0.20390 0.07200
C 	C 	0.81207 0.69471 0.12190 -0.10300
H 	H 	0.78710 0.67800 0.20420 0.08300
O 	O 	0.96881 0.12556 0.12234 -0.40400
C 	C 	0.11308 0.25558 0.12200 0.23500
H 	H 	0.08790 0.23840 0.20390 -0.05200
C 	C 	0.18793 0.30529 0.12190 -0.27000
H 	H 	0.21290 0.32200 0.20420 0.13100
O 	O 	0.12556 0.03119 0.12234 -0.46100
C 	C 	0.25558 0.88692 0.12200 0.03300
H 	H 	0.23840 0.91210 0.20390 0.07600
C 	C 	0.30529 0.81207 0.12190 -0.10100
H 	H 	0.32200 0.78710 0.20420 0.08200
O 	O 	0.87444 0.96881 0.12234 -0.35700
C 	C 	0.74442 0.11308 0.12200 0.22100
H 	H 	0.76160 0.08790 0.20390 -0.04600
C 	C 	0.69471 0.18793 0.12190 -0.25900
H 	H 	0.67800 0.21290 0.20420 0.12800
O 	O 	0.96881 0.87444 0.37766 -0.36200
C 	C 	0.11308 0.74442 0.37800 0.22600
H 	H 	0.08790 0.76160 0.29610 -0.04800
C 	C 	0.18793 0.69471 0.37810 -0.27600
H 	H 	0.21290 0.67800 0.29580 0.13400
O 	O 	0.03119 0.12556 0.37766 -0.46500
C 	C 	0.88692 0.25558 0.37800 0.03100
H 	H 	0.91210 0.23840 0.29610 0.07600
C 	C 	0.81207 0.30529 0.37810 -0.11300
H 	H 	0.78710 0.32200 0.29580 0.08600
O 	O 	0.87444 0.03119 0.37766 -0.40800
C 	C 	0.74442 0.88692 0.37800 0.03400
H 	H 	0.76160 0.91210 0.29610 0.07300
C 	C 	0.69471 0.81207 0.37810 -0.11400
H 	H 	0.67800 0.78710 0.29580 0.08700
O 	O 	0.12556 0.96881 0.37766 -0.40900
C 	C 	0.25558 0.11308 0.37800 0.24000
H 	H 	0.23840 0.08790 0.29610 -0.05500
C 	C 	0.30529 0.18793 0.37810 -0.28700
H 	H 	0.32200 0.21290 0.29580 0.13700
O 	O 	0.96881 0.12556 0.87766 -0.37800
C 	C 	0.11308 0.25558 0.87800 0.26400
H 	H 	0.08790 0.23840 0.79610 -0.05800
C 	C 	0.18793 0.30529 0.87810 -0.23800
H 	H 	0.21290 0.32200 0.79580 0.12800
O 	O 	0.03119 0.87444 0.87766 -0.38000
C 	C 	0.88692 0.74442 0.87800 0.06900
H 	H 	0.91210 0.76160 0.79610 0.06600
C 	C 	0.81207 0.69471 0.87810 -0.06900
H 	H 	0.78710 0.67800 0.79580 0.08000
O 	O 	0.87444 0.96881 0.87766 -0.33000
C 	C 	0.74442 0.11308 0.87800 0.25200
H 	H 	0.76160 0.08790 0.79610 -0.05100
C 	C 	0.69471 0.18793 0.87810 -0.22600
H 	H 	0.67800 0.21290 0.79580 0.12500
O 	O 	0.12556 0.03119 0.87766 -0.43800
C 	C 	0.25558 0.88692 0.87800 0.06400
H 	H 	0.23840 0.91210 0.79610 0.07000
C 	C 	0.30529 0.81207 0.87810 -0.06800
H 	H 	0.32200 0.78710 0.79580 0.07800
O 	O 	0.03119 0.12556 0.62234 -0.46500
C 	C 	0.88692 0.25558 0.62200 0.03200
H 	H 	0.91210 0.23840 0.70390 0.08100
C 	C 	0.81207 0.30529 0.62190 -0.11300
H 	H 	0.78710 0.32200 0.70420 0.09300
O 	O 	0.96881 0.87444 0.62234 -0.36100
C 	C 	0.11308 0.74442 0.62200 0.22700
H 	H 	0.08790 0.76160 0.70390 -0.04400
C 	C 	0.18793 0.69471 0.62190 -0.27500
H 	H 	0.21290 0.67800 0.70420 0.14100
O 	O 	0.12556 0.96881 0.62234 -0.40800
C 	C 	0.25558 0.11308 0.62200 0.24100
H 	H 	0.23840 0.08790 0.70390 -0.05100
C 	C 	0.30529 0.18793 0.62190 -0.28700
H 	H 	0.32200 0.21290 0.70420 0.14400
O 	O 	0.87444 0.03119 0.62234 -0.40800
C 	C 	0.74442 0.88692 0.62200 0.03500
H 	H 	0.76160 0.91210 0.70390 0.07800
C 	C 	0.69471 0.81207 0.62190 -0.11400
H 	H 	0.67800 0.78710 0.70420 0.09500
Dy	Dy	0.00000 0.00000 0.25000 1.55300
Dy	Dy	-0.00000 -0.00000 0.75000 1.55600
S 	S 	0.02606 0.82149 -0.00000 0.48000
O 	O 	0.08926 0.75239 -0.00000 -0.29700
N 	N 	0.53022 0.62971 -0.00000 -0.11700
C 	C 	0.92375 0.76825 -0.00000 -0.05500
C 	C 	0.77380 0.66945 -0.00000 0.05500
C 	C 	0.69119 0.61815 -0.00000 -0.09100
C 	C 	0.61317 0.66424 -0.00000 0.10700
C 	C 	0.60612 0.75807 -0.00000 -0.09200
H 	H 	0.65200 0.79750 -0.00000 0.09200
C 	C 	0.52070 0.77770 -0.00000 -0.07000
H 	H 	0.49710 0.83340 -0.00000 0.07700
C 	C 	0.47250 0.69763 -0.00000 0.10500
S 	S 	0.97394 0.17851 -0.00000 0.77500
O 	O 	0.91074 0.24761 -0.00000 -0.31000
N 	N 	0.46978 0.37029 -0.00000 -0.12200
C 	C 	0.07625 0.23175 -0.00000 -0.38700
C 	C 	0.22620 0.33055 -0.00000 0.16700
C 	C 	0.30881 0.38185 -0.00000 -0.13700
C 	C 	0.38683 0.33576 -0.00000 0.12400
C 	C 	0.39388 0.24193 -0.00000 -0.11400
H 	H 	0.34800 0.20250 -0.00000 0.08400
C 	C 	0.47930 0.22230 -0.00000 -0.07000
H 	H 	0.50290 0.16660 -0.00000 0.04300
C 	C 	0.52750 0.30237 -0.00000 0.11000
S 	S 	0.17851 0.02606 -0.00000 0.48800
O 	O 	0.24761 0.08926 -0.00000 -0.30100
N 	N 	0.37029 0.53022 -0.00000 -0.11900
C 	C 	0.23175 0.92375 -0.00000 -0.04300
C 	C 	0.33055 0.77380 -0.00000 0.05400
C 	C 	0.38185 0.69119 -0.00000 -0.09300
C 	C 	0.33576 0.61317 -0.00000 0.10600
C 	C 	0.24193 0.60612 -0.00000 -0.10100
H 	H 	0.20250 0.65200 -0.00000 0.07900
C 	C 	0.22230 0.52070 -0.00000 -0.07800
H 	H 	0.16660 0.49710 -0.00000 0.04500
C 	C 	0.30237 0.47250 -0.00000 0.11400
S 	S 	0.82149 0.97394 -0.00000 0.74600
O 	O 	0.75239 0.91074 -0.00000 -0.30500
N 	N 	0.62971 0.46978 -0.00000 -0.11900
C 	C 	0.76825 0.07625 -0.00000 -0.37200
C 	C 	0.66945 0.22620 -0.00000 0.15800
C 	C 	0.61815 0.30881 -0.00000 -0.13200
C 	C 	0.66424 0.38683 -0.00000 0.12300
C 	C 	0.75807 0.39388 -0.00000 -0.10300
H 	H 	0.79750 0.34800 -0.00000 0.09800
C 	C 	0.77770 0.47930 -0.00000 -0.06300
H 	H 	0.83340 0.50290 -0.00000 0.07500
C 	C 	0.69763 0.52750 -0.00000 0.10300
S 	S 	0.97394 0.82149 0.50000 0.79300
O 	O 	0.91074 0.75239 0.50000 -0.30100
N 	N 	0.46978 0.62971 0.50000 -0.11700
C 	C 	0.07625 0.76825 0.50000 -0.34900
C 	C 	0.22620 0.66945 0.50000 0.20500
C 	C 	0.30881 0.61815 0.50000 -0.14100
C 	C 	0.38683 0.66424 0.50000 0.13600
C 	C 	0.39388 0.75807 0.50000 -0.09900
H 	H 	0.34800 0.79750 0.50000 0.10400
C 	C 	0.47930 0.77770 0.50000 -0.06100
H 	H 	0.50290 0.83340 0.50000 0.08300
C 	C 	0.52750 0.69763 0.50000 0.11500
S 	S 	0.02606 0.17851 0.50000 0.51800
O 	O 	0.08926 0.24761 0.50000 -0.29600
N 	N 	0.53022 0.37029 0.50000 -0.11700
C 	C 	0.92375 0.23175 0.50000 -0.00800
C 	C 	0.77380 0.33055 0.50000 0.09900
C 	C 	0.69119 0.38185 0.50000 -0.10000
C 	C 	0.61317 0.33576 0.50000 0.11800
C 	C 	0.60612 0.24193 0.50000 -0.09700
H 	H 	0.65200 0.20250 0.50000 0.08500
C 	C 	0.52070 0.22230 0.50000 -0.07600
H 	H 	0.49710 0.16660 0.50000 0.05300
C 	C 	0.47250 0.30237 0.50000 0.12700
S 	S 	0.82149 0.02606 0.50000 0.51200
O 	O 	0.75239 0.08926 0.50000 -0.29200
N 	N 	0.62971 0.53022 0.50000 -0.11400
C 	C 	0.76825 0.92375 0.50000 -0.01800
C 	C 	0.66945 0.77380 0.50000 0.10100
C 	C 	0.61815 0.69119 0.50000 -0.09900
C 	C 	0.66424 0.61317 0.50000 0.11900
C 	C 	0.75807 0.60612 0.50000 -0.08700
H 	H 	0.79750 0.65200 0.50000 0.09900
C 	C 	0.77770 0.52070 0.50000 -0.06700
H 	H 	0.83340 0.49710 0.50000 0.08500
C 	C 	0.69763 0.47250 0.50000 0.11800
S 	S 	0.17851 0.97394 0.50000 0.81900
O 	O 	0.24761 0.91074 0.50000 -0.30600
N 	N 	0.37029 0.46978 0.50000 -0.11900
C 	C 	0.23175 0.07625 0.50000 -0.36700
C 	C 	0.33055 0.22620 0.50000 0.21300
C 	C 	0.38185 0.30881 0.50000 -0.14600
C 	C 	0.33576 0.38683 0.50000 0.13600
C 	C 	0.24193 0.39388 0.50000 -0.11000
H 	H 	0.20250 0.34800 0.50000 0.09000
C 	C 	0.22230 0.47930 0.50000 -0.06900
H 	H 	0.16660 0.50290 0.50000 0.05000
C 	C 	0.30237 0.52750 0.50000 0.12300
