data_crystal

_cell_length_a 12.38790
_cell_length_b 21.40740
_cell_length_c 27.11190
_cell_angle_alpha 90.00000
_cell_angle_beta  90.00000
_cell_angle_gamma 90.00000

_symmetry_space_group_name_	'P 1'
_symmetry_space_group_name_H-M	'P 1'

loop_
_symmetry_equiv_pos_as_xyz
  x,y,z

loop_
_atom_site_label
_atom_site_type_symbol
_atom_site_fract_x
_atom_site_fract_y
_atom_site_fract_z
_atom_site_charge
Cd	Cd	0.58995 0.58172 0.90244 1.20400
Cd	Cd	0.51060 0.62703 0.61137 1.17500
Cd	Cd	0.41005 0.08172 0.59756 1.20400
Cd	Cd	0.48940 0.12703 0.88863 1.17500
Cd	Cd	0.91005 0.08172 0.40244 1.20400
Cd	Cd	0.98940 0.12703 0.11137 1.17400
Cd	Cd	0.08995 0.58172 0.09756 1.20500
Cd	Cd	0.01060 0.62703 0.38863 1.17500
H 	H 	0.54890 0.59660 0.72620 -0.02500
H 	H 	0.85910 0.56950 0.76040 0.01200
H 	H 	0.89740 0.56690 0.67720 0.08200
H 	H 	0.76070 0.58320 0.62110 -0.00600
H 	H 	0.38920 0.57580 0.98060 0.01200
H 	H 	0.10200 0.58430 0.91350 0.00800
H 	H 	0.19150 0.58510 0.83900 0.07100
H 	H 	0.37700 0.58540 0.83720 -0.00700
H 	H 	0.30570 0.60940 0.52720 -0.00100
H 	H 	0.22050 0.77730 0.47670 0.02400
H 	H 	0.34090 0.82170 0.53230 0.09400
H 	H 	0.44530 0.75770 0.58040 -0.02500
H 	H 	0.43710 0.00600 0.95460 0.00500
H 	H 	0.45800 0.90050 0.95800 0.07400
H 	H 	0.66800 0.91250 0.84880 0.06000
H 	H 	0.64140 0.01730 0.84740 -0.04100
H 	H 	0.69710 0.81510 0.85430 0.04800
H 	H 	0.70340 0.70880 0.85300 -0.00500
H 	H 	0.47810 0.69830 0.95070 -0.00700
H 	H 	0.46160 0.80410 0.95400 0.08000
H 	H 	0.45110 0.09660 0.77380 -0.02600
H 	H 	0.14090 0.06950 0.73960 0.01300
H 	H 	0.10260 0.06690 0.82280 0.08300
H 	H 	0.23930 0.08320 0.87890 -0.00600
H 	H 	0.61080 0.07580 0.51940 0.01200
H 	H 	0.89800 0.08430 0.58650 0.00800
H 	H 	0.80850 0.08510 0.66100 0.07100
H 	H 	0.62300 0.08540 0.66280 -0.00700
H 	H 	0.69430 0.10940 0.97280 -0.00100
H 	H 	0.77950 0.27730 0.02330 0.02400
H 	H 	0.65910 0.32170 0.96770 0.09400
H 	H 	0.55470 0.25770 0.91960 -0.02500
H 	H 	0.56290 0.50600 0.54540 0.00500
H 	H 	0.54200 0.40050 0.54200 0.07400
H 	H 	0.33200 0.41250 0.65120 0.06000
H 	H 	0.35860 0.51730 0.65260 -0.04000
H 	H 	0.30290 0.31510 0.64570 0.04800
H 	H 	0.29660 0.20880 0.64700 -0.00500
H 	H 	0.52190 0.19830 0.54930 -0.00700
H 	H 	0.53840 0.30410 0.54600 0.08000
H 	H 	0.95110 0.09660 0.22620 -0.02600
H 	H 	0.64090 0.06950 0.26040 0.01200
H 	H 	0.60260 0.06690 0.17720 0.08200
H 	H 	0.73930 0.08320 0.12110 -0.00700
H 	H 	0.11080 0.07580 0.48060 0.01200
H 	H 	0.39800 0.08430 0.41350 0.00800
H 	H 	0.30850 0.08510 0.33900 0.07100
H 	H 	0.12300 0.08540 0.33720 -0.00600
H 	H 	0.19430 0.10940 0.02720 -0.00100
H 	H 	0.27950 0.27730 0.97670 0.02400
H 	H 	0.15910 0.32170 0.03230 0.09400
H 	H 	0.05470 0.25770 0.08040 -0.02400
H 	H 	0.06290 0.50600 0.45460 0.00500
H 	H 	0.04200 0.40050 0.45800 0.07300
H 	H 	0.83200 0.41250 0.34880 0.06000
H 	H 	0.85860 0.51730 0.34740 -0.04000
H 	H 	0.80290 0.31510 0.35430 0.04800
H 	H 	0.79660 0.20880 0.35300 -0.00500
H 	H 	0.02190 0.19830 0.45070 -0.00500
H 	H 	0.03840 0.30410 0.45400 0.08100
H 	H 	0.04890 0.59660 0.27380 -0.02500
H 	H 	0.35910 0.56950 0.23960 0.01200
H 	H 	0.39740 0.56690 0.32280 0.08200
H 	H 	0.26070 0.58320 0.37890 -0.00600
H 	H 	0.88920 0.57580 0.01940 0.01200
H 	H 	0.60200 0.58430 0.08650 0.00800
H 	H 	0.69150 0.58510 0.16100 0.07100
H 	H 	0.87700 0.58540 0.16280 -0.00700
H 	H 	0.80570 0.60940 0.47280 -0.00100
H 	H 	0.72050 0.77730 0.52330 0.02400
H 	H 	0.84090 0.82170 0.46770 0.09400
H 	H 	0.94530 0.75770 0.41960 -0.02400
H 	H 	0.93710 0.00600 0.04540 0.00200
H 	H 	0.95800 0.90050 0.04200 0.07300
H 	H 	0.16800 0.91250 0.15120 0.05800
H 	H 	0.14140 0.01730 0.15260 -0.03500
H 	H 	0.19710 0.81510 0.14570 0.04900
H 	H 	0.20340 0.70880 0.14700 -0.00500
H 	H 	0.97810 0.69830 0.04930 -0.00700
H 	H 	0.96160 0.80410 0.04600 0.08200
C 	C 	0.62030 0.59147 0.71641 0.07800
C 	C 	0.69780 0.58273 0.75247 -0.14000
C 	C 	0.80430 0.57445 0.73724 0.07300
C 	C 	0.82730 0.57376 0.68810 -0.15100
C 	C 	0.74430 0.58339 0.65458 0.08400
C 	C 	0.66620 0.58155 0.80551 0.33100
C 	C 	0.34880 0.57878 0.95177 0.07300
C 	C 	0.23630 0.58106 0.95552 -0.13200
C 	C 	0.17700 0.58333 0.91248 0.06900
C 	C 	0.23020 0.58420 0.86841 -0.14400
C 	C 	0.34200 0.58367 0.86753 0.07300
C 	C 	0.18130 0.58112 0.00475 0.33600
C 	C 	0.31430 0.65257 0.52738 0.07700
C 	C 	0.25110 0.68788 0.49562 -0.12900
C 	C 	0.26170 0.75216 0.49733 0.06600
C 	C 	0.33390 0.77858 0.52996 -0.14900
C 	C 	0.39540 0.73969 0.55908 0.07700
C 	C 	0.17350 0.65779 0.45943 0.33300
C 	C 	0.48500 0.98705 0.93278 0.07100
C 	C 	0.49690 0.92322 0.93482 -0.12900
C 	C 	0.56530 0.89242 0.90317 0.05800
C 	C 	0.61950 0.93018 0.87093 -0.14500
C 	C 	0.60390 0.99363 0.87054 0.08200
C 	C 	0.57480 0.82381 0.90276 0.04800
C 	C 	0.64910 0.79244 0.87375 -0.12500
C 	C 	0.65300 0.72817 0.87331 0.07000
C 	C 	0.52150 0.72211 0.93000 0.07900
C 	C 	0.51110 0.78622 0.93246 -0.13000
C 	C 	0.37970 0.09147 0.78359 0.07800
C 	C 	0.30220 0.08273 0.74753 -0.14000
C 	C 	0.19570 0.07445 0.76276 0.07400
C 	C 	0.17270 0.07376 0.81190 -0.15100
C 	C 	0.25570 0.08339 0.84542 0.08400
C 	C 	0.33380 0.08155 0.69449 0.33100
C 	C 	0.65120 0.07878 0.54823 0.07200
C 	C 	0.76370 0.08106 0.54448 -0.13200
C 	C 	0.82300 0.08333 0.58752 0.06800
C 	C 	0.76980 0.08420 0.63159 -0.14400
C 	C 	0.65800 0.08367 0.63247 0.07300
C 	C 	0.81870 0.08112 0.49525 0.33600
C 	C 	0.68570 0.15257 0.97262 0.07700
C 	C 	0.74890 0.18788 0.00438 -0.12900
C 	C 	0.73830 0.25216 0.00267 0.06500
C 	C 	0.66610 0.27858 0.97004 -0.14900
C 	C 	0.60460 0.23969 0.94092 0.07700
C 	C 	0.82650 0.15779 0.04057 0.33300
C 	C 	0.51500 0.48705 0.56722 0.07100
C 	C 	0.50310 0.42322 0.56518 -0.12900
C 	C 	0.43470 0.39242 0.59683 0.05800
C 	C 	0.38050 0.43018 0.62907 -0.14400
C 	C 	0.39610 0.49363 0.62946 0.08000
C 	C 	0.42520 0.32381 0.59724 0.04800
C 	C 	0.35090 0.29244 0.62625 -0.12500
C 	C 	0.34700 0.22817 0.62669 0.07000
C 	C 	0.47850 0.22211 0.57000 0.07900
C 	C 	0.48890 0.28622 0.56754 -0.13100
C 	C 	0.87970 0.09147 0.21641 0.07700
C 	C 	0.80220 0.08273 0.25247 -0.14000
C 	C 	0.69570 0.07445 0.23724 0.07300
C 	C 	0.67270 0.07376 0.18810 -0.15100
C 	C 	0.75570 0.08339 0.15458 0.08400
C 	C 	0.83380 0.08155 0.30551 0.33100
C 	C 	0.15120 0.07878 0.45177 0.07200
C 	C 	0.26370 0.08106 0.45552 -0.13200
C 	C 	0.32300 0.08333 0.41248 0.06800
C 	C 	0.26980 0.08420 0.36841 -0.14300
C 	C 	0.15800 0.08367 0.36753 0.07300
C 	C 	0.31870 0.08112 0.50475 0.33600
C 	C 	0.18570 0.15257 0.02738 0.07700
C 	C 	0.24890 0.18788 0.99562 -0.12900
C 	C 	0.23830 0.25216 0.99733 0.06500
C 	C 	0.16610 0.27858 0.02996 -0.14800
C 	C 	0.10460 0.23969 0.05908 0.07700
C 	C 	0.32650 0.15779 0.95943 0.33300
C 	C 	0.01500 0.48705 0.43278 0.07000
C 	C 	0.00310 0.42322 0.43482 -0.12700
C 	C 	0.93470 0.39242 0.40317 0.05600
C 	C 	0.88050 0.43018 0.37093 -0.14300
C 	C 	0.89610 0.49363 0.37054 0.07900
C 	C 	0.92520 0.32381 0.40276 0.04900
C 	C 	0.85090 0.29244 0.37375 -0.12500
C 	C 	0.84700 0.22817 0.37331 0.07000
C 	C 	0.97850 0.22211 0.43000 0.07700
C 	C 	0.98890 0.28622 0.43246 -0.13200
C 	C 	0.12030 0.59147 0.28359 0.07800
C 	C 	0.19780 0.58273 0.24753 -0.14000
C 	C 	0.30430 0.57445 0.26276 0.07300
C 	C 	0.32730 0.57376 0.31190 -0.15100
C 	C 	0.24430 0.58339 0.34542 0.08400
C 	C 	0.16620 0.58155 0.19449 0.33100
C 	C 	0.84880 0.57878 0.04823 0.07300
C 	C 	0.73630 0.58106 0.04448 -0.13200
C 	C 	0.67700 0.58333 0.08752 0.06900
C 	C 	0.73020 0.58420 0.13159 -0.14300
C 	C 	0.84200 0.58367 0.13247 0.07300
C 	C 	0.68130 0.58112 0.99525 0.33600
C 	C 	0.81430 0.65257 0.47262 0.07700
C 	C 	0.75110 0.68788 0.50438 -0.12900
C 	C 	0.76170 0.75216 0.50267 0.06600
C 	C 	0.83390 0.77858 0.47004 -0.14900
C 	C 	0.89540 0.73969 0.44092 0.07700
C 	C 	0.67350 0.65779 0.54057 0.33300
C 	C 	0.98500 0.98705 0.06722 0.07300
C 	C 	0.99690 0.92322 0.06518 -0.12500
C 	C 	0.06530 0.89242 0.09683 0.05200
C 	C 	0.11950 0.93018 0.12907 -0.13800
C 	C 	0.10390 0.99363 0.12946 0.07100
C 	C 	0.07480 0.82381 0.09724 0.05100
C 	C 	0.14910 0.79244 0.12625 -0.12700
C 	C 	0.15300 0.72817 0.12669 0.07100
C 	C 	0.02150 0.72211 0.07000 0.08000
C 	C 	0.01110 0.78622 0.06754 -0.13400
N 	N 	0.64250 0.59293 0.66800 -0.25000
N 	N 	0.40110 0.58075 0.90818 -0.23600
N 	N 	0.38700 0.67728 0.55822 -0.24900
N 	N 	0.53840 0.02290 0.90132 -0.25200
N 	N 	0.58830 0.69220 0.90048 -0.22900
N 	N 	0.35750 0.09293 0.83200 -0.25000
N 	N 	0.59890 0.08075 0.59182 -0.23600
N 	N 	0.61300 0.17728 0.94178 -0.24900
N 	N 	0.46160 0.52290 0.59868 -0.25200
N 	N 	0.41170 0.19220 0.59952 -0.22900
N 	N 	0.85750 0.09293 0.16800 -0.25100
N 	N 	0.09890 0.08075 0.40818 -0.23500
N 	N 	0.11300 0.17728 0.05822 -0.24800
N 	N 	0.96160 0.52290 0.40132 -0.25100
N 	N 	0.91170 0.19220 0.40048 -0.22900
N 	N 	0.14250 0.59293 0.33200 -0.25000
N 	N 	0.90110 0.58075 0.09182 -0.23600
N 	N 	0.88700 0.67728 0.44178 -0.24900
N 	N 	0.03840 0.02290 0.09868 -0.24900
N 	N 	0.08830 0.69220 0.09952 -0.22900
O 	O 	0.56840 0.57395 0.81620 -0.40300
O 	O 	0.73680 0.58839 0.83793 -0.37300
O 	O 	0.23874 0.57789 0.04309 -0.40100
O 	O 	0.08240 0.58582 0.00674 -0.38600
O 	O 	0.15550 0.60099 0.46308 -0.34400
O 	O 	0.13230 0.69265 0.42740 -0.41400
O 	O 	0.43160 0.07395 0.68380 -0.40300
O 	O 	0.26320 0.08839 0.66207 -0.37300
O 	O 	0.76126 0.07789 0.45691 -0.40100
O 	O 	0.91760 0.08582 0.49326 -0.38700
O 	O 	0.84450 0.10099 0.03692 -0.34400
O 	O 	0.86770 0.19265 0.07260 -0.41400
O 	O 	0.93160 0.07395 0.31620 -0.40300
O 	O 	0.76320 0.08839 0.33793 -0.37300
O 	O 	0.26126 0.07789 0.54309 -0.40000
O 	O 	0.41760 0.08582 0.50674 -0.38600
O 	O 	0.34450 0.10099 0.96308 -0.34400
O 	O 	0.36770 0.19265 0.92740 -0.41400
O 	O 	0.06840 0.57395 0.18380 -0.40200
O 	O 	0.23680 0.58839 0.16207 -0.37300
O 	O 	0.73874 0.57789 0.95691 -0.40100
O 	O 	0.58240 0.58582 0.99326 -0.38600
O 	O 	0.65550 0.60099 0.53692 -0.34400
O 	O 	0.63230 0.69265 0.57260 -0.41400
Cd	Cd	0.08995 0.91828 0.59756 1.20500
Cd	Cd	0.01060 0.87297 0.88863 1.17500
Cd	Cd	0.91005 0.41828 0.90244 1.20600
Cd	Cd	0.98940 0.37297 0.61137 1.17600
Cd	Cd	0.41005 0.41828 0.09756 1.20500
Cd	Cd	0.48940 0.37297 0.38863 1.17600
Cd	Cd	0.58995 0.91828 0.40244 1.20500
Cd	Cd	0.51060 0.87297 0.11137 1.17600
H 	H 	0.04890 0.90340 0.77380 -0.02600
H 	H 	0.35910 0.93050 0.73960 0.01200
H 	H 	0.39740 0.93310 0.82280 0.08200
H 	H 	0.26070 0.91680 0.87890 -0.00700
H 	H 	0.88920 0.92420 0.51940 0.01200
H 	H 	0.60200 0.91570 0.58650 0.00800
H 	H 	0.69150 0.91490 0.66100 0.07100
H 	H 	0.87700 0.91460 0.66280 -0.00600
H 	H 	0.80570 0.89060 0.97280 -0.00100
H 	H 	0.72050 0.72270 0.02330 0.02400
H 	H 	0.84090 0.67830 0.96770 0.09400
H 	H 	0.94530 0.74230 0.91960 -0.02400
H 	H 	0.93710 0.49400 0.54540 0.00500
H 	H 	0.95800 0.59950 0.54200 0.07300
H 	H 	0.16800 0.58750 0.65120 0.06000
H 	H 	0.14140 0.48270 0.65260 -0.04000
H 	H 	0.19710 0.68490 0.64570 0.04800
H 	H 	0.20340 0.79120 0.64700 -0.00500
H 	H 	0.97810 0.80170 0.54930 -0.00500
H 	H 	0.96160 0.69590 0.54600 0.08100
H 	H 	0.95110 0.40340 0.72620 -0.02500
H 	H 	0.64090 0.43050 0.76040 0.01200
H 	H 	0.60260 0.43310 0.67720 0.08200
H 	H 	0.73930 0.41680 0.62110 -0.00600
H 	H 	0.11080 0.42420 0.98060 0.01200
H 	H 	0.39800 0.41570 0.91350 0.00800
H 	H 	0.30850 0.41490 0.83900 0.07100
H 	H 	0.12300 0.41460 0.83720 -0.00700
H 	H 	0.19430 0.39060 0.52720 -0.00100
H 	H 	0.27950 0.22270 0.47670 0.02400
H 	H 	0.15910 0.17830 0.53230 0.09400
H 	H 	0.05470 0.24230 0.58040 -0.02400
H 	H 	0.06290 0.99400 0.95460 0.00200
H 	H 	0.04200 0.09950 0.95800 0.07300
H 	H 	0.83200 0.08750 0.84880 0.05800
H 	H 	0.85860 0.98270 0.84740 -0.03500
H 	H 	0.80290 0.18490 0.85430 0.04900
H 	H 	0.79660 0.29120 0.85300 -0.00500
H 	H 	0.02190 0.30170 0.95070 -0.00700
H 	H 	0.03840 0.19590 0.95400 0.08200
H 	H 	0.45110 0.40340 0.27380 -0.02500
H 	H 	0.14090 0.43050 0.23960 0.01200
H 	H 	0.10260 0.43310 0.32280 0.08200
H 	H 	0.23930 0.41680 0.37890 -0.00600
H 	H 	0.61080 0.42420 0.01940 0.01200
H 	H 	0.89800 0.41570 0.08650 0.00800
H 	H 	0.80850 0.41490 0.16100 0.07100
H 	H 	0.62300 0.41460 0.16280 -0.00700
H 	H 	0.69430 0.39060 0.47280 -0.00100
H 	H 	0.77950 0.22270 0.52330 0.02400
H 	H 	0.65910 0.17830 0.46770 0.09400
H 	H 	0.55470 0.24230 0.41960 -0.02500
H 	H 	0.56290 0.99400 0.04540 0.00500
H 	H 	0.54200 0.09950 0.04200 0.07400
H 	H 	0.33200 0.08750 0.15120 0.06000
H 	H 	0.35860 0.98270 0.15260 -0.04100
H 	H 	0.30290 0.18490 0.14570 0.04800
H 	H 	0.29660 0.29120 0.14700 -0.00500
H 	H 	0.52190 0.30170 0.04930 -0.00700
H 	H 	0.53840 0.19590 0.04600 0.08000
H 	H 	0.54890 0.90340 0.22620 -0.02600
H 	H 	0.85910 0.93050 0.26040 0.01300
H 	H 	0.89740 0.93310 0.17720 0.08300
H 	H 	0.76070 0.91680 0.12110 -0.00600
H 	H 	0.38920 0.92420 0.48060 0.01200
H 	H 	0.10200 0.91570 0.41350 0.00800
H 	H 	0.19150 0.91490 0.33900 0.07100
H 	H 	0.37700 0.91460 0.33720 -0.00700
H 	H 	0.30570 0.89060 0.02720 -0.00100
H 	H 	0.22050 0.72270 0.97670 0.02400
H 	H 	0.34090 0.67830 0.03230 0.09400
H 	H 	0.44530 0.74230 0.08040 -0.02500
H 	H 	0.43710 0.49400 0.45460 0.00500
H 	H 	0.45800 0.59950 0.45800 0.07400
H 	H 	0.66800 0.58750 0.34880 0.06000
H 	H 	0.64140 0.48270 0.34740 -0.04000
H 	H 	0.69710 0.68490 0.35430 0.04800
H 	H 	0.70340 0.79120 0.35300 -0.00500
H 	H 	0.47810 0.80170 0.45070 -0.00700
H 	H 	0.46160 0.69590 0.45400 0.08000
C 	C 	0.12030 0.90853 0.78359 0.07700
C 	C 	0.19780 0.91727 0.74753 -0.14000
C 	C 	0.30430 0.92555 0.76276 0.07300
C 	C 	0.32730 0.92624 0.81190 -0.15100
C 	C 	0.24430 0.91661 0.84542 0.08400
C 	C 	0.16620 0.91845 0.69449 0.33100
C 	C 	0.84880 0.92122 0.54823 0.07200
C 	C 	0.73630 0.91894 0.54448 -0.13200
C 	C 	0.67700 0.91667 0.58752 0.06800
C 	C 	0.73020 0.91580 0.63159 -0.14300
C 	C 	0.84200 0.91633 0.63247 0.07300
C 	C 	0.68130 0.91888 0.49525 0.33600
C 	C 	0.81430 0.84743 0.97262 0.07700
C 	C 	0.75110 0.81212 0.00438 -0.12900
C 	C 	0.76170 0.74784 0.00267 0.06500
C 	C 	0.83390 0.72142 0.97004 -0.14800
C 	C 	0.89540 0.76031 0.94092 0.07700
C 	C 	0.67350 0.84221 0.04057 0.33300
C 	C 	0.98500 0.51295 0.56722 0.07000
C 	C 	0.99690 0.57678 0.56518 -0.12700
C 	C 	0.06530 0.60758 0.59683 0.05600
C 	C 	0.11950 0.56982 0.62907 -0.14300
C 	C 	0.10390 0.50637 0.62946 0.07900
C 	C 	0.07480 0.67619 0.59724 0.04900
C 	C 	0.14910 0.70756 0.62625 -0.12500
C 	C 	0.15300 0.77183 0.62669 0.07000
C 	C 	0.02150 0.77789 0.57000 0.07700
C 	C 	0.01110 0.71378 0.56754 -0.13200
C 	C 	0.87970 0.40853 0.71641 0.07800
C 	C 	0.80220 0.41727 0.75247 -0.14000
C 	C 	0.69570 0.42555 0.73724 0.07300
C 	C 	0.67270 0.42624 0.68810 -0.15100
C 	C 	0.75570 0.41661 0.65458 0.08400
C 	C 	0.83380 0.41845 0.80551 0.33100
C 	C 	0.15120 0.42122 0.95177 0.07300
C 	C 	0.26370 0.41894 0.95552 -0.13200
C 	C 	0.32300 0.41667 0.91248 0.06900
C 	C 	0.26980 0.41580 0.86841 -0.14300
C 	C 	0.15800 0.41633 0.86753 0.07300
C 	C 	0.31870 0.41888 0.00475 0.33600
C 	C 	0.18570 0.34743 0.52738 0.07700
C 	C 	0.24890 0.31212 0.49562 -0.12900
C 	C 	0.23830 0.24784 0.49733 0.06600
C 	C 	0.16610 0.22142 0.52996 -0.14900
C 	C 	0.10460 0.26031 0.55908 0.07700
C 	C 	0.32650 0.34221 0.45943 0.33300
C 	C 	0.01500 0.01295 0.93278 0.07300
C 	C 	0.00310 0.07678 0.93482 -0.12500
C 	C 	0.93470 0.10758 0.90317 0.05200
C 	C 	0.88050 0.06982 0.87093 -0.13800
C 	C 	0.89610 0.00637 0.87054 0.07100
C 	C 	0.92520 0.17619 0.90276 0.05100
C 	C 	0.85090 0.20756 0.87375 -0.12700
C 	C 	0.84700 0.27183 0.87331 0.07100
C 	C 	0.97850 0.27789 0.93000 0.08000
C 	C 	0.98890 0.21378 0.93246 -0.13400
C 	C 	0.37970 0.40853 0.28359 0.07800
C 	C 	0.30220 0.41727 0.24753 -0.14000
C 	C 	0.19570 0.42555 0.26276 0.07300
C 	C 	0.17270 0.42624 0.31190 -0.15100
C 	C 	0.25570 0.41661 0.34542 0.08400
C 	C 	0.33380 0.41845 0.19449 0.33100
C 	C 	0.65120 0.42122 0.04823 0.07300
C 	C 	0.76370 0.41894 0.04448 -0.13200
C 	C 	0.82300 0.41667 0.08752 0.06900
C 	C 	0.76980 0.41580 0.13159 -0.14400
C 	C 	0.65800 0.41633 0.13247 0.07300
C 	C 	0.81870 0.41888 0.99525 0.33600
C 	C 	0.68570 0.34743 0.47262 0.07700
C 	C 	0.74890 0.31212 0.50438 -0.12900
C 	C 	0.73830 0.24784 0.50267 0.06600
C 	C 	0.66610 0.22142 0.47004 -0.14900
C 	C 	0.60460 0.26031 0.44092 0.07700
C 	C 	0.82650 0.34221 0.54057 0.33300
C 	C 	0.51500 0.01295 0.06722 0.07100
C 	C 	0.50310 0.07678 0.06518 -0.12900
C 	C 	0.43470 0.10758 0.09683 0.05800
C 	C 	0.38050 0.06982 0.12907 -0.14500
C 	C 	0.39610 0.00637 0.12946 0.08200
C 	C 	0.42520 0.17619 0.09724 0.04800
C 	C 	0.35090 0.20756 0.12625 -0.12500
C 	C 	0.34700 0.27183 0.12669 0.07000
C 	C 	0.47850 0.27789 0.07000 0.07900
C 	C 	0.48890 0.21378 0.06754 -0.13000
C 	C 	0.62030 0.90853 0.21641 0.07800
C 	C 	0.69780 0.91727 0.25247 -0.14000
C 	C 	0.80430 0.92555 0.23724 0.07400
C 	C 	0.82730 0.92624 0.18810 -0.15100
C 	C 	0.74430 0.91661 0.15458 0.08400
C 	C 	0.66620 0.91845 0.30551 0.33100
C 	C 	0.34880 0.92122 0.45177 0.07200
C 	C 	0.23630 0.91894 0.45552 -0.13200
C 	C 	0.17700 0.91667 0.41248 0.06800
C 	C 	0.23020 0.91580 0.36841 -0.14400
C 	C 	0.34200 0.91633 0.36753 0.07300
C 	C 	0.18130 0.91888 0.50475 0.33600
C 	C 	0.31430 0.84743 0.02738 0.07700
C 	C 	0.25110 0.81212 0.99562 -0.12900
C 	C 	0.26170 0.74784 0.99733 0.06500
C 	C 	0.33390 0.72142 0.02996 -0.14900
C 	C 	0.39540 0.76031 0.05908 0.07700
C 	C 	0.17350 0.84221 0.95943 0.33300
C 	C 	0.48500 0.51295 0.43278 0.07100
C 	C 	0.49690 0.57678 0.43482 -0.12900
C 	C 	0.56530 0.60758 0.40317 0.05800
C 	C 	0.61950 0.56982 0.37093 -0.14400
C 	C 	0.60390 0.50637 0.37054 0.08000
C 	C 	0.57480 0.67619 0.40276 0.04800
C 	C 	0.64910 0.70756 0.37375 -0.12500
C 	C 	0.65300 0.77183 0.37331 0.07000
C 	C 	0.52150 0.77789 0.43000 0.07900
C 	C 	0.51110 0.71378 0.43246 -0.13100
N 	N 	0.14250 0.90707 0.83200 -0.25100
N 	N 	0.90110 0.91925 0.59182 -0.23500
N 	N 	0.88700 0.82272 0.94178 -0.24800
N 	N 	0.03840 0.47710 0.59868 -0.25100
N 	N 	0.08830 0.80780 0.59952 -0.22900
N 	N 	0.85750 0.40707 0.66800 -0.25000
N 	N 	0.09890 0.41925 0.90818 -0.23600
N 	N 	0.11300 0.32272 0.55822 -0.24900
N 	N 	0.96160 0.97710 0.90132 -0.24900
N 	N 	0.91170 0.30780 0.90048 -0.22900
N 	N 	0.35750 0.40707 0.33200 -0.25000
N 	N 	0.59890 0.41925 0.09182 -0.23600
N 	N 	0.61300 0.32272 0.44178 -0.24900
N 	N 	0.46160 0.97710 0.09868 -0.25200
N 	N 	0.41170 0.30780 0.09952 -0.22900
N 	N 	0.64250 0.90707 0.16800 -0.25000
N 	N 	0.40110 0.91925 0.40818 -0.23600
N 	N 	0.38700 0.82272 0.05822 -0.24900
N 	N 	0.53840 0.47710 0.40132 -0.25200
N 	N 	0.58830 0.80780 0.40048 -0.22900
O 	O 	0.06840 0.92605 0.68380 -0.40300
O 	O 	0.23680 0.91161 0.66207 -0.37300
O 	O 	0.73874 0.92211 0.45691 -0.40000
O 	O 	0.58240 0.91418 0.49326 -0.38600
O 	O 	0.65550 0.89901 0.03692 -0.34400
O 	O 	0.63230 0.80735 0.07260 -0.41400
O 	O 	0.93160 0.42605 0.81620 -0.40200
O 	O 	0.76320 0.41161 0.83793 -0.37300
O 	O 	0.26126 0.42211 0.04309 -0.40100
O 	O 	0.41760 0.41418 0.00674 -0.38600
O 	O 	0.34450 0.39901 0.46308 -0.34400
O 	O 	0.36770 0.30735 0.42740 -0.41400
O 	O 	0.43160 0.42605 0.18380 -0.40300
O 	O 	0.26320 0.41161 0.16207 -0.37300
O 	O 	0.76126 0.42211 0.95691 -0.40100
O 	O 	0.91760 0.41418 0.99326 -0.38600
O 	O 	0.84450 0.39901 0.53692 -0.34400
O 	O 	0.86770 0.30735 0.57260 -0.41400
O 	O 	0.56840 0.92605 0.31620 -0.40300
O 	O 	0.73680 0.91161 0.33793 -0.37300
O 	O 	0.23874 0.92211 0.54309 -0.40100
O 	O 	0.08240 0.91418 0.50674 -0.38700
O 	O 	0.15550 0.89901 0.96308 -0.34400
O 	O 	0.13230 0.80735 0.92740 -0.41400
