data_crystal

_cell_length_a 10.58920
_cell_length_b 19.97000
_cell_length_c 18.98000
_cell_angle_alpha 90.00000
_cell_angle_beta  91.18100
_cell_angle_gamma 90.00000

_symmetry_space_group_name_	'P 1'
_symmetry_space_group_name_H-M	'P 1'

loop_
_symmetry_equiv_pos_as_xyz
  x,y,z

loop_
_atom_site_label
_atom_site_type_symbol
_atom_site_fract_x
_atom_site_fract_y
_atom_site_fract_z
_atom_site_charge
Ni	Ni	0.18465 0.23229 0.12702 1.09300
Ni	Ni	0.66794 0.12160 0.22588 1.08000
S 	S 	0.74999 0.49339 0.00031 0.28200
C 	C 	0.72640 0.27690 0.07100 -0.07000
C 	C 	0.84390 0.30820 0.06800 -0.02600
C 	C 	0.85100 0.37430 0.04620 -0.04800
H 	H 	0.92900 0.39560 0.04350 0.07300
C 	C 	0.74100 0.40860 0.02840 -0.00800
C 	C 	0.62510 0.37830 0.03110 -0.06800
H 	H 	0.55200 0.40210 0.01970 0.07900
C 	C 	0.61830 0.31240 0.05090 0.00500
H 	H 	0.54020 0.29110 0.05080 0.03600
C 	C 	0.75970 0.53880 0.07970 -0.01300
C 	C 	0.87630 0.56380 0.10460 -0.06600
H 	H 	0.95010 0.55560 0.08020 0.08100
C 	C 	0.87850 0.60060 0.16560 0.00000
H 	H 	0.95560 0.61750 0.18180 0.04400
C 	C 	0.77170 0.61390 0.20460 -0.06200
C 	C 	0.65580 0.58760 0.18000 -0.02800
C 	C 	0.65070 0.55020 0.11760 -0.04900
H 	H 	0.57390 0.53290 0.10140 0.07800
C 	C 	0.70640 0.20610 0.09680 0.35900
C 	C 	0.96570 0.27170 0.08670 0.29800
C 	C 	0.53140 0.60150 0.21310 0.28100
C 	C 	0.78820 0.65600 0.27030 0.31900
C 	C 	0.85880 0.01390 0.25920 0.08500
H 	H 	0.81280 0.99910 0.29750 0.00500
C 	C 	0.91880 0.06970 0.17000 -0.00700
H 	H 	0.92170 0.10140 0.13420 0.04100
C 	C 	0.00630 0.02340 0.18350 -0.00000
H 	H 	0.08000 0.01670 0.15860 0.03600
C 	C 	0.04040 0.93330 0.27450 -0.11200
H 	H 	0.02270 0.93280 0.32440 0.01700
H 	H 	0.13000 0.94170 0.26950 0.03600
C 	C 	0.00370 0.79130 0.13530 -0.11300
H 	H 	0.93310 0.77170 0.15970 0.07900
H 	H 	0.98260 0.79250 0.08540 0.03700
C 	C 	0.00690 0.86410 0.24210 -0.10900
H 	H 	0.05930 0.83000 0.26430 0.06200
H 	H 	0.91940 0.85370 0.25160 0.05900
C 	C 	0.02630 0.86270 0.16220 0.06600
H 	H 	0.11160 0.87670 0.15180 0.00300
H 	H 	0.96780 0.89330 0.13890 0.00100
C 	C 	0.14220 0.71090 0.20370 0.08600
H 	H 	0.09070 0.70730 0.24260 0.01200
C 	C 	0.21660 0.74410 0.10230 -0.01900
H 	H 	0.22690 0.76680 0.05990 0.05600
C 	C 	0.29600 0.69890 0.13210 0.02400
H 	H 	0.37060 0.68380 0.11250 0.02700
N 	N 	0.25310 0.22280 0.02910 -0.23200
C 	C 	0.25550 0.26990 0.97800 0.01100
H 	H 	0.21740 0.31180 0.98080 0.03100
C 	C 	0.32020 0.24790 0.92290 0.00500
H 	H 	0.32080 0.26440 0.87710 0.02600
C 	C 	0.59480 0.13470 0.74410 0.04900
H 	H 	0.63300 0.17660 0.75900 -0.00300
H 	H 	0.65470 0.11100 0.71530 0.02000
N 	N 	0.38460 0.19540 0.95080 -0.07600
C 	C 	0.34220 0.17950 0.01420 0.07800
H 	H 	0.37030 0.14430 0.04260 -0.00500
C 	C 	0.48450 0.15730 0.91450 -0.09800
H 	H 	0.52390 0.12800 0.94930 0.07400
H 	H 	0.54820 0.18920 0.90060 0.08000
C 	C 	0.45270 0.11580 0.85190 -0.05000
H 	H 	0.39610 0.14130 0.82130 0.05600
H 	H 	0.40690 0.07660 0.86740 0.00200
C 	C 	0.56370 0.09250 0.80870 -0.08700
H 	H 	0.54670 0.04700 0.79310 -0.01400
H 	H 	0.63800 0.09100 0.83940 0.11400
C 	C 	0.42140 0.20620 0.69420 0.09300
H 	H 	0.45150 0.24640 0.71260 0.01300
C 	C 	0.40770 0.10010 0.66990 -0.00200
H 	H 	0.42450 0.05440 0.66740 0.06100
C 	C 	0.30770 0.13260 0.64160 -0.00000
H 	H 	0.24240 0.11240 0.61590 0.04800
N 	N 	0.82330 0.06317 0.21770 -0.23800
N 	N 	0.96830 0.98740 0.24030 -0.10900
N 	N 	0.11760 0.74980 0.14720 -0.10200
N 	N 	0.24960 0.67860 0.19600 -0.22000
N 	N 	0.47970 0.14790 0.70330 -0.12800
N 	N 	0.31610 0.20070 0.65610 -0.23300
O 	O 	0.71730 0.19792 0.16086 -0.42200
O 	O 	0.67560 0.16285 0.05230 -0.29500
O 	O 	0.06060 0.30660 0.10420 -0.39900
O 	O 	0.97190 0.21003 0.08530 -0.33800
O 	O 	0.51620 0.65654 0.24420 -0.36800
O 	O 	0.44400 0.55913 0.20872 -0.38000
O 	O 	0.74220 0.64076 0.32720 -0.38500
O 	O 	0.85640 0.70737 0.26560 -0.38400
O 	O 	0.63100 0.50975 0.96697 -0.22200
O 	O 	0.86460 0.50370 0.96339 -0.22400
H 	H 	0.99030 0.91440 0.31180 0.06800
H 	H 	0.11640 0.95210 0.29610 0.04100
H 	H 	0.93360 0.76170 0.12410 0.02100
H 	H 	0.01730 0.81910 0.09430 0.04500
C 	C 	0.07770 0.87760 0.22450 0.05400
H 	H 	0.13590 0.84750 0.24880 0.00100
H 	H 	0.12130 0.89680 0.18490 0.00000
C 	C 	0.96380 0.83780 0.19720 -0.18000
H 	H 	0.89830 0.86840 0.18100 0.07600
H 	H 	0.93020 0.81100 0.23510 0.07400
H 	H 	0.36010 0.27430 0.88970 0.02000
H 	H 	0.64510 0.17520 0.74370 0.02900
H 	H 	0.64180 0.10080 0.71910 0.00100
N 	N 	0.31710 0.17810 0.92430 -0.06000
C 	C 	0.28230 0.16610 0.99160 -0.00300
H 	H 	0.27860 0.12330 0.01070 0.02000
C 	C 	0.36950 0.12920 0.87150 -0.10800
H 	H 	0.31770 0.12780 0.82870 0.04200
H 	H 	0.37630 0.08450 0.89110 0.06600
C 	C 	0.49890 0.15910 0.85800 0.10600
H 	H 	0.53770 0.17200 0.90270 -0.03300
H 	H 	0.48820 0.19940 0.82990 0.00100
C 	C 	0.58700 0.11200 0.82040 -0.20000
H 	H 	0.55540 0.06650 0.82250 0.12800
H 	H 	0.67040 0.11310 0.84270 0.00300
Ni	Ni	0.81535 0.73229 0.37298 1.09100
Ni	Ni	0.33206 0.62160 0.27412 1.07900
S 	S 	0.25001 0.99339 0.49969 0.28100
C 	C 	0.27360 0.77690 0.42900 -0.07100
C 	C 	0.15610 0.80820 0.43200 -0.02600
C 	C 	0.14900 0.87430 0.45380 -0.04800
H 	H 	0.07100 0.89560 0.45650 0.07300
C 	C 	0.25900 0.90860 0.47160 -0.00800
C 	C 	0.37490 0.87830 0.46890 -0.06800
H 	H 	0.44800 0.90210 0.48030 0.07900
C 	C 	0.38170 0.81240 0.44910 0.00500
H 	H 	0.45980 0.79110 0.44920 0.03600
C 	C 	0.24030 0.03880 0.42030 -0.01200
C 	C 	0.12370 0.06380 0.39540 -0.06600
H 	H 	0.04990 0.05560 0.41980 0.08100
C 	C 	0.12150 0.10060 0.33440 0.00000
H 	H 	0.04440 0.11750 0.31820 0.04500
C 	C 	0.22830 0.11390 0.29540 -0.06200
C 	C 	0.34420 0.08760 0.32000 -0.02800
C 	C 	0.34930 0.05020 0.38240 -0.04900
H 	H 	0.42610 0.03290 0.39860 0.07800
C 	C 	0.29360 0.70610 0.40320 0.35900
C 	C 	0.03430 0.77170 0.41330 0.29800
C 	C 	0.46860 0.10150 0.28690 0.28100
C 	C 	0.21180 0.15600 0.22970 0.31900
C 	C 	0.14120 0.51390 0.24080 0.08700
H 	H 	0.18720 0.49910 0.20250 0.00400
C 	C 	0.08120 0.56970 0.33000 -0.00300
H 	H 	0.07830 0.60140 0.36580 0.04000
C 	C 	0.99370 0.52340 0.31650 -0.00400
H 	H 	0.92000 0.51670 0.34140 0.03700
C 	C 	0.95960 0.43330 0.22550 -0.11100
H 	H 	0.97730 0.43280 0.17560 0.01600
H 	H 	0.87000 0.44170 0.23050 0.03700
C 	C 	0.99630 0.29130 0.36470 -0.11700
H 	H 	0.06690 0.27170 0.34030 0.07900
H 	H 	0.01740 0.29250 0.41460 0.03800
C 	C 	0.99310 0.36410 0.25790 -0.10200
H 	H 	0.94070 0.33000 0.23570 0.05900
H 	H 	0.08060 0.35370 0.24840 0.05600
C 	C 	0.97370 0.36270 0.33780 0.05500
H 	H 	0.88840 0.37670 0.34820 0.00500
H 	H 	0.03220 0.39330 0.36110 0.00500
C 	C 	0.85780 0.21090 0.29630 0.08600
H 	H 	0.90930 0.20730 0.25740 0.01200
C 	C 	0.78340 0.24410 0.39770 -0.01900
H 	H 	0.77310 0.26680 0.44010 0.05600
C 	C 	0.70400 0.19890 0.36790 0.02400
H 	H 	0.62940 0.18380 0.38750 0.02700
N 	N 	0.74690 0.72280 0.47090 -0.23200
C 	C 	0.74450 0.76990 0.52200 0.01200
H 	H 	0.78260 0.81180 0.51920 0.03100
C 	C 	0.67980 0.74790 0.57710 0.00500
H 	H 	0.67920 0.76440 0.62290 0.02600
C 	C 	0.40520 0.63470 0.75590 0.04900
H 	H 	0.36700 0.67660 0.74100 -0.00300
H 	H 	0.34530 0.61100 0.78470 0.02000
N 	N 	0.61540 0.69540 0.54920 -0.07700
C 	C 	0.65780 0.67950 0.48580 0.08500
H 	H 	0.62970 0.64430 0.45740 -0.00700
C 	C 	0.51550 0.65730 0.58550 -0.09800
H 	H 	0.47610 0.62800 0.55070 0.07400
H 	H 	0.45180 0.68920 0.59940 0.08000
C 	C 	0.54730 0.61580 0.64810 -0.05100
H 	H 	0.60390 0.64130 0.67870 0.05700
H 	H 	0.59310 0.57660 0.63260 0.00300
C 	C 	0.43630 0.59250 0.69130 -0.08700
H 	H 	0.45330 0.54700 0.70690 -0.01400
H 	H 	0.36200 0.59100 0.66060 0.11500
C 	C 	0.57860 0.70620 0.80580 0.09300
H 	H 	0.54850 0.74640 0.78740 0.01300
C 	C 	0.59230 0.60010 0.83010 -0.00200
H 	H 	0.57550 0.55440 0.83260 0.06100
C 	C 	0.69230 0.63260 0.85840 0.00000
H 	H 	0.75760 0.61240 0.88410 0.04800
N 	N 	0.17670 0.56317 0.28230 -0.23800
N 	N 	0.03170 0.48740 0.25970 -0.10900
N 	N 	0.88240 0.24980 0.35280 -0.10200
N 	N 	0.75040 0.17860 0.30400 -0.22000
N 	N 	0.52030 0.64790 0.79670 -0.12800
N 	N 	0.68390 0.70070 0.84390 -0.23300
O 	O 	0.28270 0.69792 0.33914 -0.42200
O 	O 	0.32440 0.66285 0.44770 -0.29500
O 	O 	0.93940 0.80660 0.39580 -0.40000
O 	O 	0.02810 0.71003 0.41470 -0.33700
O 	O 	0.48380 0.15654 0.25580 -0.36800
O 	O 	0.55600 0.05913 0.29128 -0.38100
O 	O 	0.25780 0.14076 0.17280 -0.38500
O 	O 	0.14360 0.20737 0.23440 -0.38400
O 	O 	0.36900 0.00975 0.53303 -0.22200
O 	O 	0.13540 0.00370 0.53661 -0.22400
H 	H 	0.00970 0.41440 0.18820 0.06900
H 	H 	0.88360 0.45210 0.20390 0.04000
H 	H 	0.06640 0.26170 0.37590 0.02200
H 	H 	0.98270 0.31910 0.40570 0.04600
C 	C 	0.92230 0.37760 0.27550 0.04300
H 	H 	0.86410 0.34750 0.25120 0.00500
H 	H 	0.87870 0.39680 0.31510 0.00400
C 	C 	0.03620 0.33780 0.30280 -0.16600
H 	H 	0.10170 0.36840 0.31900 0.07200
H 	H 	0.06980 0.31100 0.26490 0.07000
H 	H 	0.63990 0.77430 0.61030 0.02000
H 	H 	0.35490 0.67520 0.75630 0.02900
H 	H 	0.35820 0.60080 0.78090 0.00100
N 	N 	0.68290 0.67810 0.57570 -0.05900
C 	C 	0.71770 0.66610 0.50840 -0.00900
H 	H 	0.72140 0.62330 0.48930 0.02100
C 	C 	0.63050 0.62920 0.62850 -0.10800
H 	H 	0.68230 0.62780 0.67130 0.04200
H 	H 	0.62370 0.58450 0.60890 0.06600
C 	C 	0.50110 0.65910 0.64200 0.10700
H 	H 	0.46230 0.67200 0.59730 -0.03300
H 	H 	0.51180 0.69940 0.67010 0.00100
C 	C 	0.41300 0.61200 0.67960 -0.20000
H 	H 	0.44460 0.56650 0.67750 0.12800
H 	H 	0.32960 0.61310 0.65730 0.00300
Ni	Ni	0.81535 0.76771 0.87298 1.09200
Ni	Ni	0.33206 0.87840 0.77412 1.07900
S 	S 	0.25001 0.50661 0.99969 0.28100
C 	C 	0.27360 0.72310 0.92900 -0.07100
C 	C 	0.15610 0.69180 0.93200 -0.02600
C 	C 	0.14900 0.62570 0.95380 -0.04800
H 	H 	0.07100 0.60440 0.95650 0.07300
C 	C 	0.25900 0.59140 0.97160 -0.00800
C 	C 	0.37490 0.62170 0.96890 -0.06800
H 	H 	0.44800 0.59790 0.98030 0.07900
C 	C 	0.38170 0.68760 0.94910 0.00500
H 	H 	0.45980 0.70890 0.94920 0.03600
C 	C 	0.24030 0.46120 0.92030 -0.01300
C 	C 	0.12370 0.43620 0.89540 -0.06600
H 	H 	0.04990 0.44440 0.91980 0.08100
C 	C 	0.12150 0.39940 0.83440 0.00000
H 	H 	0.04440 0.38250 0.81820 0.04400
C 	C 	0.22830 0.38610 0.79540 -0.06200
C 	C 	0.34420 0.41240 0.82000 -0.02800
C 	C 	0.34930 0.44980 0.88240 -0.04900
H 	H 	0.42610 0.46710 0.89860 0.07800
C 	C 	0.29360 0.79390 0.90320 0.35900
C 	C 	0.03430 0.72830 0.91330 0.29800
C 	C 	0.46860 0.39850 0.78690 0.28100
C 	C 	0.21180 0.34400 0.72970 0.31900
C 	C 	0.14120 0.98610 0.74080 0.08500
H 	H 	0.18720 0.00090 0.70250 0.00500
C 	C 	0.08120 0.93030 0.83000 -0.00700
H 	H 	0.07830 0.89860 0.86580 0.04100
C 	C 	0.99370 0.97660 0.81650 -0.00000
H 	H 	0.92000 0.98330 0.84140 0.03600
C 	C 	0.95960 0.06670 0.72550 -0.11200
H 	H 	0.97730 0.06720 0.67560 0.01700
H 	H 	0.87000 0.05830 0.73050 0.03600
C 	C 	0.99630 0.20870 0.86470 -0.11300
H 	H 	0.06690 0.22830 0.84030 0.07900
H 	H 	0.01740 0.20750 0.91460 0.03700
C 	C 	0.99310 0.13590 0.75790 -0.10900
H 	H 	0.94070 0.17000 0.73570 0.06200
H 	H 	0.08060 0.14630 0.74840 0.05900
C 	C 	0.97370 0.13730 0.83780 0.06600
H 	H 	0.88840 0.12330 0.84820 0.00300
H 	H 	0.03220 0.10670 0.86110 0.00100
C 	C 	0.85780 0.28910 0.79630 0.08600
H 	H 	0.90930 0.29270 0.75740 0.01200
C 	C 	0.78340 0.25590 0.89770 -0.01900
H 	H 	0.77310 0.23320 0.94010 0.05600
C 	C 	0.70400 0.30110 0.86790 0.02400
H 	H 	0.62940 0.31620 0.88750 0.02700
N 	N 	0.74690 0.77720 0.97090 -0.23200
C 	C 	0.74450 0.73010 0.02200 0.01100
H 	H 	0.78260 0.68820 0.01920 0.03100
C 	C 	0.67980 0.75210 0.07710 0.00500
H 	H 	0.67920 0.73560 0.12290 0.02600
C 	C 	0.40520 0.86530 0.25590 0.04900
H 	H 	0.36700 0.82340 0.24100 -0.00300
H 	H 	0.34530 0.88900 0.28470 0.02000
N 	N 	0.61540 0.80460 0.04920 -0.07600
C 	C 	0.65780 0.82050 0.98580 0.07800
H 	H 	0.62970 0.85570 0.95740 -0.00500
C 	C 	0.51550 0.84270 0.08550 -0.09800
H 	H 	0.47610 0.87200 0.05070 0.07400
H 	H 	0.45180 0.81080 0.09940 0.08000
C 	C 	0.54730 0.88420 0.14810 -0.05000
H 	H 	0.60390 0.85870 0.17870 0.05600
H 	H 	0.59310 0.92340 0.13260 0.00200
C 	C 	0.43630 0.90750 0.19130 -0.08700
H 	H 	0.45330 0.95300 0.20690 -0.01400
H 	H 	0.36200 0.90900 0.16060 0.11400
C 	C 	0.57860 0.79380 0.30580 0.09300
H 	H 	0.54850 0.75360 0.28740 0.01300
C 	C 	0.59230 0.89990 0.33010 -0.00200
H 	H 	0.57550 0.94560 0.33260 0.06100
C 	C 	0.69230 0.86740 0.35840 -0.00000
H 	H 	0.75760 0.88760 0.38410 0.04800
N 	N 	0.17670 0.93683 0.78230 -0.23800
N 	N 	0.03170 0.01260 0.75970 -0.10900
N 	N 	0.88240 0.25020 0.85280 -0.10200
N 	N 	0.75040 0.32140 0.80400 -0.22000
N 	N 	0.52030 0.85210 0.29670 -0.12800
N 	N 	0.68390 0.79930 0.34390 -0.23300
O 	O 	0.28270 0.80208 0.83914 -0.42200
O 	O 	0.32440 0.83715 0.94770 -0.29500
O 	O 	0.93940 0.69340 0.89580 -0.39900
O 	O 	0.02810 0.78997 0.91470 -0.33800
O 	O 	0.48380 0.34346 0.75580 -0.36800
O 	O 	0.55600 0.44087 0.79128 -0.38000
O 	O 	0.25780 0.35924 0.67280 -0.38500
O 	O 	0.14360 0.29263 0.73440 -0.38400
O 	O 	0.36900 0.49025 0.03303 -0.22200
O 	O 	0.13540 0.49630 0.03661 -0.22400
H 	H 	0.00970 0.08560 0.68820 0.06800
H 	H 	0.88360 0.04790 0.70390 0.04100
H 	H 	0.06640 0.23830 0.87590 0.02100
H 	H 	0.98270 0.18090 0.90570 0.04500
C 	C 	0.92230 0.12240 0.77550 0.05400
H 	H 	0.86410 0.15250 0.75120 0.00100
H 	H 	0.87870 0.10320 0.81510 0.00000
C 	C 	0.03620 0.16220 0.80280 -0.18000
H 	H 	0.10170 0.13160 0.81900 0.07600
H 	H 	0.06980 0.18900 0.76490 0.07400
H 	H 	0.63990 0.72570 0.11030 0.02000
H 	H 	0.35490 0.82480 0.25630 0.02900
H 	H 	0.35820 0.89920 0.28090 0.00100
N 	N 	0.68290 0.82190 0.07570 -0.06000
C 	C 	0.71770 0.83390 0.00840 -0.00300
H 	H 	0.72140 0.87670 0.98930 0.02000
C 	C 	0.63050 0.87080 0.12850 -0.10800
H 	H 	0.68230 0.87220 0.17130 0.04200
H 	H 	0.62370 0.91550 0.10890 0.06600
C 	C 	0.50110 0.84090 0.14200 0.10600
H 	H 	0.46230 0.82800 0.09730 -0.03300
H 	H 	0.51180 0.80060 0.17010 0.00100
C 	C 	0.41300 0.88800 0.17960 -0.20000
H 	H 	0.44460 0.93350 0.17750 0.12800
H 	H 	0.32960 0.88690 0.15730 0.00300
Ni	Ni	0.18465 0.26771 0.62702 1.09100
Ni	Ni	0.66794 0.37840 0.72588 1.07900
S 	S 	0.74999 0.00661 0.50031 0.28100
C 	C 	0.72640 0.22310 0.57100 -0.07100
C 	C 	0.84390 0.19180 0.56800 -0.02600
C 	C 	0.85100 0.12570 0.54620 -0.04800
H 	H 	0.92900 0.10440 0.54350 0.07300
C 	C 	0.74100 0.09140 0.52840 -0.00800
C 	C 	0.62510 0.12170 0.53110 -0.06800
H 	H 	0.55200 0.09790 0.51970 0.07900
C 	C 	0.61830 0.18760 0.55090 0.00500
H 	H 	0.54020 0.20890 0.55080 0.03600
C 	C 	0.75970 0.96120 0.57970 -0.01200
C 	C 	0.87630 0.93620 0.60460 -0.06600
H 	H 	0.95010 0.94440 0.58020 0.08100
C 	C 	0.87850 0.89940 0.66560 0.00000
H 	H 	0.95560 0.88250 0.68180 0.04500
C 	C 	0.77170 0.88610 0.70460 -0.06200
C 	C 	0.65580 0.91240 0.68000 -0.02800
C 	C 	0.65070 0.94980 0.61760 -0.04900
H 	H 	0.57390 0.96710 0.60140 0.07800
C 	C 	0.70640 0.29390 0.59680 0.35900
C 	C 	0.96570 0.22830 0.58670 0.29800
C 	C 	0.53140 0.89850 0.71310 0.28100
C 	C 	0.78820 0.84400 0.77030 0.31900
C 	C 	0.85880 0.48610 0.75920 0.08700
H 	H 	0.81280 0.50090 0.79750 0.00400
C 	C 	0.91880 0.43030 0.67000 -0.00300
H 	H 	0.92170 0.39860 0.63420 0.04000
C 	C 	0.00630 0.47660 0.68350 -0.00400
H 	H 	0.08000 0.48330 0.65860 0.03700
C 	C 	0.04040 0.56670 0.77450 -0.11100
H 	H 	0.02270 0.56720 0.82440 0.01600
H 	H 	0.13000 0.55830 0.76950 0.03700
C 	C 	0.00370 0.70870 0.63530 -0.11700
H 	H 	0.93310 0.72830 0.65970 0.07900
H 	H 	0.98260 0.70750 0.58540 0.03800
C 	C 	0.00690 0.63590 0.74210 -0.10200
H 	H 	0.05930 0.67000 0.76430 0.05900
H 	H 	0.91940 0.64630 0.75160 0.05600
C 	C 	0.02630 0.63730 0.66220 0.05500
H 	H 	0.11160 0.62330 0.65180 0.00500
H 	H 	0.96780 0.60670 0.63890 0.00500
C 	C 	0.14220 0.78910 0.70370 0.08600
H 	H 	0.09070 0.79270 0.74260 0.01200
C 	C 	0.21660 0.75590 0.60230 -0.01900
H 	H 	0.22690 0.73320 0.55990 0.05600
C 	C 	0.29600 0.80110 0.63210 0.02400
H 	H 	0.37060 0.81620 0.61250 0.02700
N 	N 	0.25310 0.27720 0.52910 -0.23200
C 	C 	0.25550 0.23010 0.47800 0.01200
H 	H 	0.21740 0.18820 0.48080 0.03100
C 	C 	0.32020 0.25210 0.42290 0.00500
H 	H 	0.32080 0.23560 0.37710 0.02600
C 	C 	0.59480 0.36530 0.24410 0.04900
H 	H 	0.63300 0.32340 0.25900 -0.00300
H 	H 	0.65470 0.38900 0.21530 0.02000
N 	N 	0.38460 0.30460 0.45080 -0.07700
C 	C 	0.34220 0.32050 0.51420 0.08500
H 	H 	0.37030 0.35570 0.54260 -0.00700
C 	C 	0.48450 0.34270 0.41450 -0.09800
H 	H 	0.52390 0.37200 0.44930 0.07400
H 	H 	0.54820 0.31080 0.40060 0.08000
C 	C 	0.45270 0.38420 0.35190 -0.05100
H 	H 	0.39610 0.35870 0.32130 0.05700
H 	H 	0.40690 0.42340 0.36740 0.00300
C 	C 	0.56370 0.40750 0.30870 -0.08700
H 	H 	0.54670 0.45300 0.29310 -0.01400
H 	H 	0.63800 0.40900 0.33940 0.11500
C 	C 	0.42140 0.29380 0.19420 0.09300
H 	H 	0.45150 0.25360 0.21260 0.01300
C 	C 	0.40770 0.39990 0.16990 -0.00200
H 	H 	0.42450 0.44560 0.16740 0.06100
C 	C 	0.30770 0.36740 0.14160 0.00000
H 	H 	0.24240 0.38760 0.11590 0.04800
N 	N 	0.82330 0.43683 0.71770 -0.23800
N 	N 	0.96830 0.51260 0.74030 -0.10900
N 	N 	0.11760 0.75020 0.64720 -0.10200
N 	N 	0.24960 0.82140 0.69600 -0.22000
N 	N 	0.47970 0.35210 0.20330 -0.12800
N 	N 	0.31610 0.29930 0.15610 -0.23300
O 	O 	0.71730 0.30208 0.66086 -0.42200
O 	O 	0.67560 0.33715 0.55230 -0.29500
O 	O 	0.06060 0.19340 0.60420 -0.40000
O 	O 	0.97190 0.28997 0.58530 -0.33700
O 	O 	0.51620 0.84346 0.74420 -0.36800
O 	O 	0.44400 0.94087 0.70872 -0.38100
O 	O 	0.74220 0.85924 0.82720 -0.38500
O 	O 	0.85640 0.79263 0.76560 -0.38400
O 	O 	0.63100 0.99025 0.46697 -0.22200
O 	O 	0.86460 0.99630 0.46339 -0.22400
H 	H 	0.99030 0.58560 0.81180 0.06900
H 	H 	0.11640 0.54790 0.79610 0.04000
H 	H 	0.93360 0.73830 0.62410 0.02200
H 	H 	0.01730 0.68090 0.59430 0.04600
C 	C 	0.07770 0.62240 0.72450 0.04300
H 	H 	0.13590 0.65250 0.74880 0.00500
H 	H 	0.12130 0.60320 0.68490 0.00400
C 	C 	0.96380 0.66220 0.69720 -0.16600
H 	H 	0.89830 0.63160 0.68100 0.07200
H 	H 	0.93020 0.68900 0.73510 0.07000
H 	H 	0.36010 0.22570 0.38970 0.02000
H 	H 	0.64510 0.32480 0.24370 0.02900
H 	H 	0.64180 0.39920 0.21910 0.00100
N 	N 	0.31710 0.32190 0.42430 -0.05900
C 	C 	0.28230 0.33390 0.49160 -0.00900
H 	H 	0.27860 0.37670 0.51070 0.02100
C 	C 	0.36950 0.37080 0.37150 -0.10800
H 	H 	0.31770 0.37220 0.32870 0.04200
H 	H 	0.37630 0.41550 0.39110 0.06600
C 	C 	0.49890 0.34090 0.35800 0.10700
H 	H 	0.53770 0.32800 0.40270 -0.03300
H 	H 	0.48820 0.30060 0.32990 0.00100
C 	C 	0.58700 0.38800 0.32040 -0.20000
H 	H 	0.55540 0.43350 0.32250 0.12800
H 	H 	0.67040 0.38690 0.34270 0.00300
