data_crystal

_cell_length_a 15.92930
_cell_length_b 10.92220
_cell_length_c 15.88030
_cell_angle_alpha 90.00000
_cell_angle_beta  115.24600
_cell_angle_gamma 90.00000

_symmetry_space_group_name_	'P 1'
_symmetry_space_group_name_H-M	'P 1'

loop_
_symmetry_equiv_pos_as_xyz
  x,y,z

loop_
_atom_site_label
_atom_site_type_symbol
_atom_site_fract_x
_atom_site_fract_y
_atom_site_fract_z
_atom_site_charge
Zn	Zn	0.29577 0.41718 0.28847 1.23500
O 	O 	0.27302 0.53160 0.36995 -0.46200
O 	O 	0.16233 0.66860 0.32703 -0.26400
O 	O 	0.18030 0.95000 0.59125 -0.26400
O 	O 	0.32167 0.99670 0.69629 -0.44300
O 	O 	0.59150 0.76990 0.72239 -0.29000
O 	O 	0.58244 0.63516 0.61594 -0.41900
N 	N 	0.19506 0.29317 0.23822 -0.18000
N 	N 	0.14321 0.25890 0.28000 -0.04200
N 	N 	0.08273 0.17550 0.22665 -0.07200
N 	N 	0.17076 0.23315 0.15724 -0.08800
C 	C 	0.23907 0.62950 0.37944 0.39900
C 	C 	0.29666 0.70110 0.46640 -0.11800
C 	C 	0.25566 0.78710 0.50152 0.05400
H 	H 	0.19200 0.80070 0.47140 0.05000
C 	C 	0.30943 0.85320 0.58179 -0.09900
C 	C 	0.40403 0.83270 0.62561 0.04500
H 	H 	0.44030 0.87850 0.67790 0.05400
C 	C 	0.44583 0.74500 0.59282 -0.09500
C 	C 	0.39170 0.67960 0.51263 0.05400
H 	H 	0.41920 0.62130 0.48980 0.04700
C 	C 	0.26476 0.93960 0.62486 0.35900
C 	C 	0.54697 0.71650 0.64738 0.33200
C 	C 	0.10102 0.16220 0.15229 0.12700
C 	C 	0.04975 0.07770 0.07440 0.00900
C 	C 	0.96110 0.04040 0.05783 -0.03300
H 	H 	0.93430 0.06720 0.09630 0.07700
C 	C 	0.91209 0.96280 0.98371 -0.03800
H 	H 	0.85260 0.93790 0.97320 0.06800
Zn	Zn	0.70423 0.91718 0.21153 1.23400
O 	O 	0.72698 0.03160 0.13005 -0.45800
O 	O 	0.83767 0.16860 0.17297 -0.26200
O 	O 	0.81970 0.45000 0.90875 -0.26400
O 	O 	0.67833 0.49670 0.80371 -0.44400
O 	O 	0.40850 0.26990 0.77761 -0.29000
O 	O 	0.41756 0.13516 0.88406 -0.42000
N 	N 	0.80494 0.79317 0.26178 -0.18100
N 	N 	0.85679 0.75890 0.22000 -0.04300
N 	N 	0.91727 0.67550 0.27335 -0.07200
N 	N 	0.82924 0.73315 0.34276 -0.08900
C 	C 	0.76093 0.12950 0.12056 0.39400
C 	C 	0.70334 0.20110 0.03360 -0.10500
C 	C 	0.74434 0.28710 0.99848 0.04200
H 	H 	0.80800 0.30070 0.02860 0.05500
C 	C 	0.69057 0.35320 0.91821 -0.09300
C 	C 	0.59597 0.33270 0.87439 0.03900
H 	H 	0.55970 0.37850 0.82210 0.05600
C 	C 	0.55417 0.24500 0.90718 -0.08800
C 	C 	0.60830 0.17960 0.98737 0.03800
H 	H 	0.58080 0.12130 0.01020 0.05400
C 	C 	0.73524 0.43960 0.87514 0.35700
C 	C 	0.45303 0.21650 0.85262 0.33000
C 	C 	0.89898 0.66220 0.34771 0.12600
C 	C 	0.95025 0.57770 0.42560 0.01200
C 	C 	0.03890 0.54040 0.44217 -0.04200
H 	H 	0.06570 0.56720 0.40370 0.07900
C 	C 	0.08791 0.46280 0.51629 -0.03400
H 	H 	0.14740 0.43790 0.52680 0.06600
Zn	Zn	0.70423 0.58282 0.71153 1.23500
O 	O 	0.72698 0.46840 0.63005 -0.46200
O 	O 	0.83767 0.33140 0.67297 -0.26400
O 	O 	0.81970 0.05000 0.40875 -0.26400
O 	O 	0.67833 0.00330 0.30371 -0.44300
O 	O 	0.40850 0.23010 0.27761 -0.29000
O 	O 	0.41756 0.36484 0.38406 -0.41900
N 	N 	0.80494 0.70683 0.76178 -0.18000
N 	N 	0.85679 0.74110 0.72000 -0.04200
N 	N 	0.91727 0.82450 0.77335 -0.07200
N 	N 	0.82924 0.76685 0.84276 -0.08800
C 	C 	0.76093 0.37050 0.62056 0.39900
C 	C 	0.70334 0.29890 0.53360 -0.11800
C 	C 	0.74434 0.21290 0.49848 0.05400
H 	H 	0.80800 0.19930 0.52860 0.05000
C 	C 	0.69057 0.14680 0.41821 -0.09900
C 	C 	0.59597 0.16730 0.37439 0.04500
H 	H 	0.55970 0.12150 0.32210 0.05400
C 	C 	0.55417 0.25500 0.40718 -0.09500
C 	C 	0.60830 0.32040 0.48737 0.05400
H 	H 	0.58080 0.37870 0.51020 0.04700
C 	C 	0.73524 0.06040 0.37514 0.35900
C 	C 	0.45303 0.28350 0.35262 0.33200
C 	C 	0.89898 0.83780 0.84771 0.12700
C 	C 	0.95025 0.92230 0.92560 0.00900
C 	C 	0.03890 0.95960 0.94217 -0.03300
H 	H 	0.06570 0.93280 0.90370 0.07700
C 	C 	0.08791 0.03720 0.01629 -0.03800
H 	H 	0.14740 0.06210 0.02680 0.06800
Zn	Zn	0.29577 0.08282 0.78847 1.23400
O 	O 	0.27302 0.96840 0.86995 -0.45800
O 	O 	0.16233 0.83140 0.82703 -0.26200
O 	O 	0.18030 0.55000 0.09125 -0.26400
O 	O 	0.32167 0.50330 0.19629 -0.44400
O 	O 	0.59150 0.73010 0.22239 -0.29000
O 	O 	0.58244 0.86484 0.11594 -0.42000
N 	N 	0.19506 0.20683 0.73822 -0.18100
N 	N 	0.14321 0.24110 0.78000 -0.04300
N 	N 	0.08273 0.32450 0.72665 -0.07200
N 	N 	0.17076 0.26685 0.65724 -0.08900
C 	C 	0.23907 0.87050 0.87944 0.39400
C 	C 	0.29666 0.79890 0.96640 -0.10500
C 	C 	0.25566 0.71290 0.00152 0.04200
H 	H 	0.19200 0.69930 0.97140 0.05500
C 	C 	0.30943 0.64680 0.08179 -0.09300
C 	C 	0.40403 0.66730 0.12561 0.03900
H 	H 	0.44030 0.62150 0.17790 0.05600
C 	C 	0.44583 0.75500 0.09282 -0.08800
C 	C 	0.39170 0.82040 0.01263 0.03800
H 	H 	0.41920 0.87870 0.98980 0.05400
C 	C 	0.26476 0.56040 0.12486 0.35700
C 	C 	0.54697 0.78350 0.14738 0.33000
C 	C 	0.10102 0.33780 0.65229 0.12600
C 	C 	0.04975 0.42230 0.57440 0.01200
C 	C 	0.96110 0.45960 0.55783 -0.04200
H 	H 	0.93430 0.43280 0.59630 0.07900
C 	C 	0.91209 0.53720 0.48371 -0.03400
H 	H 	0.85260 0.56210 0.47320 0.06600
