data_crystal

_cell_length_a 10.78100
_cell_length_b 13.90300
_cell_length_c 18.74000
_cell_angle_alpha 90.00000
_cell_angle_beta  98.17000
_cell_angle_gamma 90.00000

_symmetry_space_group_name_	'P 1'
_symmetry_space_group_name_H-M	'P 1'

loop_
_symmetry_equiv_pos_as_xyz
  x,y,z

loop_
_atom_site_label
_atom_site_type_symbol
_atom_site_fract_x
_atom_site_fract_y
_atom_site_fract_z
_atom_site_charge
Ni	Ni	0.60570 0.73079 0.47625 1.14900
C 	C 	0.99905 0.75702 0.96611 -0.05400
C 	C 	0.10848 0.81053 0.98160 0.03900
H 	H 	0.10410 0.87770 0.99040 0.08000
C 	C 	0.22437 0.76584 0.98423 -0.07900
C 	C 	0.23083 0.66763 0.97138 0.03100
H 	H 	0.31000 0.63710 0.97320 0.07100
C 	C 	0.12141 0.61411 0.95588 -0.04800
C 	C 	0.00552 0.65881 0.95325 0.02600
H 	H 	0.93070 0.62220 0.94270 0.08200
C 	C 	0.87461 0.80429 0.97253 0.34900
C 	C 	0.34700 0.81841 0.99522 0.40100
C 	C 	0.12800 0.50852 0.94220 0.28400
O 	O 	0.77689 0.75848 0.94362 -0.33200
O 	O 	0.87222 0.88267 0.00441 -0.23800
O 	O 	0.34780 0.90793 0.98495 -0.35300
O 	O 	0.44118 0.76547 0.01307 -0.43200
O 	O 	0.24047 0.47191 0.96774 -0.17200
O 	O 	0.04346 0.46096 0.91150 -0.19700
C 	C 	0.52629 0.98160 0.33146 -0.03600
C 	C 	0.52825 0.99224 0.25787 0.07100
H 	H 	0.56720 0.94480 0.23210 0.06800
C 	C 	0.47347 0.07183 0.22234 -0.11500
C 	C 	0.42044 0.14309 0.26037 0.03000
H 	H 	0.38550 0.19890 0.23600 0.06700
C 	C 	0.41856 0.13272 0.33398 -0.05100
C 	C 	0.46971 0.05110 0.36957 -0.02000
H 	H 	0.46610 0.04280 0.41960 0.07500
C 	C 	0.59172 0.89932 0.37234 0.30900
C 	C 	0.46920 0.08395 0.14100 0.38300
C 	C 	0.36551 0.21399 0.37393 0.30700
O 	O 	0.55485 0.86516 0.42596 -0.32600
O 	O 	0.69276 0.86715 0.34666 -0.19200
O 	O 	0.47995 0.00897 0.10542 -0.41000
O 	O 	0.45855 0.16943 0.11916 -0.40900
O 	O 	0.36570 0.29690 0.34911 -0.21300
O 	O 	0.32520 0.19236 0.43304 -0.31600
O 	O 	0.64038 0.89704 0.03208 -0.33000
Ni	Ni	0.39430 0.23079 0.02375 1.13100
C 	C 	0.00095 0.25702 0.53389 -0.04300
C 	C 	0.89152 0.31053 0.51840 0.01900
H 	H 	0.89590 0.37770 0.50960 0.07400
C 	C 	0.77563 0.26584 0.51577 -0.06700
C 	C 	0.76917 0.16763 0.52862 0.00500
H 	H 	0.69000 0.13710 0.52680 0.06700
C 	C 	0.87859 0.11411 0.54412 -0.02600
C 	C 	0.99448 0.15881 0.54675 0.00100
H 	H 	0.06930 0.12220 0.55730 0.08000
C 	C 	0.12539 0.30429 0.52747 0.31100
C 	C 	0.65300 0.31841 0.50478 0.35900
C 	C 	0.87200 0.00852 0.55780 0.19900
O 	O 	0.22311 0.25848 0.55638 -0.33200
O 	O 	0.12778 0.38267 0.49559 -0.21700
O 	O 	0.65220 0.40793 0.51505 -0.36700
O 	O 	0.55882 0.26547 0.48693 -0.39600
O 	O 	0.75953 0.97191 0.53226 -0.14400
O 	O 	0.95654 0.96096 0.58850 -0.15700
C 	C 	0.47371 0.48160 0.16854 -0.06800
C 	C 	0.47175 0.49224 0.24213 0.02900
H 	H 	0.43280 0.44480 0.26790 0.07300
C 	C 	0.52653 0.57183 0.27766 -0.07200
C 	C 	0.57956 0.64309 0.23963 0.02400
H 	H 	0.61450 0.69890 0.26400 0.07100
C 	C 	0.58144 0.63272 0.16602 -0.05700
C 	C 	0.53029 0.55110 0.13043 0.02400
H 	H 	0.53390 0.54280 0.08040 0.06300
C 	C 	0.40828 0.39932 0.12766 0.31400
C 	C 	0.53080 0.58395 0.35900 0.37300
C 	C 	0.63449 0.71399 0.12607 0.31100
O 	O 	0.44515 0.36516 0.07404 -0.34400
O 	O 	0.30724 0.36715 0.15334 -0.20100
O 	O 	0.52005 0.50897 0.39458 -0.38400
O 	O 	0.54145 0.66943 0.38084 -0.40000
O 	O 	0.63430 0.79690 0.15089 -0.21000
O 	O 	0.67480 0.69236 0.06696 -0.32600
O 	O 	0.35962 0.39704 0.46792 -0.33500
Ni	Ni	0.39430 0.26921 0.52375 1.14800
C 	C 	0.00095 0.24298 0.03389 -0.05000
C 	C 	0.89152 0.18947 0.01840 0.01600
H 	H 	0.89590 0.12230 0.00960 0.06000
C 	C 	0.77563 0.23416 0.01577 -0.07000
C 	C 	0.76917 0.33237 0.02862 0.01500
H 	H 	0.69000 0.36290 0.02680 0.06000
C 	C 	0.87859 0.38589 0.04412 -0.05500
C 	C 	0.99448 0.34119 0.04675 0.01900
H 	H 	0.06930 0.37780 0.05730 0.07100
C 	C 	0.12539 0.19571 0.02747 0.26300
C 	C 	0.65300 0.18159 0.00478 0.31500
C 	C 	0.87200 0.49148 0.05780 0.28100
O 	O 	0.22311 0.24152 0.05638 -0.33100
O 	O 	0.12778 0.11733 0.99559 -0.17800
O 	O 	0.65220 0.09207 0.01505 -0.37600
O 	O 	0.55882 0.23453 0.98693 -0.35000
O 	O 	0.75953 0.52809 0.03226 -0.19600
O 	O 	0.95654 0.53904 0.08850 -0.21300
C 	C 	0.47371 0.01840 0.66854 -0.09000
C 	C 	0.47175 0.00776 0.74213 -0.00700
H 	H 	0.43280 0.05520 0.76790 0.08000
C 	C 	0.52653 0.92817 0.77766 -0.03400
C 	C 	0.57956 0.85691 0.73963 0.01600
H 	H 	0.61450 0.80110 0.76400 0.07500
C 	C 	0.58144 0.86728 0.66602 -0.05800
C 	C 	0.53029 0.94890 0.63043 0.05900
H 	H 	0.53390 0.95720 0.58040 0.06600
C 	C 	0.40828 0.10068 0.62766 0.31700
C 	C 	0.53080 0.91605 0.85900 0.36200
C 	C 	0.63449 0.78601 0.62607 0.31300
O 	O 	0.44515 0.13484 0.57404 -0.33800
O 	O 	0.30724 0.13285 0.65334 -0.20200
O 	O 	0.52005 0.99103 0.89458 -0.35200
O 	O 	0.54145 0.83057 0.88084 -0.39100
O 	O 	0.63430 0.70310 0.65089 -0.21300
O 	O 	0.67480 0.80764 0.56696 -0.31600
O 	O 	0.35962 0.10296 0.96792 -0.32200
Ni	Ni	0.60570 0.76921 0.97625 1.16100
C 	C 	0.99905 0.74298 0.46611 -0.04500
C 	C 	0.10848 0.68947 0.48160 0.02400
H 	H 	0.10410 0.62230 0.49040 0.07200
C 	C 	0.22437 0.73416 0.48423 -0.07600
C 	C 	0.23083 0.83237 0.47138 0.03300
H 	H 	0.31000 0.86290 0.47320 0.06800
C 	C 	0.12141 0.88589 0.45588 -0.06500
C 	C 	0.00552 0.84119 0.45325 0.01800
H 	H 	0.93070 0.87780 0.44270 0.08600
C 	C 	0.87461 0.69571 0.47253 0.31300
C 	C 	0.34700 0.68159 0.49522 0.36300
C 	C 	0.12800 0.99148 0.44220 0.35500
O 	O 	0.77689 0.74152 0.44362 -0.33100
O 	O 	0.87222 0.61733 0.50441 -0.21600
O 	O 	0.34780 0.59207 0.48495 -0.36800
O 	O 	0.44118 0.73453 0.51307 -0.39600
O 	O 	0.24047 0.02809 0.46774 -0.22200
O 	O 	0.04346 0.03904 0.41150 -0.25000
C 	C 	0.52629 0.51840 0.83146 -0.05800
C 	C 	0.52825 0.50776 0.75787 0.02400
H 	H 	0.56720 0.55520 0.73210 0.07600
C 	C 	0.47347 0.42817 0.72234 -0.06800
C 	C 	0.42044 0.35691 0.76037 0.02000
H 	H 	0.38550 0.30110 0.73600 0.07200
C 	C 	0.41856 0.36728 0.83398 -0.04900
C 	C 	0.46971 0.44890 0.86957 0.01800
H 	H 	0.46610 0.45720 0.91960 0.07800
C 	C 	0.59172 0.60068 0.87234 0.31100
C 	C 	0.46920 0.41605 0.64100 0.37200
C 	C 	0.36551 0.28601 0.87393 0.30700
O 	O 	0.55485 0.63484 0.92596 -0.32100
O 	O 	0.69276 0.63285 0.84666 -0.19400
O 	O 	0.47995 0.49103 0.60542 -0.38300
O 	O 	0.45855 0.33057 0.61916 -0.39900
O 	O 	0.36570 0.20310 0.84911 -0.21400
O 	O 	0.32520 0.30764 0.93304 -0.30200
O 	O 	0.64038 0.60296 0.53208 -0.33400
Ni	Ni	0.50000 0.00000 -0.00000 1.10800
Ni	Ni	0.50000 0.50000 0.50000 1.13700
