data_crystal

_cell_length_a 15.28300
_cell_length_b 24.90210
_cell_length_c 10.61680
_cell_angle_alpha 90.00000
_cell_angle_beta  90.00000
_cell_angle_gamma 90.00000

_symmetry_space_group_name_	'P 1'
_symmetry_space_group_name_H-M	'P 1'

loop_
_symmetry_equiv_pos_as_xyz
  x,y,z

loop_
_atom_site_label
_atom_site_type_symbol
_atom_site_fract_x
_atom_site_fract_y
_atom_site_fract_z
_atom_site_charge
O 	O 	0.64453 0.72684 0.60347 -0.36200
O 	O 	0.30426 0.84160 0.39620 -0.35900
O 	O 	0.63612 0.61959 0.28668 -0.43100
O 	O 	0.41379 0.62681 0.29060 -0.24300
O 	O 	0.27598 0.50488 0.28880 -0.25100
N 	N 	0.72873 0.62403 0.11510 -0.16900
N 	N 	0.60933 0.67462 0.11550 -0.16800
N 	N 	0.45101 0.67747 0.11520 -0.15300
N 	N 	0.32584 0.63241 0.11450 -0.14800
N 	N 	0.23320 0.55360 0.11510 -0.15000
N 	N 	0.20930 0.46587 0.11560 -0.15600
H 	H 	0.47070 0.77800 0.57570 0.10200
C 	C 	0.47240 0.88547 0.61850 -0.27700
H 	H 	0.44300 0.92090 0.62040 0.10400
H 	H 	0.45490 0.86530 0.69480 0.11800
C 	C 	0.57203 0.89338 0.61800 0.19700
H 	H 	0.59000 0.91360 0.69510 -0.03100
C 	C 	0.61630 0.83784 0.61750 -0.28100
H 	H 	0.68070 0.84230 0.61880 0.11900
H 	H 	0.59900 0.81770 0.69390 0.12100
C 	C 	0.65653 0.63788 0.18160 0.34100
C 	C 	0.53120 0.70062 0.16340 0.06300
H 	H 	0.53100 0.69810 0.25640 0.02400
H 	H 	0.53300 0.73920 0.14060 0.01400
C 	C 	0.39838 0.64392 0.18440 0.26700
C 	C 	0.25009 0.60630 0.16740 0.04500
H 	H 	0.19820 0.62930 0.15300 0.01800
H 	H 	0.25830 0.60290 0.25950 0.04000
C 	C 	0.24360 0.50755 0.18370 0.26900
C 	C 	0.20348 0.41128 0.16250 0.06500
H 	H 	0.20680 0.41200 0.25560 0.02000
H 	H 	0.14570 0.39630 0.13910 0.01300
O 	O 	0.35547 0.27316 0.60347 -0.36300
O 	O 	0.69574 0.15840 0.39620 -0.36000
O 	O 	0.36388 0.38041 0.28668 -0.43200
O 	O 	0.58621 0.37319 0.29060 -0.24400
O 	O 	0.72402 0.49512 0.28880 -0.25200
N 	N 	0.27127 0.37597 0.11510 -0.17000
N 	N 	0.39067 0.32538 0.11550 -0.16800
N 	N 	0.54899 0.32253 0.11520 -0.15300
N 	N 	0.67416 0.36759 0.11450 -0.14800
N 	N 	0.76680 0.44640 0.11510 -0.15000
N 	N 	0.79070 0.53413 0.11560 -0.15600
H 	H 	0.52930 0.22200 0.57570 0.10200
C 	C 	0.52760 0.11453 0.61850 -0.27700
H 	H 	0.55700 0.07910 0.62040 0.10400
H 	H 	0.54510 0.13470 0.69480 0.11800
C 	C 	0.42797 0.10662 0.61800 0.19700
H 	H 	0.41000 0.08640 0.69510 -0.03100
C 	C 	0.38370 0.16216 0.61750 -0.28100
H 	H 	0.31930 0.15770 0.61880 0.11900
H 	H 	0.40100 0.18230 0.69390 0.12100
C 	C 	0.34347 0.36212 0.18160 0.34100
C 	C 	0.46880 0.29938 0.16340 0.06300
H 	H 	0.46900 0.30190 0.25640 0.02400
H 	H 	0.46700 0.26080 0.14060 0.01400
C 	C 	0.60162 0.35608 0.18440 0.26700
C 	C 	0.74991 0.39370 0.16740 0.04500
H 	H 	0.80180 0.37070 0.15300 0.01800
H 	H 	0.74170 0.39710 0.25950 0.04000
C 	C 	0.75640 0.49245 0.18370 0.26900
C 	C 	0.79652 0.58872 0.16250 0.06500
H 	H 	0.79320 0.58800 0.25560 0.02000
H 	H 	0.85430 0.60370 0.13910 0.01300
O 	O 	0.85547 0.22684 0.39653 -0.36500
O 	O 	0.19574 0.34160 0.60380 -0.35800
O 	O 	0.86388 0.11959 0.71332 -0.43000
O 	O 	0.08621 0.12681 0.70940 -0.24200
O 	O 	0.22402 0.00488 0.71120 -0.25000
N 	N 	0.77127 0.12403 0.88490 -0.15200
N 	N 	0.89067 0.17462 0.88450 -0.15100
N 	N 	0.04899 0.17747 0.88480 -0.13600
N 	N 	0.17416 0.13241 0.88550 -0.13100
N 	N 	0.26680 0.05360 0.88490 -0.13200
N 	N 	0.29070 0.96587 0.88440 -0.13900
H 	H 	0.02930 0.27800 0.42430 0.10100
C 	C 	0.02760 0.38547 0.38150 -0.27400
H 	H 	0.05700 0.42090 0.37960 0.10100
H 	H 	0.04510 0.36530 0.30520 0.11300
C 	C 	0.92797 0.39338 0.38200 0.19400
H 	H 	0.91000 0.41360 0.30490 -0.03400
C 	C 	0.88370 0.33784 0.38250 -0.27800
H 	H 	0.81930 0.34230 0.38120 0.11700
H 	H 	0.90100 0.31770 0.30610 0.11500
C 	C 	0.84347 0.13788 0.81840 0.34800
C 	C 	0.96880 0.20062 0.83660 0.06700
H 	H 	0.96900 0.19810 0.74360 0.02300
H 	H 	0.96700 0.23920 0.85940 0.02800
C 	C 	0.10162 0.14392 0.81560 0.27500
C 	C 	0.24991 0.10630 0.83260 0.05000
H 	H 	0.30180 0.12930 0.84700 0.02900
H 	H 	0.24170 0.10290 0.74050 0.03900
C 	C 	0.25640 0.00755 0.81630 0.27700
C 	C 	0.29652 0.91128 0.83750 0.06900
H 	H 	0.29320 0.91200 0.74440 0.01900
H 	H 	0.35430 0.89630 0.86090 0.02600
O 	O 	0.14453 0.77316 0.39653 -0.36500
O 	O 	0.80426 0.65840 0.60380 -0.35800
O 	O 	0.13612 0.88041 0.71332 -0.43000
O 	O 	0.91379 0.87319 0.70940 -0.24200
O 	O 	0.77598 0.99512 0.71120 -0.25000
N 	N 	0.22873 0.87597 0.88490 -0.15200
N 	N 	0.10933 0.82538 0.88450 -0.15100
N 	N 	0.95101 0.82253 0.88480 -0.13600
N 	N 	0.82584 0.86759 0.88550 -0.13100
N 	N 	0.73320 0.94640 0.88490 -0.13200
N 	N 	0.70930 0.03413 0.88440 -0.13900
H 	H 	0.97070 0.72200 0.42430 0.10100
C 	C 	0.97240 0.61453 0.38150 -0.27400
H 	H 	0.94300 0.57910 0.37960 0.10100
H 	H 	0.95490 0.63470 0.30520 0.11300
C 	C 	0.07203 0.60662 0.38200 0.19400
H 	H 	0.09000 0.58640 0.30490 -0.03400
C 	C 	0.11630 0.66216 0.38250 -0.27800
H 	H 	0.18070 0.65770 0.38120 0.11700
H 	H 	0.09900 0.68230 0.30610 0.11500
C 	C 	0.15653 0.86212 0.81840 0.34800
C 	C 	0.03120 0.79938 0.83660 0.06700
H 	H 	0.03100 0.80190 0.74360 0.02300
H 	H 	0.03300 0.76080 0.85940 0.02800
C 	C 	0.89838 0.85608 0.81560 0.27500
C 	C 	0.75009 0.89370 0.83260 0.05000
H 	H 	0.69820 0.87070 0.84700 0.02900
H 	H 	0.75830 0.89710 0.74050 0.03900
C 	C 	0.74360 0.99245 0.81630 0.27700
C 	C 	0.70348 0.08872 0.83750 0.06900
H 	H 	0.70680 0.08800 0.74440 0.01900
H 	H 	0.64570 0.10370 0.86090 0.02600
O 	O 	0.35547 0.27316 0.39653 -0.36500
O 	O 	0.69574 0.15840 0.60380 -0.35800
O 	O 	0.36388 0.38041 0.71332 -0.43000
O 	O 	0.58621 0.37319 0.70940 -0.24200
O 	O 	0.72402 0.49512 0.71120 -0.25100
N 	N 	0.27127 0.37597 0.88490 -0.15200
N 	N 	0.39067 0.32538 0.88450 -0.15100
N 	N 	0.54899 0.32253 0.88480 -0.13600
N 	N 	0.67416 0.36759 0.88550 -0.13100
N 	N 	0.76680 0.44640 0.88490 -0.13200
N 	N 	0.79070 0.53413 0.88440 -0.13900
H 	H 	0.52930 0.22200 0.42430 0.10100
C 	C 	0.52760 0.11453 0.38150 -0.27500
H 	H 	0.55700 0.07910 0.37960 0.10100
H 	H 	0.54510 0.13470 0.30520 0.11300
C 	C 	0.42797 0.10662 0.38200 0.19500
H 	H 	0.41000 0.08640 0.30490 -0.03400
C 	C 	0.38370 0.16216 0.38250 -0.27900
H 	H 	0.31930 0.15770 0.38120 0.11700
H 	H 	0.40100 0.18230 0.30610 0.11600
C 	C 	0.34347 0.36212 0.81840 0.34800
C 	C 	0.46880 0.29938 0.83660 0.06700
H 	H 	0.46900 0.30190 0.74360 0.02300
H 	H 	0.46700 0.26080 0.85940 0.02800
C 	C 	0.60162 0.35608 0.81560 0.27500
C 	C 	0.74991 0.39370 0.83260 0.05000
H 	H 	0.80180 0.37070 0.84700 0.02900
H 	H 	0.74170 0.39710 0.74050 0.03900
C 	C 	0.75640 0.49245 0.81630 0.27700
C 	C 	0.79652 0.58872 0.83750 0.06900
H 	H 	0.79320 0.58800 0.74440 0.01900
H 	H 	0.85430 0.60370 0.86090 0.02600
O 	O 	0.64453 0.72684 0.39653 -0.36500
O 	O 	0.30426 0.84160 0.60380 -0.35800
O 	O 	0.63612 0.61959 0.71332 -0.43000
O 	O 	0.41379 0.62681 0.70940 -0.24200
O 	O 	0.27598 0.50488 0.71120 -0.25100
N 	N 	0.72873 0.62403 0.88490 -0.15200
N 	N 	0.60933 0.67462 0.88450 -0.15100
N 	N 	0.45101 0.67747 0.88480 -0.13600
N 	N 	0.32584 0.63241 0.88550 -0.13100
N 	N 	0.23320 0.55360 0.88490 -0.13200
N 	N 	0.20930 0.46587 0.88440 -0.13900
H 	H 	0.47070 0.77800 0.42430 0.10100
C 	C 	0.47240 0.88547 0.38150 -0.27500
H 	H 	0.44300 0.92090 0.37960 0.10100
H 	H 	0.45490 0.86530 0.30520 0.11300
C 	C 	0.57203 0.89338 0.38200 0.19500
H 	H 	0.59000 0.91360 0.30490 -0.03400
C 	C 	0.61630 0.83784 0.38250 -0.27900
H 	H 	0.68070 0.84230 0.38120 0.11700
H 	H 	0.59900 0.81770 0.30610 0.11600
C 	C 	0.65653 0.63788 0.81840 0.34800
C 	C 	0.53120 0.70062 0.83660 0.06700
H 	H 	0.53100 0.69810 0.74360 0.02300
H 	H 	0.53300 0.73920 0.85940 0.02800
C 	C 	0.39838 0.64392 0.81560 0.27500
C 	C 	0.25009 0.60630 0.83260 0.05000
H 	H 	0.19820 0.62930 0.84700 0.02900
H 	H 	0.25830 0.60290 0.74050 0.03900
C 	C 	0.24360 0.50755 0.81630 0.27700
C 	C 	0.20348 0.41128 0.83750 0.06900
H 	H 	0.20680 0.41200 0.74440 0.01900
H 	H 	0.14570 0.39630 0.86090 0.02600
O 	O 	0.14453 0.77316 0.60347 -0.36300
O 	O 	0.80426 0.65840 0.39620 -0.36000
O 	O 	0.13612 0.88041 0.28668 -0.43200
O 	O 	0.91379 0.87319 0.29060 -0.24300
O 	O 	0.77598 0.99512 0.28880 -0.25200
N 	N 	0.22873 0.87597 0.11510 -0.17000
N 	N 	0.10933 0.82538 0.11550 -0.16800
N 	N 	0.95101 0.82253 0.11520 -0.15300
N 	N 	0.82584 0.86759 0.11450 -0.14800
N 	N 	0.73320 0.94640 0.11510 -0.15000
N 	N 	0.70930 0.03413 0.11560 -0.15600
H 	H 	0.97070 0.72200 0.57570 0.10200
C 	C 	0.97240 0.61453 0.61850 -0.27600
H 	H 	0.94300 0.57910 0.62040 0.10400
H 	H 	0.95490 0.63470 0.69480 0.11800
C 	C 	0.07203 0.60662 0.61800 0.19600
H 	H 	0.09000 0.58640 0.69510 -0.03100
C 	C 	0.11630 0.66216 0.61750 -0.28100
H 	H 	0.18070 0.65770 0.61880 0.11800
H 	H 	0.09900 0.68230 0.69390 0.12000
C 	C 	0.15653 0.86212 0.18160 0.34000
C 	C 	0.03120 0.79938 0.16340 0.06200
H 	H 	0.03100 0.80190 0.25640 0.02400
H 	H 	0.03300 0.76080 0.14060 0.01400
C 	C 	0.89838 0.85608 0.18440 0.26700
C 	C 	0.75009 0.89370 0.16740 0.04500
H 	H 	0.69820 0.87070 0.15300 0.01800
H 	H 	0.75830 0.89710 0.25950 0.04000
C 	C 	0.74360 0.99245 0.18370 0.27000
C 	C 	0.70348 0.08872 0.16250 0.06500
H 	H 	0.70680 0.08800 0.25560 0.02000
H 	H 	0.64570 0.10370 0.13910 0.01300
O 	O 	0.85547 0.22684 0.60347 -0.36300
O 	O 	0.19574 0.34160 0.39620 -0.36000
O 	O 	0.86388 0.11959 0.28668 -0.43200
O 	O 	0.08621 0.12681 0.29060 -0.24300
O 	O 	0.22402 0.00488 0.28880 -0.25200
N 	N 	0.77127 0.12403 0.11510 -0.17000
N 	N 	0.89067 0.17462 0.11550 -0.16800
N 	N 	0.04899 0.17747 0.11520 -0.15300
N 	N 	0.17416 0.13241 0.11450 -0.14800
N 	N 	0.26680 0.05360 0.11510 -0.15000
N 	N 	0.29070 0.96587 0.11560 -0.15600
H 	H 	0.02930 0.27800 0.57570 0.10200
C 	C 	0.02760 0.38547 0.61850 -0.27600
H 	H 	0.05700 0.42090 0.62040 0.10400
H 	H 	0.04510 0.36530 0.69480 0.11800
C 	C 	0.92797 0.39338 0.61800 0.19600
H 	H 	0.91000 0.41360 0.69510 -0.03100
C 	C 	0.88370 0.33784 0.61750 -0.28100
H 	H 	0.81930 0.34230 0.61880 0.11800
H 	H 	0.90100 0.31770 0.69390 0.12000
C 	C 	0.84347 0.13788 0.18160 0.34000
C 	C 	0.96880 0.20062 0.16340 0.06200
H 	H 	0.96900 0.19810 0.25640 0.02400
H 	H 	0.96700 0.23920 0.14060 0.01400
C 	C 	0.10162 0.14392 0.18440 0.26700
C 	C 	0.24991 0.10630 0.16740 0.04500
H 	H 	0.30180 0.12930 0.15300 0.01800
H 	H 	0.24170 0.10290 0.25950 0.04000
C 	C 	0.25640 0.00755 0.18370 0.27000
C 	C 	0.29652 0.91128 0.16250 0.06500
H 	H 	0.29320 0.91200 0.25560 0.02000
H 	H 	0.35430 0.89630 0.13910 0.01300
Tb	Tb	0.66358 0.63971 0.50000 1.65300
C 	C 	0.58950 0.80626 0.50000 0.12600
C 	C 	0.48860 0.79854 0.50000 -0.23900
C 	C 	0.44390 0.85435 0.50000 0.12300
C 	C 	0.60030 0.92451 0.50000 -0.31500
H 	H 	0.57300 0.96060 0.50000 0.11300
H 	H 	0.66470 0.92920 0.50000 0.13100
C 	C 	0.62980 0.75041 0.50000 0.21800
C 	C 	0.34530 0.84526 0.50000 0.20600
Tb	Tb	0.33642 0.36029 0.50000 1.65300
C 	C 	0.41050 0.19374 0.50000 0.12600
C 	C 	0.51140 0.20146 0.50000 -0.23900
C 	C 	0.55610 0.14565 0.50000 0.12300
C 	C 	0.39970 0.07549 0.50000 -0.31500
H 	H 	0.42700 0.03940 0.50000 0.11300
H 	H 	0.33530 0.07080 0.50000 0.13100
C 	C 	0.37020 0.24959 0.50000 0.21800
C 	C 	0.65470 0.15474 0.50000 0.20600
Tb	Tb	0.83642 0.13971 0.50000 1.65200
C 	C 	0.91050 0.30626 0.50000 0.12500
C 	C 	0.01140 0.29854 0.50000 -0.23800
C 	C 	0.05610 0.35435 0.50000 0.12200
C 	C 	0.89970 0.42451 0.50000 -0.31500
H 	H 	0.92700 0.46060 0.50000 0.11300
H 	H 	0.83530 0.42920 0.50000 0.13000
C 	C 	0.87020 0.25041 0.50000 0.21800
C 	C 	0.15470 0.34526 0.50000 0.20700
Tb	Tb	0.16358 0.86029 0.50000 1.65200
C 	C 	0.08950 0.69374 0.50000 0.12500
C 	C 	0.98860 0.70146 0.50000 -0.23800
C 	C 	0.94390 0.64565 0.50000 0.12200
C 	C 	0.10030 0.57549 0.50000 -0.31500
H 	H 	0.07300 0.53940 0.50000 0.11300
H 	H 	0.16470 0.57080 0.50000 0.13000
C 	C 	0.12980 0.74959 0.50000 0.21800
C 	C 	0.84530 0.65474 0.50000 0.20700
C 	C 	0.73680 0.65512 -0.00000 0.04100
H 	H 	0.79120 0.67750 -0.00000 0.01400
C 	C 	0.65350 0.69037 -0.00000 0.04000
H 	H 	0.66830 0.72950 -0.00000 0.01400
C 	C 	0.40900 0.69517 -0.00000 0.03900
H 	H 	0.39910 0.73490 -0.00000 0.01300
C 	C 	0.32170 0.66380 -0.00000 0.03900
H 	H 	0.27020 0.68860 -0.00000 0.01400
C 	C 	0.18420 0.54523 -0.00000 0.03900
H 	H 	0.12820 0.56600 -0.00000 0.01000
C 	C 	0.16710 0.48362 -0.00000 0.03700
H 	H 	0.10310 0.47520 -0.00000 0.01000
C 	C 	0.26320 0.34488 -0.00000 0.04100
H 	H 	0.20880 0.32250 -0.00000 0.01400
C 	C 	0.34650 0.30963 -0.00000 0.04000
H 	H 	0.33170 0.27050 -0.00000 0.01400
C 	C 	0.59100 0.30483 -0.00000 0.03900
H 	H 	0.60090 0.26510 -0.00000 0.01300
C 	C 	0.67830 0.33620 -0.00000 0.03900
H 	H 	0.72980 0.31140 -0.00000 0.01400
C 	C 	0.81580 0.45477 -0.00000 0.03900
H 	H 	0.87180 0.43400 -0.00000 0.01000
C 	C 	0.83290 0.51638 -0.00000 0.03700
H 	H 	0.89690 0.52480 -0.00000 0.01000
C 	C 	0.76320 0.15512 -0.00000 0.04100
H 	H 	0.70880 0.17750 -0.00000 0.01400
C 	C 	0.84650 0.19037 -0.00000 0.04000
H 	H 	0.83170 0.22950 -0.00000 0.01400
C 	C 	0.09100 0.19517 -0.00000 0.03900
H 	H 	0.10090 0.23490 -0.00000 0.01400
C 	C 	0.17830 0.16380 -0.00000 0.03900
H 	H 	0.22980 0.18860 -0.00000 0.01400
C 	C 	0.31580 0.04523 -0.00000 0.04000
H 	H 	0.37180 0.06600 -0.00000 0.01000
C 	C 	0.33290 0.98362 -0.00000 0.03700
H 	H 	0.39690 0.97520 -0.00000 0.01000
C 	C 	0.23680 0.84488 -0.00000 0.04100
H 	H 	0.29120 0.82250 -0.00000 0.01400
C 	C 	0.15350 0.80963 -0.00000 0.04000
H 	H 	0.16830 0.77050 -0.00000 0.01400
C 	C 	0.90900 0.80483 -0.00000 0.03900
H 	H 	0.89910 0.76510 -0.00000 0.01400
C 	C 	0.82170 0.83620 -0.00000 0.03900
H 	H 	0.77020 0.81140 -0.00000 0.01400
C 	C 	0.68420 0.95477 -0.00000 0.04000
H 	H 	0.62820 0.93400 -0.00000 0.01000
C 	C 	0.66710 0.01638 -0.00000 0.03700
H 	H 	0.60310 0.02480 -0.00000 0.01000
