data_crystal

_cell_length_a 7.32840
_cell_length_b 16.13790
_cell_length_c 16.35320
_cell_angle_alpha 111.24100
_cell_angle_beta  92.75200
_cell_angle_gamma 98.74300

_symmetry_space_group_name_	'P 1'
_symmetry_space_group_name_H-M	'P 1'

loop_
_symmetry_equiv_pos_as_xyz
  x,y,z

loop_
_atom_site_label
_atom_site_type_symbol
_atom_site_fract_x
_atom_site_fract_y
_atom_site_fract_z
_atom_site_charge
Zn	Zn	0.86526 0.45031 0.27160 1.22100
O 	O 	0.70850 0.33190 0.31971 -0.40300
O 	O 	0.59050 0.41047 0.25439 -0.47000
O 	O 	0.91460 0.35170 0.15726 -0.51100
O 	O 	0.93950 0.55225 0.23108 -0.44300
O 	O 	0.84220 0.61347 0.36043 -0.38200
O 	O 	0.81130 0.20510 0.09298 -0.49000
O 	O 	0.30220 0.86640 0.12570 -0.41400
O 	O 	0.19430 0.72300 0.06920 -0.46700
C 	C 	0.57410 0.34840 0.28460 0.39800
C 	C 	0.38210 0.29400 0.27410 -0.31200
C 	C 	0.24330 0.30390 0.21990 0.22600
H 	H 	0.27030 0.34530 0.19270 -0.04000
C 	C 	0.06530 0.25410 0.20490 -0.34400
C 	C 	0.03190 0.19150 0.24600 0.38500
C 	C 	0.84730 0.13020 0.23340 -0.89200
H 	H 	0.85520 0.09240 0.26680 0.27800
H 	H 	0.81580 0.09300 0.17190 0.30500
H 	H 	0.75330 0.16600 0.25330 0.29300
C 	C 	0.33350 0.23380 0.31680 0.35200
C 	C 	0.46000 0.22090 0.38490 -0.83500
H 	H 	0.39590 0.17620 0.40440 0.25800
H 	H 	0.49630 0.27710 0.43430 0.27800
H 	H 	0.56860 0.20120 0.35930 0.26500
C 	C 	0.09470 0.42820 0.41740 0.08800
H 	H 	0.98780 0.39000 0.41940 -0.00700
C 	C 	0.25010 0.43860 0.47290 -0.15100
H 	H 	0.24650 0.40830 0.51180 0.08200
C 	C 	0.41490 0.49496 0.47116 0.05700
C 	C 	0.40700 0.53820 0.41260 -0.14200
H 	H 	0.51180 0.57680 0.40910 0.08000
C 	C 	0.24650 0.52490 0.35940 0.08100
H 	H 	0.24600 0.55500 0.32050 -0.00800
C 	C 	0.92280 0.62080 0.29850 0.38500
C 	C 	0.01280 0.71180 0.30000 -0.29100
C 	C 	0.05350 0.78990 0.37630 0.34300
C 	C 	0.03040 0.79280 0.46840 -0.82900
H 	H 	0.06590 0.85390 0.50990 0.26200
H 	H 	0.10780 0.75560 0.48230 0.27200
H 	H 	0.90290 0.77060 0.47170 0.27800
C 	C 	0.17130 0.87550 0.29590 0.33600
C 	C 	0.24370 0.97060 0.30090 -0.81000
H 	H 	0.24600 0.01260 0.36030 0.25200
H 	H 	0.16380 0.98540 0.26190 0.27000
H 	H 	0.36710 0.97400 0.28360 0.27000
C 	C 	0.15010 0.79840 0.21720 -0.29700
C 	C 	0.06660 0.71750 0.22200 0.19700
H 	H 	0.04610 0.66540 0.17110 -0.00500
C 	C 	0.22010 0.79790 0.13310 0.40400
C 	C 	0.92090 0.27140 0.14860 0.44300
N 	N 	0.08930 0.47003 0.36066 -0.26200
N 	N 	0.16230 0.18389 0.30134 -0.26100
N 	N 	0.12940 0.86980 0.37230 -0.24600
Zn	Zn	0.64992 0.24052 0.01440 1.18800
C 	C 	0.40450 0.09740 0.05570 0.09700
H 	H 	0.51160 0.09930 0.08970 -0.02100
C 	C 	0.24790 0.03710 0.05310 -0.16600
H 	H 	0.25070 0.99950 0.08460 0.09200
C 	C 	0.08560 0.03260 0.00310 0.06600
C 	C 	0.09290 0.09170 0.95950 -0.16100
H 	H 	0.98710 0.09240 0.92610 0.08900
C 	C 	0.25480 0.14940 0.96510 0.09300
H 	H 	0.25550 0.18800 0.93440 -0.03900
N 	N 	0.41100 0.15311 0.01210 -0.28100
Zn	Zn	0.13474 0.54969 0.72840 1.22000
O 	O 	0.29150 0.66810 0.68029 -0.40400
O 	O 	0.40950 0.58953 0.74561 -0.47100
O 	O 	0.08540 0.64830 0.84274 -0.51200
O 	O 	0.06050 0.44775 0.76892 -0.44400
O 	O 	0.15780 0.38653 0.63957 -0.38300
O 	O 	0.18870 0.79490 0.90702 -0.49100
O 	O 	0.69780 0.13360 0.87430 -0.41500
O 	O 	0.80570 0.27700 0.93080 -0.46700
C 	C 	0.42590 0.65160 0.71540 0.39800
C 	C 	0.61790 0.70600 0.72590 -0.31200
C 	C 	0.75670 0.69610 0.78010 0.22600
H 	H 	0.72970 0.65470 0.80730 -0.04000
C 	C 	0.93470 0.74590 0.79510 -0.34400
C 	C 	0.96810 0.80850 0.75400 0.38500
C 	C 	0.15270 0.86980 0.76660 -0.89200
H 	H 	0.14480 0.90760 0.73320 0.27800
H 	H 	0.18420 0.90700 0.82810 0.30500
H 	H 	0.24670 0.83400 0.74670 0.29300
C 	C 	0.66650 0.76620 0.68320 0.35200
C 	C 	0.54000 0.77910 0.61510 -0.83500
H 	H 	0.60410 0.82380 0.59560 0.25800
H 	H 	0.50370 0.72290 0.56570 0.27800
H 	H 	0.43140 0.79880 0.64070 0.26500
C 	C 	0.90530 0.57180 0.58260 0.08800
H 	H 	0.01220 0.61000 0.58060 -0.00700
C 	C 	0.74990 0.56140 0.52710 -0.15100
H 	H 	0.75350 0.59170 0.48820 0.08200
C 	C 	0.58510 0.50504 0.52884 0.05700
C 	C 	0.59300 0.46180 0.58740 -0.14200
H 	H 	0.48820 0.42320 0.59090 0.08000
C 	C 	0.75350 0.47510 0.64060 0.08100
H 	H 	0.75400 0.44500 0.67950 -0.00800
C 	C 	0.07720 0.37920 0.70150 0.38500
C 	C 	0.98720 0.28820 0.70000 -0.29100
C 	C 	0.94650 0.21010 0.62370 0.34300
C 	C 	0.96960 0.20720 0.53160 -0.82900
H 	H 	0.93410 0.14610 0.49010 0.26200
H 	H 	0.89220 0.24440 0.51770 0.27200
H 	H 	0.09710 0.22940 0.52830 0.27800
C 	C 	0.82870 0.12450 0.70410 0.33600
C 	C 	0.75630 0.02940 0.69910 -0.81000
H 	H 	0.75400 0.98740 0.63970 0.25200
H 	H 	0.83620 0.01460 0.73810 0.27000
H 	H 	0.63290 0.02600 0.71640 0.27000
C 	C 	0.84990 0.20160 0.78280 -0.29700
C 	C 	0.93340 0.28250 0.77800 0.19700
H 	H 	0.95390 0.33460 0.82890 -0.00500
C 	C 	0.77990 0.20210 0.86690 0.40400
C 	C 	0.07910 0.72860 0.85140 0.44300
N 	N 	0.91070 0.52997 0.63934 -0.26200
N 	N 	0.83770 0.81611 0.69866 -0.26100
N 	N 	0.87060 0.13020 0.62770 -0.24600
Zn	Zn	0.35008 0.75948 0.98560 1.18800
C 	C 	0.59550 0.90260 0.94430 0.09700
H 	H 	0.48840 0.90070 0.91030 -0.02100
C 	C 	0.75210 0.96290 0.94690 -0.16600
H 	H 	0.74930 0.00050 0.91540 0.09200
C 	C 	0.91440 0.96740 0.99690 0.06600
C 	C 	0.90710 0.90830 0.04050 -0.16100
H 	H 	0.01290 0.90760 0.07390 0.08900
C 	C 	0.74520 0.85060 0.03490 0.09300
H 	H 	0.74450 0.81200 0.06560 -0.03900
N 	N 	0.58900 0.84689 0.98790 -0.28100
