data_crystal

_cell_length_a 17.33350
_cell_length_b 17.33350
_cell_length_c 23.82970
_cell_angle_alpha 68.67270
_cell_angle_beta  68.67270
_cell_angle_gamma 89.99990

_symmetry_space_group_name_	'P 1'
_symmetry_space_group_name_H-M	'P 1'

loop_
_symmetry_equiv_pos_as_xyz
  x,y,z

loop_
_atom_site_label
_atom_site_type_symbol
_atom_site_fract_x
_atom_site_fract_y
_atom_site_fract_z
_atom_site_charge
Cu	Cu	0.77857 0.02857 0.94286 0.89300
Cu	Cu	0.02857 0.77857 0.44286 0.89300
H 	H 	0.75780 0.20820 0.91080 0.00100
H 	H 	0.72690 0.31820 0.83800 0.10600
H 	H 	0.71110 0.16890 0.74540 0.09800
H 	H 	0.74190 0.06200 0.82180 -0.00100
H 	H 	0.64370 0.34650 0.75400 0.11100
H 	H 	0.68590 0.30690 0.70120 0.11000
H 	H 	0.81470 0.38630 0.66680 0.00700
H 	H 	0.77630 0.42280 0.72240 0.00600
H 	H 	0.71740 0.45200 0.61920 0.11000
H 	H 	0.68860 0.49420 0.67160 0.11000
H 	H 	0.76120 0.63480 0.63760 0.10300
H 	H 	0.87000 0.74170 0.56480 0.00700
H 	H 	0.98110 0.59610 0.47560 0.01100
H 	H 	0.87540 0.48690 0.54620 0.10500
H 	H 	0.83140 0.88100 0.91080 -0.00500
H 	H 	0.93510 0.84380 0.83800 0.11200
H 	H 	0.04350 0.08570 0.74540 0.10900
H 	H 	0.93630 0.11620 0.82180 -0.00600
H 	H 	0.10230 0.89950 0.75400 0.11600
H 	H 	0.11290 0.99190 0.70120 0.11900
H 	H 	0.01850 0.94690 0.66680 0.00000
H 	H 	0.00130 0.85480 0.72240 -0.00400
H 	H 	0.16340 0.92880 0.61920 0.11500
H 	H 	0.13980 0.83420 0.67160 0.11300
H 	H 	0.10120 0.72760 0.63760 0.10100
H 	H 	0.06520 0.69350 0.56480 -0.00000
H 	H 	0.04330 0.92830 0.47560 0.00500
H 	H 	0.07840 0.96690 0.54620 0.10500
H 	H 	0.20820 0.83140 0.41080 0.00400
H 	H 	0.31820 0.93510 0.33800 0.10300
H 	H 	0.16890 0.04350 0.24540 0.10000
H 	H 	0.06200 0.93630 0.32180 -0.00500
H 	H 	0.34650 0.10230 0.25400 0.10800
H 	H 	0.30690 0.11290 0.20120 0.10800
H 	H 	0.38630 0.01850 0.16680 0.00200
H 	H 	0.42280 0.00130 0.22240 0.00000
H 	H 	0.45200 0.16340 0.11920 0.11000
H 	H 	0.49420 0.13980 0.17160 0.11000
H 	H 	0.63480 0.10120 0.13760 0.10100
H 	H 	0.74170 0.06520 0.06480 0.00100
H 	H 	0.59610 0.04330 0.97560 0.00100
H 	H 	0.48690 0.07840 0.04620 0.10200
H 	H 	0.88100 0.75780 0.41080 -0.00800
H 	H 	0.84380 0.72690 0.33800 0.11600
H 	H 	0.08570 0.71110 0.24540 0.10900
H 	H 	0.11620 0.74190 0.32180 -0.00300
H 	H 	0.89950 0.64370 0.25400 0.12000
H 	H 	0.99190 0.68590 0.20120 0.12300
H 	H 	0.94690 0.81470 0.16680 0.00500
H 	H 	0.85480 0.77630 0.22240 0.00100
H 	H 	0.92880 0.71740 0.11920 0.11600
H 	H 	0.83420 0.68860 0.17160 0.11400
H 	H 	0.72760 0.76120 0.13760 0.10400
H 	H 	0.69350 0.87000 0.06480 0.00500
H 	H 	0.92830 0.98110 0.97560 0.01300
H 	H 	0.96690 0.87540 0.04620 0.10900
C 	C 	0.74850 0.20040 0.87620 0.12800
C 	C 	0.72960 0.26620 0.83300 -0.21300
C 	C 	0.71410 0.25790 0.78180 0.19100
C 	C 	0.72030 0.17890 0.77940 -0.20600
C 	C 	0.73940 0.11540 0.82440 0.11500
C 	C 	0.69610 0.32820 0.73160 -0.30100
C 	C 	0.76330 0.40280 0.69240 0.09300
C 	C 	0.73670 0.47440 0.64540 -0.29800
C 	C 	0.80459 0.54709 0.60002 0.19200
C 	C 	0.80590 0.62560 0.60420 -0.20600
C 	C 	0.87110 0.68920 0.56060 0.12000
C 	C 	0.93550 0.60430 0.50900 0.11500
C 	C 	0.87240 0.53900 0.55100 -0.20900
C 	C 	0.87530 0.92340 0.87620 0.15400
C 	C 	0.93740 0.90080 0.83300 -0.21500
C 	C 	0.00410 0.96030 0.78180 0.21100
C 	C 	0.00030 0.04170 0.77940 -0.26000
C 	C 	0.93620 0.06020 0.82440 0.14800
C 	C 	0.07230 0.94020 0.73160 -0.32100
C 	C 	0.04430 0.90480 0.69240 0.10900
C 	C 	0.11790 0.88020 0.64540 -0.30800
C 	C 	0.09539 0.85289 0.60002 0.19600
C 	C 	0.08990 0.77020 0.60420 -0.21100
C 	C 	0.06830 0.75020 0.56060 0.11800
C 	C 	0.05550 0.88670 0.50900 0.11400
C 	C 	0.07660 0.91000 0.55100 -0.21300
C 	C 	0.20040 0.87530 0.37620 0.12200
C 	C 	0.26620 0.93740 0.33300 -0.19200
C 	C 	0.25790 0.00410 0.28180 0.17700
C 	C 	0.17890 0.00030 0.27940 -0.22500
C 	C 	0.11540 0.93620 0.32440 0.13500
C 	C 	0.32820 0.07230 0.23160 -0.29700
C 	C 	0.40280 0.04430 0.19240 0.09400
C 	C 	0.47440 0.11790 0.14540 -0.29900
C 	C 	0.54709 0.09539 0.10002 0.19200
C 	C 	0.62560 0.08990 0.10420 -0.20900
C 	C 	0.68920 0.06830 0.06060 0.11700
C 	C 	0.60430 0.05550 0.00900 0.11500
C 	C 	0.53900 0.07660 0.05100 -0.21200
C 	C 	0.92340 0.74850 0.37620 0.16200
C 	C 	0.90080 0.72960 0.33300 -0.24100
C 	C 	0.96030 0.71410 0.28180 0.23200
C 	C 	0.04170 0.72030 0.27940 -0.24800
C 	C 	0.06020 0.73940 0.32440 0.13200
C 	C 	0.94020 0.69610 0.23160 -0.33000
C 	C 	0.90480 0.76330 0.19240 0.11100
C 	C 	0.88020 0.73670 0.14540 -0.30900
C 	C 	0.85289 0.80459 0.10002 0.19900
C 	C 	0.77020 0.80590 0.10420 -0.21000
C 	C 	0.75020 0.87110 0.06060 0.12200
C 	C 	0.88670 0.93550 0.00900 0.11800
C 	C 	0.91000 0.87240 0.05100 -0.21200
N 	N 	0.75440 0.12670 0.87260 -0.22800
N 	N 	0.93599 0.68069 0.51262 -0.22100
N 	N 	0.87300 0.00070 0.87260 -0.24600
N 	N 	0.05139 0.80669 0.51262 -0.22800
N 	N 	0.12670 0.87300 0.37260 -0.22900
N 	N 	0.68069 0.05139 0.01262 -0.22800
N 	N 	0.00070 0.75440 0.37260 -0.24500
N 	N 	0.80669 0.93599 0.01262 -0.22100
Cl	Cl	0.67004 0.91714 0.94326 -0.38300
Cl	Cl	0.88670 0.13960 0.94326 -0.39800
Cl	Cl	0.91714 0.88670 0.44326 -0.37800
Cl	Cl	0.13960 0.67004 0.44326 -0.40100
