data_crystal

_cell_length_a 9.31390
_cell_length_b 9.31390
_cell_length_c 13.31330
_cell_angle_alpha 90.00000
_cell_angle_beta  90.00000
_cell_angle_gamma 120.00000

_symmetry_space_group_name_	'P 1'
_symmetry_space_group_name_H-M	'P 1'

loop_
_symmetry_equiv_pos_as_xyz
  x,y,z

loop_
_atom_site_label
_atom_site_type_symbol
_atom_site_fract_x
_atom_site_fract_y
_atom_site_fract_z
_atom_site_charge
N 	N 	0.18610 0.85390 0.85080 -0.18500
C 	C 	0.27630 0.99540 0.80060 -0.01800
H 	H 	0.33640 0.09350 0.83650 0.05400
C 	C 	0.28300 0.00040 0.69690 -0.04500
H 	H 	0.34930 0.10070 0.66430 0.05200
C 	C 	0.19280 0.85870 0.64130 0.03800
C 	C 	0.09480 0.71060 0.69580 -0.12300
H 	H 	0.02900 0.61190 0.66160 0.06300
C 	C 	0.09650 0.71190 0.79800 0.06500
H 	H 	0.03450 0.61270 0.83250 0.00800
C 	C 	0.25410 0.86000 0.53330 -0.03600
H 	H 	0.35020 0.86040 0.51360 0.02100
C 	C 	0.12320 0.86100 0.53330 -0.03500
H 	H 	0.02720 0.86220 0.48440 0.01900
N 	N 	0.14610 0.33220 0.85080 -0.16400
C 	C 	0.00460 0.28090 0.80060 -0.10600
H 	H 	0.90650 0.24290 0.83650 0.09800
C 	C 	0.99960 0.28260 0.69690 0.05800
H 	H 	0.89930 0.24860 0.66430 0.02600
C 	C 	0.14130 0.33410 0.64130 -0.01000
C 	C 	0.28940 0.38420 0.69580 -0.08800
H 	H 	0.38810 0.41710 0.66160 0.06400
C 	C 	0.28810 0.38460 0.79800 0.04900
H 	H 	0.38730 0.42180 0.83250 0.02300
C 	C 	0.14000 0.39410 0.53330 -0.03200
H 	H 	0.13960 0.48980 0.51360 0.01700
C 	C 	0.13900 0.26220 0.53330 -0.02800
H 	H 	0.13780 0.16500 0.48440 0.02700
N 	N 	0.66780 0.81390 0.85080 -0.20600
C 	C 	0.71910 0.72370 0.80060 0.10700
H 	H 	0.75710 0.66360 0.83650 0.00600
C 	C 	0.71740 0.71700 0.69690 -0.17100
H 	H 	0.75140 0.65070 0.66430 0.09900
C 	C 	0.66590 0.80720 0.64130 0.11500
C 	C 	0.61580 0.90520 0.69580 -0.16800
H 	H 	0.58290 0.97100 0.66160 0.08500
C 	C 	0.61540 0.90350 0.79800 0.10100
H 	H 	0.57820 0.96550 0.83250 -0.00100
C 	C 	0.60590 0.74590 0.53330 -0.04200
H 	H 	0.51020 0.64980 0.51360 0.02800
C 	C 	0.73780 0.87680 0.53330 -0.03700
H 	H 	0.83500 0.97280 0.48440 0.02800
N 	N 	0.18610 0.85390 0.14920 -0.20700
C 	C 	0.27630 0.99540 0.19940 -0.03600
H 	H 	0.33640 0.09350 0.16350 0.04200
C 	C 	0.28300 0.00040 0.30310 -0.03200
H 	H 	0.34930 0.10070 0.33570 0.04600
C 	C 	0.19280 0.85870 0.35870 0.03000
C 	C 	0.09480 0.71060 0.30420 -0.12300
H 	H 	0.02900 0.61190 0.33840 0.06000
C 	C 	0.09650 0.71190 0.20200 0.06000
H 	H 	0.03450 0.61270 0.16750 -0.01300
C 	C 	0.25410 0.86000 0.46670 -0.03400
H 	H 	0.35020 0.86040 0.48640 0.02500
C 	C 	0.12320 0.86100 0.46670 -0.03700
H 	H 	0.02720 0.86220 0.51560 0.01600
N 	N 	0.14610 0.33220 0.14920 -0.18300
C 	C 	0.00460 0.28090 0.19940 -0.13800
H 	H 	0.90650 0.24290 0.16350 0.09400
C 	C 	0.99960 0.28260 0.30310 0.08600
H 	H 	0.89930 0.24860 0.33570 0.01500
C 	C 	0.14130 0.33410 0.35870 -0.02600
C 	C 	0.28940 0.38420 0.30420 -0.08100
H 	H 	0.38810 0.41710 0.33840 0.06000
C 	C 	0.28810 0.38460 0.20200 0.04100
H 	H 	0.38730 0.42180 0.16750 0.00500
C 	C 	0.14000 0.39410 0.46670 -0.02600
H 	H 	0.13960 0.48980 0.48640 0.02400
C 	C 	0.13900 0.26220 0.46670 -0.02700
H 	H 	0.13780 0.16500 0.51560 0.02000
N 	N 	0.66780 0.81390 0.14920 -0.23100
C 	C 	0.71910 0.72370 0.19940 0.10800
H 	H 	0.75710 0.66360 0.16350 -0.01400
C 	C 	0.71740 0.71700 0.30310 -0.17700
H 	H 	0.75140 0.65070 0.33570 0.10000
C 	C 	0.66590 0.80720 0.35870 0.11900
C 	C 	0.61580 0.90520 0.30420 -0.17400
H 	H 	0.58290 0.97100 0.33840 0.08500
C 	C 	0.61540 0.90350 0.20200 0.10000
H 	H 	0.57820 0.96550 0.16750 -0.02200
C 	C 	0.60590 0.74590 0.46670 -0.04400
H 	H 	0.51020 0.64980 0.48640 0.02700
C 	C 	0.73780 0.87680 0.46670 -0.03800
H 	H 	0.83500 0.97280 0.51560 0.02900
Cu	Cu	0.18143 0.85091 -0.00000 0.88600
O 	O 	0.18540 0.64360 -0.00000 -0.50600
O 	O 	0.89110 0.84330 -0.00000 -0.45000
Cu	Cu	0.14909 0.33052 -0.00000 0.88600
O 	O 	0.35640 0.54180 -0.00000 -0.50000
O 	O 	0.15670 0.04780 -0.00000 -0.46400
Cu	Cu	0.66948 0.81857 -0.00000 0.89500
O 	O 	0.45820 0.81460 -0.00000 -0.50200
O 	O 	0.95220 0.10890 -0.00000 -0.42200
C 	C 	0.33333 0.66667 -0.00000 0.50400
C 	C 	-0.00000 0.00000 -0.00000 0.38800
