data_crystal

_cell_length_a 10.82370
_cell_length_b 12.18620
_cell_length_c 12.24930
_cell_angle_alpha 94.30100
_cell_angle_beta  106.53000
_cell_angle_gamma 101.28100

_symmetry_space_group_name_	'P 1'
_symmetry_space_group_name_H-M	'P 1'

loop_
_symmetry_equiv_pos_as_xyz
  x,y,z

loop_
_atom_site_label
_atom_site_type_symbol
_atom_site_fract_x
_atom_site_fract_y
_atom_site_fract_z
_atom_site_charge
Dy	Dy	0.08325 0.30978 0.49819 1.87900
C 	C 	0.35150 0.53390 0.56510 0.07700
H 	H 	0.28730 0.56820 0.52300 0.00300
C 	C 	0.48070 0.59670 0.60820 -0.08900
H 	H 	0.50100 0.67130 0.59520 0.06700
C 	C 	0.57780 0.54990 0.66910 -0.03500
H 	H 	0.66490 0.59120 0.69710 0.05400
C 	C 	0.54360 0.43750 0.68910 0.01200
C 	C 	0.41060 0.37890 0.64370 0.02600
C 	C 	0.37220 0.26380 0.66350 0.04400
C 	C 	0.20860 0.10650 0.64360 0.08700
H 	H 	0.12000 0.06920 0.61510 0.00400
C 	C 	0.29780 0.05050 0.70640 -0.12000
H 	H 	0.26870 0.97750 0.72060 0.08500
C 	C 	0.42660 0.10170 0.74680 -0.00700
H 	H 	0.48740 0.06360 0.78760 0.03400
C 	C 	0.46980 0.21340 0.72740 -0.01000
C 	C 	0.60300 0.27320 0.76790 -0.04100
H 	H 	0.66750 0.23750 0.80670 0.04800
C 	C 	0.63810 0.38100 0.75140 -0.06600
H 	H 	0.72630 0.41950 0.78130 0.05900
C 	C 	0.08770 0.18110 0.30580 0.31200
C 	C 	0.07570 0.12320 0.19100 -0.08300
C 	C 	0.17900 0.14530 0.14450 0.00600
H 	H 	0.25630 0.19820 0.18450 0.03500
C 	C 	0.96360 0.04780 0.13260 -0.02600
H 	H 	0.89480 0.03320 0.16460 0.05500
C 	C 	0.94790 0.98920 0.02170 0.01500
C 	C 	0.83230 0.91020 0.95980 -0.09000
H 	H 	0.76210 0.89520 0.99020 0.06100
C 	C 	0.00970 0.49470 0.67600 0.54900
C 	C 	0.00620 0.47860 0.79770 -0.16600
C 	C 	0.01620 0.37410 0.83560 0.06400
H 	H 	0.02360 0.31500 0.78700 0.01300
C 	C 	0.99380 0.56440 0.86500 0.00700
H 	H 	0.98440 0.63190 0.83650 0.03400
C 	C 	0.99490 0.55310 0.98160 0.02200
C 	C 	0.98500 0.63990 0.05400 -0.11900
H 	H 	0.97910 0.70920 0.02830 0.07500
C 	C 	0.85020 0.19440 0.52970 0.31900
C 	C 	0.72980 0.11740 0.53520 -0.07300
C 	C 	0.60850 0.11690 0.46280 -0.04400
H 	H 	0.60170 0.16990 0.41180 0.05700
C 	C 	0.49400 0.04060 0.46160 0.02900
C 	C 	0.73940 0.03980 0.61290 0.01600
H 	H 	0.82180 0.03960 0.66320 0.04200
C 	C 	0.63190 0.96490 0.61710 -0.09600
H 	H 	0.64070 0.91620 0.67230 0.06800
N 	N 	0.24360 0.21150 0.62210 -0.22900
N 	N 	0.31500 0.42770 0.58090 -0.21900
O 	O 	0.06890 0.43470 0.63480 -0.55700
O 	O 	0.96120 0.18240 0.58680 -0.42300
O 	O 	0.84260 0.26860 0.46140 -0.38500
O 	O 	0.99210 0.16150 0.34640 -0.42300
O 	O 	0.19210 0.25170 0.36290 -0.41100
O 	O 	0.95440 0.56610 0.62790 -0.54600
Dy	Dy	0.91675 0.69022 0.50181 1.87900
C 	C 	0.64850 0.46610 0.43490 0.07700
H 	H 	0.71270 0.43180 0.47700 0.00300
C 	C 	0.51930 0.40330 0.39180 -0.08900
H 	H 	0.49900 0.32870 0.40480 0.06700
C 	C 	0.42220 0.45010 0.33090 -0.03500
H 	H 	0.33510 0.40880 0.30290 0.05400
C 	C 	0.45640 0.56250 0.31090 0.01200
C 	C 	0.58940 0.62110 0.35630 0.02600
C 	C 	0.62780 0.73620 0.33650 0.04400
C 	C 	0.79140 0.89350 0.35640 0.08700
H 	H 	0.88000 0.93080 0.38490 0.00400
C 	C 	0.70220 0.94950 0.29360 -0.12000
H 	H 	0.73130 0.02250 0.27940 0.08500
C 	C 	0.57340 0.89830 0.25320 -0.00700
H 	H 	0.51260 0.93640 0.21240 0.03400
C 	C 	0.53020 0.78660 0.27260 -0.01000
C 	C 	0.39700 0.72680 0.23210 -0.04100
H 	H 	0.33250 0.76250 0.19330 0.04800
C 	C 	0.36190 0.61900 0.24860 -0.06600
H 	H 	0.27370 0.58050 0.21870 0.05900
C 	C 	0.91230 0.81890 0.69420 0.31200
C 	C 	0.92430 0.87680 0.80900 -0.08300
C 	C 	0.82100 0.85470 0.85550 0.00600
H 	H 	0.74370 0.80180 0.81550 0.03500
C 	C 	0.03640 0.95220 0.86740 -0.02600
H 	H 	0.10520 0.96680 0.83540 0.05500
C 	C 	0.05210 0.01080 0.97830 0.01500
C 	C 	0.16770 0.08980 0.04020 -0.09000
H 	H 	0.23790 0.10480 0.00980 0.06100
C 	C 	0.99030 0.50530 0.32400 0.54900
C 	C 	0.99380 0.52140 0.20230 -0.16600
C 	C 	0.98380 0.62590 0.16440 0.06400
H 	H 	0.97640 0.68500 0.21300 0.01300
C 	C 	0.00620 0.43560 0.13500 0.00700
H 	H 	0.01560 0.36810 0.16350 0.03400
C 	C 	0.00510 0.44690 0.01840 0.02200
C 	C 	0.01500 0.36010 0.94600 -0.11900
H 	H 	0.02090 0.29080 0.97170 0.07500
C 	C 	0.14980 0.80560 0.47030 0.31900
C 	C 	0.27020 0.88260 0.46480 -0.07300
C 	C 	0.39150 0.88310 0.53720 -0.04400
H 	H 	0.39830 0.83010 0.58820 0.05700
C 	C 	0.50600 0.95940 0.53840 0.02900
C 	C 	0.26060 0.96020 0.38710 0.01600
H 	H 	0.17820 0.96040 0.33680 0.04200
C 	C 	0.36810 0.03510 0.38290 -0.09600
H 	H 	0.35930 0.08380 0.32770 0.06800
N 	N 	0.75640 0.78850 0.37790 -0.22900
N 	N 	0.68500 0.57230 0.41910 -0.21900
O 	O 	0.93110 0.56530 0.36520 -0.55700
O 	O 	0.03880 0.81760 0.41320 -0.42300
O 	O 	0.15740 0.73140 0.53860 -0.38500
O 	O 	0.00790 0.83850 0.65360 -0.42300
O 	O 	0.80790 0.74830 0.63710 -0.41100
O 	O 	0.04560 0.43390 0.37210 -0.54600
