data_crystal

_cell_length_a 9.14900
_cell_length_b 11.20200
_cell_length_c 14.62800
_cell_angle_alpha 73.52600
_cell_angle_beta  88.04500
_cell_angle_gamma 71.28400

_symmetry_space_group_name_	'P 1'
_symmetry_space_group_name_H-M	'P 1'

loop_
_symmetry_equiv_pos_as_xyz
  x,y,z

loop_
_atom_site_label
_atom_site_type_symbol
_atom_site_fract_x
_atom_site_fract_y
_atom_site_fract_z
_atom_site_charge
Zn	Zn	0.84960 0.18320 0.98636 1.23500
Zn	Zn	0.29060 0.23640 0.73990 1.18000
Zn	Zn	0.50550 0.48730 0.15234 1.21800
P 	P 	0.75010 0.47920 0.99700 0.51000
P 	P 	0.06580 0.07960 0.83640 0.47100
H 	H 	0.97370 0.12280 0.76130 -0.05700
P 	P 	0.58880 0.22750 0.83570 0.42400
H 	H 	0.64780 0.15460 0.76660 -0.05000
O 	O 	0.65930 0.54090 0.90560 -0.50400
O 	O 	0.66900 0.52500 0.07690 -0.48500
O 	O 	0.79300 0.33000 0.03600 -0.27400
O 	O 	0.01430 0.16780 0.90050 -0.48200
O 	O 	0.10220 0.93330 0.88880 -0.45800
O 	O 	0.19260 0.10620 0.77460 -0.48600
O 	O 	0.67460 0.15990 0.93110 -0.45800
O 	O 	0.43100 0.20750 0.84830 -0.46100
O 	O 	0.57760 0.36910 0.79290 -0.49400
N 	N 	0.63840 0.83610 0.96350 -0.20400
H 	H 	0.62230 0.81780 0.02950 0.14300
N 	N 	0.14640 0.42650 0.70310 -0.29400
N 	N 	0.58200 0.32860 0.27110 -0.26800
N 	N 	0.65660 0.01280 0.60990 -0.13500
N 	N 	0.83330 0.89770 0.53210 -0.12900
C 	C 	0.78700 0.80260 0.93960 0.12600
H 	H 	0.86650 0.76680 0.98720 -0.01700
C 	C 	0.82100 0.82070 0.84700 -0.18900
H 	H 	0.92360 0.79760 0.83130 0.10400
C 	C 	0.52100 0.89030 0.89700 0.11000
H 	H 	0.41950 0.91670 0.91510 -0.00100
C 	C 	0.54950 0.90740 0.79950 -0.18100
H 	H 	0.46900 0.94020 0.75270 0.08000
C 	C 	0.70420 0.87310 0.77590 0.10400
C 	C 	0.16700 0.51700 0.62620 0.08000
H 	H 	0.24700 0.49100 0.58780 -0.04500
C 	C 	0.07500 0.64700 0.60110 -0.15700
H 	H 	0.09770 0.70820 0.54960 0.08800
C 	C 	0.03000 0.46600 0.75570 0.10100
H 	H 	0.01890 0.40550 0.81180 -0.02000
C 	C 	0.92500 0.58990 0.73270 -0.17300
H 	H 	0.83960 0.60980 0.76880 0.09500
C 	C 	0.94700 0.68760 0.65320 0.08200
C 	C 	0.69700 0.22290 0.27360 0.09700
H 	H 	0.74940 0.21780 0.21850 -0.01200
C 	C 	0.74400 0.11990 0.35390 -0.14700
H 	H 	0.82860 0.04770 0.35200 0.09100
C 	C 	0.50400 0.33100 0.35280 0.06500
H 	H 	0.41990 0.40510 0.35260 -0.01600
C 	C 	0.54500 0.23300 0.43080 -0.12400
H 	H 	0.48760 0.23930 0.48410 0.05400
C 	C 	0.67200 0.11790 0.43770 0.05100
C 	C 	0.73710 0.89760 0.67340 0.00400
C 	C 	0.84400 0.82670 0.62440 0.01500
C 	C 	0.71900 0.00870 0.52510 0.07900
O 	O 	0.85300 0.34800 0.99600 -0.28700
Zn	Zn	0.15040 0.81680 0.01364 1.23600
Zn	Zn	0.70940 0.76360 0.26010 1.18100
Zn	Zn	0.49450 0.51270 0.84766 1.21800
P 	P 	0.24990 0.52080 0.00300 0.51000
P 	P 	0.93420 0.92040 0.16360 0.47100
H 	H 	0.02630 0.87720 0.23870 -0.05700
P 	P 	0.41120 0.77250 0.16430 0.42400
H 	H 	0.35220 0.84540 0.23340 -0.05000
O 	O 	0.34070 0.45910 0.09440 -0.50400
O 	O 	0.33100 0.47500 0.92310 -0.48500
O 	O 	0.20700 0.67000 0.96400 -0.27400
O 	O 	0.98570 0.83220 0.09950 -0.48200
O 	O 	0.89780 0.06670 0.11120 -0.45800
O 	O 	0.80740 0.89380 0.22540 -0.48600
O 	O 	0.32540 0.84010 0.06890 -0.45800
O 	O 	0.56900 0.79250 0.15170 -0.46100
O 	O 	0.42240 0.63090 0.20710 -0.49400
N 	N 	0.36160 0.16390 0.03650 -0.20400
H 	H 	0.37770 0.18220 0.97050 0.14300
N 	N 	0.85360 0.57350 0.29690 -0.29400
N 	N 	0.41800 0.67140 0.72890 -0.26800
N 	N 	0.34340 0.98720 0.39010 -0.13500
N 	N 	0.16670 0.10230 0.46790 -0.12900
C 	C 	0.21300 0.19740 0.06040 0.12600
H 	H 	0.13350 0.23320 0.01280 -0.01700
C 	C 	0.17900 0.17930 0.15300 -0.18900
H 	H 	0.07640 0.20240 0.16870 0.10400
C 	C 	0.47900 0.10970 0.10300 0.11000
H 	H 	0.58050 0.08330 0.08490 -0.00100
C 	C 	0.45050 0.09260 0.20050 -0.18100
H 	H 	0.53100 0.05980 0.24730 0.08000
C 	C 	0.29580 0.12690 0.22410 0.10400
C 	C 	0.83300 0.48300 0.37380 0.08000
H 	H 	0.75300 0.50900 0.41220 -0.04500
C 	C 	0.92500 0.35300 0.39890 -0.15700
H 	H 	0.90230 0.29180 0.45040 0.08800
C 	C 	0.97000 0.53400 0.24430 0.10100
H 	H 	0.98110 0.59450 0.18820 -0.02000
C 	C 	0.07500 0.41010 0.26730 -0.17300
H 	H 	0.16040 0.39020 0.23120 0.09500
C 	C 	0.05300 0.31240 0.34680 0.08200
C 	C 	0.30300 0.77710 0.72640 0.09700
H 	H 	0.25060 0.78220 0.78150 -0.01200
C 	C 	0.25600 0.88010 0.64610 -0.14700
H 	H 	0.17140 0.95230 0.64800 0.09100
C 	C 	0.49600 0.66900 0.64720 0.06500
H 	H 	0.58010 0.59490 0.64740 -0.01600
C 	C 	0.45500 0.76700 0.56920 -0.12400
H 	H 	0.51240 0.76070 0.51590 0.05400
C 	C 	0.32800 0.88210 0.56230 0.05100
C 	C 	0.26290 0.10240 0.32660 0.00400
C 	C 	0.15600 0.17330 0.37560 0.01500
C 	C 	0.28100 0.99130 0.47490 0.07900
O 	O 	0.14700 0.65200 0.00400 -0.28700
