data_crystal

_cell_length_a 8.90360
_cell_length_b 11.12290
_cell_length_c 13.85100
_cell_angle_alpha 106.10300
_cell_angle_beta  90.94400
_cell_angle_gamma 109.83000

_symmetry_space_group_name_	'P 1'
_symmetry_space_group_name_H-M	'P 1'

loop_
_symmetry_equiv_pos_as_xyz
  x,y,z

loop_
_atom_site_label
_atom_site_type_symbol
_atom_site_fract_x
_atom_site_fract_y
_atom_site_fract_z
_atom_site_charge
Gd	Gd	0.77723 0.24736 0.23730 1.54600
Mn	Mn	0.71086 0.59056 0.02670 1.21200
C 	C 	0.46290 0.70340 0.94420 0.41500
C 	C 	0.60240 0.83830 0.96590 -0.08700
C 	C 	0.82060 0.97370 0.91250 0.11900
H 	H 	0.88920 0.98890 0.86370 0.03300
C 	C 	0.70030 0.28590 0.48940 0.39500
C 	C 	0.76790 0.43550 0.53720 -0.04100
C 	C 	0.84520 0.07420 0.00430 -0.10200
C 	C 	0.98430 0.20780 0.03490 0.38600
C 	C 	0.62230 0.94150 0.05440 0.04100
C 	C 	0.51140 0.93550 0.13590 0.38500
C 	C 	0.74220 0.63820 0.55100 0.03700
H 	H 	0.68990 0.68890 0.53170 0.03000
C 	C 	0.87550 0.70260 0.62440 -0.03200
C 	C 	0.95020 0.85280 0.67440 0.31600
C 	C 	0.90440 0.50080 0.60880 -0.01900
C 	C 	0.01110 0.43490 0.64160 0.33200
N 	N 	0.69850 0.85450 0.89350 -0.11500
N 	N 	0.74510 0.05930 0.07370 -0.17500
N 	N 	0.68650 0.50420 0.50690 -0.10600
N 	N 	0.95460 0.63230 0.65190 -0.16100
O 	O 	0.48490 0.61280 0.97380 -0.62000
O 	O 	0.33950 0.69250 0.89380 -0.45500
O 	O 	0.08820 0.22780 0.97570 -0.48700
O 	O 	0.98160 0.28820 0.11930 -0.42400
O 	O 	0.54830 0.04350 0.21010 -0.45600
O 	O 	0.39260 0.83510 0.12220 -0.29300
O 	O 	0.73880 0.23780 0.40440 -0.45900
O 	O 	0.60810 0.22110 0.53900 -0.48400
O 	O 	0.88310 0.92570 0.65480 -0.25400
O 	O 	0.08100 0.89240 0.73160 -0.35800
O 	O 	0.12840 0.51300 0.70750 -0.41700
O 	O 	0.97670 0.31370 0.59830 -0.28600
Gd	Gd	0.22277 0.75264 0.76270 1.55400
Mn	Mn	0.28914 0.40944 0.97330 1.20300
C 	C 	0.53710 0.29660 0.05580 0.40700
C 	C 	0.39760 0.16170 0.03410 -0.05900
C 	C 	0.17940 0.02630 0.08750 -0.03600
H 	H 	0.11080 0.01110 0.13630 0.05600
C 	C 	0.29970 0.71410 0.51060 0.39200
C 	C 	0.23210 0.56450 0.46280 -0.04100
C 	C 	0.15480 0.92580 0.99570 0.03400
C 	C 	0.01570 0.79220 0.96510 0.33600
C 	C 	0.37770 0.05850 0.94560 -0.06800
C 	C 	0.48860 0.06450 0.86410 0.25200
C 	C 	0.25780 0.36180 0.44900 0.04300
H 	H 	0.31010 0.31110 0.46830 0.02100
C 	C 	0.12450 0.29740 0.37560 -0.04100
C 	C 	0.04980 0.14720 0.32560 0.33900
C 	C 	0.09560 0.49920 0.39120 -0.00000
C 	C 	0.98890 0.56510 0.35840 0.30400
N 	N 	0.30150 0.14550 0.10650 -0.10200
N 	N 	0.25490 0.94070 0.92630 -0.13200
N 	N 	0.31350 0.49580 0.49310 -0.10700
N 	N 	0.04540 0.36770 0.34810 -0.15700
O 	O 	0.51510 0.38720 0.02620 -0.60700
O 	O 	0.66050 0.30750 0.10620 -0.45000
O 	O 	0.91180 0.77220 0.02430 -0.43800
O 	O 	0.01840 0.71180 0.88070 -0.41300
O 	O 	0.45170 0.95650 0.78990 -0.34500
O 	O 	0.60740 0.16490 0.87780 -0.29700
O 	O 	0.26120 0.76220 0.59560 -0.44500
O 	O 	0.39190 0.77890 0.46100 -0.45100
O 	O 	0.11690 0.07430 0.34520 -0.29900
O 	O 	0.91900 0.10760 0.26840 -0.39900
O 	O 	0.87160 0.48700 0.29250 -0.40400
O 	O 	0.02330 0.68630 0.40170 -0.24700
Mn	Mn	0.50000 0.00000 0.50000 1.18100
