data_crystal

_cell_length_a 27.24600
_cell_length_b 10.44300
_cell_length_c 9.36100
_cell_angle_alpha 90.00000
_cell_angle_beta  101.74300
_cell_angle_gamma 90.00000

_symmetry_space_group_name_	'P 1'
_symmetry_space_group_name_H-M	'P 1'

loop_
_symmetry_equiv_pos_as_xyz
  x,y,z

loop_
_atom_site_label
_atom_site_type_symbol
_atom_site_fract_x
_atom_site_fract_y
_atom_site_fract_z
_atom_site_charge
N 	N 	0.14628 0.27240 0.57310 -0.18800
C 	C 	0.14984 0.16510 0.57860 -0.32800
N 	N 	0.64628 0.77240 0.57310 -0.14500
C 	C 	0.64984 0.66510 0.57860 -0.29600
N 	N 	0.85372 0.27240 0.42690 -0.18800
C 	C 	0.85016 0.16510 0.42140 -0.32900
N 	N 	0.35372 0.77240 0.42690 -0.14600
C 	C 	0.35016 0.66510 0.42140 -0.29700
N 	N 	0.85372 0.72760 0.42690 -0.19600
C 	C 	0.85016 0.83490 0.42140 -0.19700
N 	N 	0.35372 0.22760 0.42690 -0.19500
C 	C 	0.35016 0.33490 0.42140 -0.32000
N 	N 	0.14628 0.72760 0.57310 -0.19600
C 	C 	0.14984 0.83490 0.57860 -0.19600
N 	N 	0.64628 0.22760 0.57310 -0.19500
C 	C 	0.64984 0.33490 0.57860 -0.31900
Cd	Cd	-0.00000 0.00000 -0.00000 1.14500
Cd	Cd	0.50000 0.50000 -0.00000 1.16900
Cd	Cd	0.14004 0.50000 0.55635 1.16800
Cu	Cu	0.04689 0.50000 0.00484 0.78400
N 	N 	0.09930 0.50000 0.32990 -0.23800
N 	N 	0.10180 0.50000 0.74580 -0.23000
C 	C 	0.08290 0.50000 0.20980 -0.21000
C 	C 	0.08080 0.50000 0.83910 -0.19700
Cd	Cd	0.64004 -0.00000 0.55635 1.14400
Cu	Cu	0.54689 -0.00000 0.00484 0.75500
N 	N 	0.59930 -0.00000 0.32990 -0.25700
N 	N 	0.60180 0.00000 0.74580 -0.25000
C 	C 	0.58290 0.00000 0.20980 -0.26600
C 	C 	0.58080 0.00000 0.83910 -0.25200
Cd	Cd	0.85996 0.50000 0.44365 1.16800
Cu	Cu	0.95311 0.50000 0.99516 0.79900
N 	N 	0.90070 0.50000 0.67010 -0.23900
N 	N 	0.89820 0.50000 0.25420 -0.22800
C 	C 	0.91710 0.50000 0.79020 -0.19800
C 	C 	0.91920 0.50000 0.16090 -0.21400
Cd	Cd	0.35996 -0.00000 0.44365 1.14300
Cu	Cu	0.45311 -0.00000 0.99516 0.77100
N 	N 	0.40070 0.00000 0.67010 -0.25800
N 	N 	0.39820 -0.00000 0.25420 -0.24900
C 	C 	0.41710 -0.00000 0.79020 -0.25500
C 	C 	0.41920 0.00000 0.16090 -0.27200
Cu	Cu	0.16489 0.00000 0.44574 0.76300
Cu	Cu	0.14867 0.00000 0.70516 0.76900
N 	N 	0.27780 0.00000 0.43750 -0.24200
N 	N 	0.24110 -0.00000 0.96440 -0.10900
N 	N 	0.07650 -0.00000 0.17900 -0.21900
N 	N 	0.05040 -0.00000 0.82450 -0.22000
C 	C 	0.23580 -0.00000 0.44480 -0.27100
C 	C 	0.20830 -0.00000 0.86670 -0.26000
C 	C 	0.11140 -0.00000 0.27240 -0.27100
C 	C 	0.08500 -0.00000 0.77430 -0.25000
Cu	Cu	0.66489 0.50000 0.44574 0.79100
Cu	Cu	0.64867 0.50000 0.70516 0.79900
N 	N 	0.77780 0.50000 0.43750 -0.22100
N 	N 	0.74110 0.50000 0.96440 -0.08800
N 	N 	0.57650 0.50000 0.17900 -0.20000
N 	N 	0.55040 0.50000 0.82450 -0.20200
C 	C 	0.73580 0.50000 0.44480 -0.21800
C 	C 	0.70830 0.50000 0.86670 -0.20900
C 	C 	0.61140 0.50000 0.27240 -0.21700
C 	C 	0.58500 0.50000 0.77430 -0.19700
Cu	Cu	0.83511 -0.00000 0.55426 0.76400
Cu	Cu	0.85133 0.00000 0.29484 0.76800
N 	N 	0.72220 -0.00000 0.56250 -0.24100
N 	N 	0.75890 -0.00000 0.03560 -0.11900
N 	N 	0.92350 0.00000 0.82100 -0.21000
N 	N 	0.94960 0.00000 0.17550 -0.22400
C 	C 	0.76420 0.00000 0.55520 -0.26900
C 	C 	0.79170 0.00000 0.13330 -0.26900
C 	C 	0.88860 0.00000 0.72760 -0.26400
C 	C 	0.91500 -0.00000 0.22570 -0.25500
Cu	Cu	0.33511 0.50000 0.55426 0.79200
Cu	Cu	0.35133 0.50000 0.29484 0.79700
N 	N 	0.22220 0.50000 0.56250 -0.22000
N 	N 	0.25890 0.50000 0.03560 -0.09700
N 	N 	0.42350 0.50000 0.82100 -0.19300
N 	N 	0.44960 0.50000 0.17550 -0.20700
C 	C 	0.26420 0.50000 0.55520 -0.21500
C 	C 	0.29170 0.50000 0.13330 -0.21700
C 	C 	0.38860 0.50000 0.72760 -0.21100
C 	C 	0.41500 0.50000 0.22570 -0.20200
N 	N 	-0.00000 0.22320 -0.00000 -0.20300
C 	C 	-0.00000 0.33250 -0.00000 -0.33000
N 	N 	0.50000 0.72320 -0.00000 -0.20400
C 	C 	0.50000 0.83250 -0.00000 -0.20700
N 	N 	-0.00000 0.77680 -0.00000 -0.15300
C 	C 	-0.00000 0.66750 -0.00000 -0.30700
N 	N 	0.50000 0.27680 -0.00000 -0.19700
C 	C 	0.50000 0.16750 -0.00000 -0.33700
