data_crystal

_cell_length_a 11.40600
_cell_length_b 12.45300
_cell_length_c 13.75900
_cell_angle_alpha 110.45200
_cell_angle_beta  101.87800
_cell_angle_gamma 108.21400

_symmetry_space_group_name_	'P 1'
_symmetry_space_group_name_H-M	'P 1'

loop_
_symmetry_equiv_pos_as_xyz
  x,y,z

loop_
_atom_site_label
_atom_site_type_symbol
_atom_site_fract_x
_atom_site_fract_y
_atom_site_fract_z
_atom_site_charge
Cu	Cu	0.50000 0.50000 0.50000 0.85200
Cu	Cu	0.50000 0.00000 1.00000 0.80900
Cu	Cu	0.50000 0.50000 1.00000 0.76400
H 	H 	0.53330 0.28550 0.53200 -0.02500
H 	H 	0.41680 0.10560 0.54700 0.07700
H 	H 	0.11720 0.21470 0.54710 0.08100
H 	H 	0.24050 0.38700 0.52480 -0.02500
H 	H 	0.51330 0.17120 0.89810 -0.04500
H 	H 	0.40350 0.18370 0.74280 0.05400
H 	H 	0.13070 0.82980 0.64020 0.06900
H 	H 	0.24760 0.82600 0.79560 -0.01900
H 	H 	0.78320 0.18030 0.04040 0.07700
H 	H 	0.94150 0.18070 0.96160 0.02800
H 	H 	0.70000 0.82220 0.73120 0.05100
H 	H 	0.54360 0.83380 0.81470 -0.03200
H 	H 	0.35560 0.29280 0.05500 0.05500
H 	H 	0.16050 0.10960 0.97340 0.02800
H 	H 	0.05320 0.19820 0.72290 0.06400
H 	H 	0.25140 0.37410 0.80740 -0.03400
H 	H 	0.46670 0.71450 0.46800 -0.02200
H 	H 	0.58320 0.89440 0.45300 0.08500
H 	H 	0.88280 0.78530 0.45290 0.08500
H 	H 	0.75950 0.61300 0.47520 -0.02500
H 	H 	0.48670 0.82880 0.10190 -0.03900
H 	H 	0.59650 0.81630 0.25720 0.07900
H 	H 	0.86930 0.17020 0.35980 0.09300
H 	H 	0.75240 0.17400 0.20440 -0.02700
H 	H 	0.21680 0.81970 0.95960 -0.11200
H 	H 	0.05850 0.81930 0.03840 0.13700
H 	H 	0.30000 0.17780 0.26880 0.09600
H 	H 	0.45640 0.16620 0.18530 -0.03700
H 	H 	0.64440 0.70720 0.94500 -0.12800
H 	H 	0.83950 0.89040 0.02660 0.14400
H 	H 	0.94680 0.80180 0.27710 0.10000
H 	H 	0.74860 0.62590 0.19260 -0.04000
C 	C 	0.44680 0.26950 0.53360 0.07700
C 	C 	0.37910 0.16290 0.54370 -0.16300
C 	C 	0.25270 0.14190 0.54900 0.09700
C 	C 	0.20210 0.22620 0.54290 -0.16100
C 	C 	0.27680 0.32940 0.53040 0.07900
C 	C 	0.43490 0.10050 0.84430 0.04000
C 	C 	0.37020 0.10920 0.75210 -0.12900
C 	C 	0.25550 0.00580 0.67370 0.05600
C 	C 	0.21010 0.90080 0.69190 -0.10600
C 	C 	0.27990 0.89940 0.78470 0.06400
C 	C 	0.76560 0.10690 0.97640 -0.08900
C 	C 	0.86050 0.10770 0.93030 -0.05600
C 	C 	0.83850 0.00220 0.83780 -0.00900
C 	C 	0.71840 0.89710 0.79420 -0.08300
C 	C 	0.62630 0.90480 0.84540 0.06400
C 	C 	0.29440 0.27220 0.98590 -0.07500
C 	C 	0.17770 0.16300 0.93800 -0.06900
C 	C 	0.08750 0.13330 0.83840 0.03200
C 	C 	0.11490 0.21470 0.79010 -0.11600
C 	C 	0.23250 0.31940 0.84150 0.04600
C 	C 	0.75700 0.60830 0.69750 0.08900
C 	C 	0.55320 0.73050 0.46640 0.08200
C 	C 	0.62090 0.83710 0.45630 -0.16200
C 	C 	0.74730 0.85810 0.45100 0.10000
C 	C 	0.79790 0.77380 0.45710 -0.16200
C 	C 	0.72320 0.67060 0.46960 0.08200
C 	C 	0.56510 0.89950 0.15570 0.11900
C 	C 	0.62980 0.89080 0.24790 -0.18200
C 	C 	0.74450 0.99420 0.32630 0.13800
C 	C 	0.78990 0.09920 0.30810 -0.20500
C 	C 	0.72010 0.10060 0.21530 0.10700
C 	C 	0.23440 0.89310 0.02360 0.24700
C 	C 	0.13950 0.89230 0.06970 -0.26100
C 	C 	0.16150 0.99780 0.16220 0.19000
C 	C 	0.28160 0.10290 0.20580 -0.21500
C 	C 	0.37370 0.09520 0.15460 0.09700
C 	C 	0.70560 0.72780 0.01410 0.23100
C 	C 	0.82230 0.83700 0.06200 -0.24900
C 	C 	0.91250 0.86670 0.16160 0.16300
C 	C 	0.88510 0.78530 0.20990 -0.19700
C 	C 	0.76750 0.68060 0.15850 0.10400
C 	C 	0.24300 0.39170 0.30250 0.08600
S 	S 	0.15605 0.00328 0.55553 -0.08400
S 	S 	0.94621 0.98715 0.76378 -0.00400
S 	S 	0.90320 0.68230 0.78910 -0.11100
S 	S 	0.84395 0.99672 0.44447 -0.07000
S 	S 	0.05379 0.01285 0.23622 -0.12000
S 	S 	0.09680 0.31770 0.21090 -0.05100
N 	N 	0.39690 0.35080 0.52590 -0.24300
N 	N 	0.39270 0.99780 0.86150 -0.22400
N 	N 	0.64750 0.00680 0.93580 -0.23400
N 	N 	0.32360 0.34940 0.93830 -0.24400
N 	N 	0.65210 0.55700 0.63210 -0.26400
N 	N 	0.60310 0.64920 0.47410 -0.24200
N 	N 	0.60730 0.00220 0.13850 -0.25000
N 	N 	0.35250 0.99320 0.06420 -0.24100
N 	N 	0.67640 0.65060 0.06170 -0.27800
N 	N 	0.34790 0.44300 0.36790 -0.25900
