data_crystal

_cell_length_a 20.65800
_cell_length_b 20.65800
_cell_length_c 5.61170
_cell_angle_alpha 90.00000
_cell_angle_beta  90.00000
_cell_angle_gamma 90.00000

_symmetry_space_group_name_	'P 1'
_symmetry_space_group_name_H-M	'P 1'

loop_
_symmetry_equiv_pos_as_xyz
  x,y,z

loop_
_atom_site_label
_atom_site_type_symbol
_atom_site_fract_x
_atom_site_fract_y
_atom_site_fract_z
_atom_site_charge
N 	N 	0.15360 0.22580 0.20430 -0.18200
C 	C 	0.11390 0.25070 0.04780 0.02400
H 	H 	0.13000 0.28040 0.93830 0.04000
C 	C 	0.05060 0.23520 0.03900 -0.02700
H 	H 	0.02400 0.25380 0.92390 0.05200
C 	C 	0.02490 0.19100 0.20300 -0.11000
H 	H 	0.98150 0.17940 0.19860 0.06900
C 	C 	0.06620 0.16540 0.36900 0.12600
C 	C 	0.13070 0.18320 0.36380 -0.05100
H 	H 	0.15900 0.16510 0.47400 0.07400
N 	N 	0.04010 0.12410 0.54650 -0.23800
H 	H 	0.99900 0.12620 0.56980 0.13000
C 	C 	0.07360 0.08150 0.68320 0.21800
O 	O 	0.13250 0.07520 0.67710 -0.23500
C 	C 	0.03500 0.03990 0.84680 -0.04400
C 	C 	0.06250 0.01820 0.04700 -0.02700
H 	H 	0.10480 0.03020 0.08250 0.05700
C 	C 	0.97080 0.02190 0.79700 -0.03900
H 	H 	0.95060 0.03680 0.65950 0.04300
N 	N 	0.34640 0.27420 0.20430 -0.18100
C 	C 	0.38610 0.24930 0.04780 0.02400
H 	H 	0.37000 0.21960 0.93830 0.04200
C 	C 	0.44940 0.26480 0.03900 -0.02400
H 	H 	0.47600 0.24620 0.92390 0.05100
C 	C 	0.47510 0.30900 0.20300 -0.11300
H 	H 	0.51850 0.32060 0.19860 0.07100
C 	C 	0.43380 0.33460 0.36900 0.12700
C 	C 	0.36930 0.31680 0.36380 -0.05200
H 	H 	0.34100 0.33490 0.47400 0.07500
N 	N 	0.45990 0.37590 0.54650 -0.23900
H 	H 	0.50100 0.37380 0.56980 0.13100
C 	C 	0.42640 0.41850 0.68320 0.21900
O 	O 	0.36750 0.42480 0.67710 -0.23500
C 	C 	0.46500 0.46010 0.84680 -0.04500
C 	C 	0.43750 0.48180 0.04700 -0.02900
H 	H 	0.39520 0.46980 0.08250 0.05700
C 	C 	0.52920 0.47810 0.79700 -0.03600
H 	H 	0.54940 0.46320 0.65950 0.04300
N 	N 	0.27420 0.15360 0.20430 -0.18100
C 	C 	0.24930 0.11390 0.04780 0.02500
H 	H 	0.21960 0.13000 0.93830 0.04100
C 	C 	0.26480 0.05060 0.03900 -0.02500
H 	H 	0.24620 0.02400 0.92390 0.05200
C 	C 	0.30900 0.02490 0.20300 -0.11200
H 	H 	0.32060 0.98150 0.19860 0.07000
C 	C 	0.33460 0.06620 0.36900 0.12600
C 	C 	0.31680 0.13070 0.36380 -0.05100
H 	H 	0.33490 0.15900 0.47400 0.07400
N 	N 	0.37590 0.04010 0.54650 -0.23900
H 	H 	0.37380 0.99900 0.56980 0.13000
C 	C 	0.41850 0.07360 0.68320 0.21900
O 	O 	0.42480 0.13250 0.67710 -0.23500
C 	C 	0.46010 0.03500 0.84680 -0.04500
C 	C 	0.48180 0.06250 0.04700 -0.02900
H 	H 	0.46980 0.10480 0.08250 0.05700
C 	C 	0.47810 0.97080 0.79700 -0.03600
H 	H 	0.46320 0.95060 0.65950 0.04300
N 	N 	0.22580 0.34640 0.20430 -0.18100
C 	C 	0.25070 0.38610 0.04780 0.02400
H 	H 	0.28040 0.37000 0.93830 0.04200
C 	C 	0.23520 0.44940 0.03900 -0.02400
H 	H 	0.25380 0.47600 0.92390 0.05100
C 	C 	0.19100 0.47510 0.20300 -0.11300
H 	H 	0.17940 0.51850 0.19860 0.07100
C 	C 	0.16540 0.43380 0.36900 0.12700
C 	C 	0.18320 0.36930 0.36380 -0.05200
H 	H 	0.16510 0.34100 0.47400 0.07500
N 	N 	0.12410 0.45990 0.54650 -0.23900
H 	H 	0.12620 0.50100 0.56980 0.13100
C 	C 	0.08150 0.42640 0.68320 0.21900
O 	O 	0.07520 0.36750 0.67710 -0.23500
C 	C 	0.03990 0.46500 0.84680 -0.04500
C 	C 	0.01820 0.43750 0.04700 -0.02900
H 	H 	0.03020 0.39520 0.08250 0.05700
C 	C 	0.02190 0.52920 0.79700 -0.03600
H 	H 	0.03680 0.54940 0.65950 0.04300
N 	N 	0.84640 0.77420 0.79570 -0.18100
C 	C 	0.88610 0.74930 0.95220 0.02500
H 	H 	0.87000 0.71960 0.06170 0.04100
C 	C 	0.94940 0.76480 0.96100 -0.02600
H 	H 	0.97600 0.74620 0.07610 0.05200
C 	C 	0.97510 0.80900 0.79700 -0.11000
H 	H 	0.01850 0.82060 0.80140 0.06900
C 	C 	0.93380 0.83460 0.63100 0.12600
C 	C 	0.86930 0.81680 0.63620 -0.05100
H 	H 	0.84100 0.83490 0.52600 0.07400
N 	N 	0.95990 0.87590 0.45350 -0.23800
H 	H 	0.00100 0.87380 0.43020 0.13000
C 	C 	0.92640 0.91850 0.31680 0.21800
O 	O 	0.86750 0.92480 0.32290 -0.23500
C 	C 	0.96500 0.96010 0.15320 -0.04400
C 	C 	0.93750 0.98180 0.95300 -0.02700
H 	H 	0.89520 0.96980 0.91750 0.05700
C 	C 	0.02920 0.97810 0.20300 -0.03900
H 	H 	0.04940 0.96320 0.34050 0.04300
N 	N 	0.65360 0.72580 0.79570 -0.18100
C 	C 	0.61390 0.75070 0.95220 0.02400
H 	H 	0.63000 0.78040 0.06170 0.04200
C 	C 	0.55060 0.73520 0.96100 -0.02400
H 	H 	0.52400 0.75380 0.07610 0.05100
C 	C 	0.52490 0.69100 0.79700 -0.11300
H 	H 	0.48150 0.67940 0.80140 0.07100
C 	C 	0.56620 0.66540 0.63100 0.12700
C 	C 	0.63070 0.68320 0.63620 -0.05200
H 	H 	0.65900 0.66510 0.52600 0.07500
N 	N 	0.54010 0.62410 0.45350 -0.23900
H 	H 	0.49900 0.62620 0.43020 0.13100
C 	C 	0.57360 0.58150 0.31680 0.21900
O 	O 	0.63250 0.57520 0.32290 -0.23500
C 	C 	0.53500 0.53990 0.15320 -0.04500
C 	C 	0.56250 0.51820 0.95300 -0.02900
H 	H 	0.60480 0.53020 0.91750 0.05700
C 	C 	0.47080 0.52190 0.20300 -0.03600
H 	H 	0.45060 0.53680 0.34050 0.04300
N 	N 	0.72580 0.84640 0.79570 -0.18100
C 	C 	0.75070 0.88610 0.95220 0.02500
H 	H 	0.78040 0.87000 0.06170 0.04100
C 	C 	0.73520 0.94940 0.96100 -0.02500
H 	H 	0.75380 0.97600 0.07610 0.05200
C 	C 	0.69100 0.97510 0.79700 -0.11200
H 	H 	0.67940 0.01850 0.80140 0.07000
C 	C 	0.66540 0.93380 0.63100 0.12600
C 	C 	0.68320 0.86930 0.63620 -0.05100
H 	H 	0.66510 0.84100 0.52600 0.07400
N 	N 	0.62410 0.95990 0.45350 -0.23900
H 	H 	0.62620 0.00100 0.43020 0.13000
C 	C 	0.58150 0.92640 0.31680 0.21900
O 	O 	0.57520 0.86750 0.32290 -0.23500
C 	C 	0.53990 0.96500 0.15320 -0.04500
C 	C 	0.51820 0.93750 0.95300 -0.02900
H 	H 	0.53020 0.89520 0.91750 0.05700
C 	C 	0.52190 0.02920 0.20300 -0.03600
H 	H 	0.53680 0.04940 0.34050 0.04300
N 	N 	0.77420 0.65360 0.79570 -0.18100
C 	C 	0.74930 0.61390 0.95220 0.02400
H 	H 	0.71960 0.63000 0.06170 0.04200
C 	C 	0.76480 0.55060 0.96100 -0.02400
H 	H 	0.74620 0.52400 0.07610 0.05100
C 	C 	0.80900 0.52490 0.79700 -0.11300
H 	H 	0.82060 0.48150 0.80140 0.07100
C 	C 	0.83460 0.56620 0.63100 0.12700
C 	C 	0.81680 0.63070 0.63620 -0.05200
H 	H 	0.83490 0.65900 0.52600 0.07500
N 	N 	0.87590 0.54010 0.45350 -0.23900
H 	H 	0.87380 0.49900 0.43020 0.13100
C 	C 	0.91850 0.57360 0.31680 0.21900
O 	O 	0.92480 0.63250 0.32290 -0.23500
C 	C 	0.96010 0.53500 0.15320 -0.04500
C 	C 	0.98180 0.56250 0.95300 -0.02900
H 	H 	0.96980 0.60480 0.91750 0.05700
C 	C 	0.97810 0.47080 0.20300 -0.03600
H 	H 	0.96320 0.45060 0.34050 0.04300
Cu	Cu	0.25000 0.25000 0.21020 0.89000
Br	Br	0.25000 0.25000 0.70760 -0.42800
Cu	Cu	0.75000 0.75000 0.78980 0.89000
Br	Br	0.75000 0.75000 0.29240 -0.42800
