data_crystal

_cell_length_a 21.61450
_cell_length_b 21.61450
_cell_length_c 5.16780
_cell_angle_alpha 90.00000
_cell_angle_beta  90.00000
_cell_angle_gamma 90.00000

_symmetry_space_group_name_	'P 1'
_symmetry_space_group_name_H-M	'P 1'

loop_
_symmetry_equiv_pos_as_xyz
  x,y,z

loop_
_atom_site_label
_atom_site_type_symbol
_atom_site_fract_x
_atom_site_fract_y
_atom_site_fract_z
_atom_site_charge
N 	N 	0.91190 0.96346 0.70030 -0.18400
C 	C 	0.87016 0.98429 0.53380 0.06500
H 	H 	0.88120 0.01590 0.42090 0.03300
C 	C 	0.81005 0.96025 0.52200 -0.06100
H 	H 	0.78160 0.97530 0.40260 0.07600
C 	C 	0.79407 0.91333 0.69350 -0.06500
H 	H 	0.75450 0.89650 0.69050 0.04100
C 	C 	0.83762 0.89176 0.86910 0.04800
C 	C 	0.89613 0.91916 0.86880 -0.01600
H 	H 	0.92520 0.90620 0.98990 0.04600
N 	N 	0.81999 0.84374 0.03800 -0.20300
H 	H 	0.78100 0.83860 0.06370 0.13400
C 	C 	0.85903 0.80482 0.16390 0.22400
O 	O 	0.91541 0.81079 0.17080 -0.20700
C 	C 	0.82785 0.75142 0.29410 -0.04700
C 	C 	0.85479 0.72410 0.50920 -0.02200
H 	H 	0.89060 0.74090 0.58010 0.04900
N 	N 	0.08810 0.03654 0.70030 -0.18000
C 	C 	0.12984 0.01571 0.53380 0.00400
H 	H 	0.11880 0.98410 0.42090 0.07000
C 	C 	0.18995 0.03975 0.52200 -0.02700
H 	H 	0.21840 0.02470 0.40260 0.05800
C 	C 	0.20593 0.08667 0.69350 -0.08600
H 	H 	0.24550 0.10350 0.69050 0.04700
C 	C 	0.16238 0.10824 0.86910 0.05700
C 	C 	0.10387 0.08084 0.86880 -0.02500
H 	H 	0.07480 0.09380 0.98990 0.04200
N 	N 	0.18001 0.15626 0.03800 -0.20500
H 	H 	0.21900 0.16140 0.06370 0.13400
C 	C 	0.14097 0.19518 0.16390 0.22600
O 	O 	0.08459 0.18921 0.17080 -0.21400
C 	C 	0.17215 0.24858 0.29410 -0.05100
C 	C 	0.14521 0.27590 0.50920 -0.02000
H 	H 	0.10940 0.25910 0.58010 0.04400
N 	N 	0.03654 0.91190 0.70030 -0.17700
C 	C 	0.01571 0.87016 0.53380 0.00600
H 	H 	0.98410 0.88120 0.42090 0.07000
C 	C 	0.03975 0.81005 0.52200 -0.02800
H 	H 	0.02470 0.78160 0.40260 0.05800
C 	C 	0.08667 0.79407 0.69350 -0.08600
H 	H 	0.10350 0.75450 0.69050 0.04700
C 	C 	0.10824 0.83762 0.86910 0.05700
C 	C 	0.08084 0.89613 0.86880 -0.02500
H 	H 	0.09380 0.92520 0.98990 0.04700
N 	N 	0.15626 0.81999 0.03800 -0.20400
H 	H 	0.16140 0.78100 0.06370 0.13400
C 	C 	0.19518 0.85903 0.16390 0.22400
O 	O 	0.18921 0.91541 0.17080 -0.20700
C 	C 	0.24858 0.82785 0.29410 -0.04800
C 	C 	0.27590 0.85479 0.50920 -0.02100
H 	H 	0.25910 0.89060 0.58010 0.04900
N 	N 	0.96346 0.08810 0.70030 -0.18700
C 	C 	0.98429 0.12984 0.53380 0.06800
H 	H 	0.01590 0.11880 0.42090 0.03100
C 	C 	0.96025 0.18995 0.52200 -0.06200
H 	H 	0.97530 0.21840 0.40260 0.07800
C 	C 	0.91333 0.20593 0.69350 -0.06300
H 	H 	0.89650 0.24550 0.69050 0.04100
C 	C 	0.89176 0.16238 0.86910 0.04700
C 	C 	0.91916 0.10387 0.86880 -0.01600
H 	H 	0.90620 0.07480 0.98990 0.04200
N 	N 	0.84374 0.18001 0.03800 -0.20300
H 	H 	0.83860 0.21900 0.06370 0.13400
C 	C 	0.80482 0.14097 0.16390 0.22500
O 	O 	0.81079 0.08459 0.17080 -0.21400
C 	C 	0.75142 0.17215 0.29410 -0.05000
C 	C 	0.72410 0.14521 0.50920 -0.02000
H 	H 	0.74090 0.10940 0.58010 0.04400
N 	N 	0.41190 0.53654 0.70030 -0.18400
C 	C 	0.37016 0.51571 0.53380 0.03600
H 	H 	0.38120 0.48410 0.42090 0.04900
C 	C 	0.31005 0.53975 0.52200 -0.04500
H 	H 	0.28160 0.52470 0.40260 0.06800
C 	C 	0.29407 0.58667 0.69350 -0.07400
H 	H 	0.25450 0.60350 0.69050 0.04400
C 	C 	0.33762 0.60824 0.86910 0.05200
C 	C 	0.39613 0.58084 0.86880 -0.02000
H 	H 	0.42520 0.59380 0.98990 0.04200
N 	N 	0.31999 0.65626 0.03800 -0.20400
H 	H 	0.28100 0.66140 0.06370 0.13300
C 	C 	0.35903 0.69518 0.16390 0.22400
O 	O 	0.41541 0.68921 0.17080 -0.21100
C 	C 	0.32785 0.74858 0.29410 -0.04800
C 	C 	0.35479 0.77590 0.50920 -0.02100
H 	H 	0.39060 0.75910 0.58010 0.04700
N 	N 	0.58810 0.46346 0.70030 -0.18400
C 	C 	0.62984 0.48429 0.53380 0.03600
H 	H 	0.61880 0.51590 0.42090 0.04900
C 	C 	0.68995 0.46025 0.52200 -0.04500
H 	H 	0.71840 0.47530 0.40260 0.06800
C 	C 	0.70593 0.41333 0.69350 -0.07400
H 	H 	0.74550 0.39650 0.69050 0.04500
C 	C 	0.66238 0.39176 0.86910 0.05200
C 	C 	0.60387 0.41916 0.86880 -0.02000
H 	H 	0.57480 0.40620 0.98990 0.04200
N 	N 	0.68001 0.34374 0.03800 -0.20400
H 	H 	0.71900 0.33860 0.06370 0.13400
C 	C 	0.64097 0.30482 0.16390 0.22500
O 	O 	0.58459 0.31079 0.17080 -0.21100
C 	C 	0.67215 0.25142 0.29410 -0.04900
C 	C 	0.64521 0.22410 0.50920 -0.02100
H 	H 	0.60940 0.24090 0.58010 0.04600
N 	N 	0.53654 0.58810 0.70030 -0.18400
C 	C 	0.51571 0.62984 0.53380 0.03600
H 	H 	0.48410 0.61880 0.42090 0.05000
C 	C 	0.53975 0.68995 0.52200 -0.04500
H 	H 	0.52470 0.71840 0.40260 0.06800
C 	C 	0.58667 0.70593 0.69350 -0.07500
H 	H 	0.60350 0.74550 0.69050 0.04500
C 	C 	0.60824 0.66238 0.86910 0.05200
C 	C 	0.58084 0.60387 0.86880 -0.02000
H 	H 	0.59380 0.57480 0.98990 0.04200
N 	N 	0.65626 0.68001 0.03800 -0.20400
H 	H 	0.66140 0.71900 0.06370 0.13400
C 	C 	0.69518 0.64097 0.16390 0.22500
O 	O 	0.68921 0.58459 0.17080 -0.21100
C 	C 	0.74858 0.67215 0.29410 -0.04800
C 	C 	0.77590 0.64521 0.50920 -0.02100
H 	H 	0.75910 0.60940 0.58010 0.04700
N 	N 	0.46346 0.41190 0.70030 -0.18400
C 	C 	0.48429 0.37016 0.53380 0.03600
H 	H 	0.51590 0.38120 0.42090 0.04900
C 	C 	0.46025 0.31005 0.52200 -0.04500
H 	H 	0.47530 0.28160 0.40260 0.06800
C 	C 	0.41333 0.29407 0.69350 -0.07400
H 	H 	0.39650 0.25450 0.69050 0.04300
C 	C 	0.39176 0.33762 0.86910 0.05200
C 	C 	0.41916 0.39613 0.86880 -0.02000
H 	H 	0.40620 0.42520 0.98990 0.04200
N 	N 	0.34374 0.31999 0.03800 -0.20400
H 	H 	0.33860 0.28100 0.06370 0.13400
C 	C 	0.30482 0.35903 0.16390 0.22500
O 	O 	0.31079 0.41541 0.17080 -0.21100
C 	C 	0.25142 0.32785 0.29410 -0.05000
C 	C 	0.22410 0.35479 0.50920 -0.02000
H 	H 	0.24090 0.39060 0.58010 0.04600
Cu	Cu	-0.00000 0.00000 0.70430 0.89300
Cl	Cl	0.00000 0.00000 0.20160 -0.49000
Cu	Cu	0.50000 0.50000 0.70430 0.90100
Cl	Cl	0.50000 0.50000 0.20160 -0.47200
C 	C 	0.77541 0.72459 0.18660 -0.02100
H 	H 	0.75790 0.74210 0.03950 0.04700
C 	C 	0.82850 0.67150 0.61960 -0.05700
H 	H 	0.84590 0.65410 0.76680 0.04200
C 	C 	0.22459 0.27541 0.18660 -0.01900
H 	H 	0.24210 0.25790 0.03950 0.04600
C 	C 	0.17150 0.32850 0.61960 -0.06000
H 	H 	0.15410 0.34590 0.76680 0.04000
C 	C 	0.27541 0.77541 0.18660 -0.02100
H 	H 	0.25790 0.75790 0.03950 0.04700
C 	C 	0.32850 0.82850 0.61960 -0.05700
H 	H 	0.34590 0.84590 0.76680 0.04200
C 	C 	0.72459 0.22459 0.18660 -0.01900
H 	H 	0.74210 0.24210 0.03950 0.04700
C 	C 	0.67150 0.17150 0.61960 -0.06000
H 	H 	0.65410 0.15410 0.76680 0.04000
