data_crystal

_cell_length_a 8.83050
_cell_length_b 19.97870
_cell_length_c 25.74250
_cell_angle_alpha 90.00000
_cell_angle_beta  96.82100
_cell_angle_gamma 90.00000

_symmetry_space_group_name_	'P 1'
_symmetry_space_group_name_H-M	'P 1'

loop_
_symmetry_equiv_pos_as_xyz
  x,y,z

loop_
_atom_site_label
_atom_site_type_symbol
_atom_site_fract_x
_atom_site_fract_y
_atom_site_fract_z
_atom_site_charge
C 	C 	0.38720 0.01310 0.56744 0.11200
H 	H 	0.38150 0.98480 0.53860 -0.01200
C 	C 	0.43330 0.98630 0.61618 -0.19000
H 	H 	0.45990 0.94140 0.61930 0.10800
C 	C 	0.44010 0.02574 0.66004 0.13600
C 	C 	0.40160 0.09270 0.65203 -0.18800
H 	H 	0.40430 0.12170 0.68040 0.09700
C 	C 	0.36020 0.11560 0.60279 0.10700
H 	H 	0.33670 0.16080 0.59860 -0.02700
C 	C 	0.48480 0.99872 0.71358 -0.08700
C 	C 	0.45600 0.93260 0.72500 0.04700
H 	H 	0.41190 0.90450 0.69860 0.01500
C 	C 	0.49160 0.90750 0.77469 -0.16900
H 	H 	0.47300 0.86270 0.78140 0.09300
C 	C 	0.55510 0.94870 0.81477 0.15100
C 	C 	0.58490 0.01460 0.80372 -0.17500
H 	H 	0.62910 0.04260 0.83010 0.09000
C 	C 	0.54950 0.03920 0.75368 0.04800
H 	H 	0.56960 0.08380 0.74680 0.00900
C 	C 	0.46860 0.87910 0.88302 0.15100
C 	C 	0.31810 0.89810 0.87699 -0.17200
H 	H 	0.28940 0.93870 0.86100 0.09100
C 	C 	0.20950 0.85710 0.89461 0.04700
H 	H 	0.10760 0.86990 0.88960 0.01400
C 	C 	0.24900 0.79703 0.91963 -0.08900
C 	C 	0.39890 0.77850 0.92414 0.05300
H 	H 	0.42740 0.73770 0.93960 0.00900
C 	C 	0.51000 0.81870 0.90636 -0.17200
H 	H 	0.61140 0.80500 0.91010 0.09400
C 	C 	0.13140 0.75600 0.94129 0.13300
C 	C 	0.00600 0.78570 0.95954 -0.18100
H 	H 	0.99420 0.83200 0.95800 0.09800
C 	C 	0.89920 0.74680 0.97990 0.09800
H 	H 	0.81630 0.76790 0.99200 -0.01000
C 	C 	0.02970 0.65170 0.96547 0.10400
H 	H 	0.03840 0.60540 0.96730 -0.01600
C 	C 	0.14210 0.68750 0.94469 -0.18100
H 	H 	0.22440 0.66530 0.93310 0.09900
C 	C 	0.70020 0.94580 0.90348 0.13600
C 	C 	0.67930 0.94950 0.95553 -0.14300
H 	H 	0.58530 0.93810 0.96580 0.08500
C 	C 	0.79610 0.97010 0.99281 -0.00100
H 	H 	0.77880 0.97120 0.02770 0.03000
C 	C 	0.93740 0.98909 0.97995 -0.01600
C 	C 	0.95400 0.98679 0.92698 -0.00200
H 	H 	0.04590 0.00040 0.91610 0.03100
C 	C 	0.83870 0.96504 0.88997 -0.14600
H 	H 	0.85570 0.96340 0.85500 0.08500
C 	C 	0.50550 0.19790 0.45234 0.34200
C 	C 	0.63310 0.23572 0.43348 -0.12000
C 	C 	0.63230 0.30480 0.43077 0.04800
H 	H 	0.55290 0.32840 0.44300 0.02500
C 	C 	0.74660 0.33950 0.41032 -0.12000
H 	H 	0.74180 0.38600 0.40860 0.07300
C 	C 	0.86850 0.30657 0.39224 0.05000
C 	C 	0.87510 0.23670 0.39714 -0.12300
H 	H 	0.95760 0.21330 0.38690 0.08400
C 	C 	0.75940 0.20270 0.41714 0.05000
H 	H 	0.76520 0.15630 0.41990 0.02800
C 	C 	0.98640 0.34299 0.36746 0.03900
C 	C 	0.13790 0.34500 0.38874 -0.11000
H 	H 	0.16860 0.32200 0.41960 0.07700
C 	C 	0.24320 0.38040 0.36486 0.03000
H 	H 	0.34390 0.38240 0.38020 0.02000
C 	C 	0.20060 0.41340 0.31808 -0.11100
H 	H 	0.27330 0.43700 0.30220 0.06900
C 	C 	0.05160 0.41170 0.29479 0.03900
C 	C 	0.94600 0.37682 0.32044 -0.10900
H 	H 	0.84460 0.37600 0.30570 0.06700
C 	C 	0.00600 0.44500 0.24377 0.04600
C 	C 	0.06710 0.50490 0.23170 -0.11300
H 	H 	0.14110 0.52450 0.25560 0.07000
C 	C 	0.02230 0.53720 0.18482 0.04200
H 	H 	0.06540 0.57830 0.17800 0.02900
C 	C 	0.91430 0.50910 0.14814 -0.11000
C 	C 	0.85510 0.44790 0.15920 0.03900
H 	H 	0.78430 0.42740 0.13460 0.02800
C 	C 	0.89960 0.41600 0.20669 -0.11100
H 	H 	0.85730 0.37480 0.21360 0.06800
C 	C 	0.85720 0.54640 0.09901 0.33500
Cd	Cd	0.27435 0.12089 0.47925 1.21800
N 	N 	0.58250 0.92218 0.86631 -0.18100
N 	N 	0.35080 0.07679 0.55950 -0.25800
N 	N 	0.90870 0.68057 0.98317 -0.24800
O 	O 	0.39130 0.22798 0.46359 -0.38600
O 	O 	0.51730 0.13634 0.45681 -0.40600
O 	O 	0.78550 0.51613 0.06194 -0.39100
O 	O 	0.87890 0.60749 0.09820 -0.40700
C 	C 	0.61280 0.51310 0.93256 0.11300
H 	H 	0.61850 0.48480 0.96140 -0.01400
C 	C 	0.56670 0.48630 0.88382 -0.19200
H 	H 	0.54010 0.44140 0.88070 0.10700
C 	C 	0.55990 0.52574 0.83996 0.13700
C 	C 	0.59840 0.59270 0.84797 -0.19000
H 	H 	0.59570 0.62170 0.81960 0.09700
C 	C 	0.63980 0.61560 0.89721 0.10700
H 	H 	0.66330 0.66080 0.90140 -0.02800
C 	C 	0.51520 0.49872 0.78642 -0.08900
C 	C 	0.54400 0.43260 0.77500 0.04700
H 	H 	0.58810 0.40450 0.80140 0.01400
C 	C 	0.50840 0.40750 0.72531 -0.16900
H 	H 	0.52700 0.36270 0.71860 0.09300
C 	C 	0.44490 0.44870 0.68523 0.15000
C 	C 	0.41510 0.51460 0.69628 -0.17400
H 	H 	0.37090 0.54260 0.66990 0.09000
C 	C 	0.45050 0.53920 0.74632 0.04900
H 	H 	0.43040 0.58380 0.75320 0.00900
C 	C 	0.53140 0.37910 0.61698 0.15100
C 	C 	0.68190 0.39810 0.62301 -0.17200
H 	H 	0.71060 0.43870 0.63900 0.09100
C 	C 	0.79050 0.35710 0.60539 0.04700
H 	H 	0.89240 0.36990 0.61040 0.01400
C 	C 	0.75100 0.29703 0.58037 -0.08800
C 	C 	0.60110 0.27850 0.57586 0.05300
H 	H 	0.57260 0.23770 0.56040 0.00900
C 	C 	0.49000 0.31870 0.59364 -0.17200
H 	H 	0.38860 0.30500 0.58990 0.09300
C 	C 	0.86860 0.25600 0.55871 0.13200
C 	C 	0.99400 0.28570 0.54046 -0.18000
H 	H 	0.00580 0.33200 0.54200 0.09800
C 	C 	0.10080 0.24680 0.52010 0.09800
H 	H 	0.18370 0.26790 0.50800 -0.01000
C 	C 	0.97030 0.15170 0.53453 0.10400
H 	H 	0.96160 0.10540 0.53270 -0.01600
C 	C 	0.85790 0.18750 0.55531 -0.18000
H 	H 	0.77560 0.16530 0.56690 0.09900
C 	C 	0.29980 0.44580 0.59652 0.13400
C 	C 	0.32070 0.44950 0.54447 -0.14100
H 	H 	0.41470 0.43810 0.53420 0.08400
C 	C 	0.20390 0.47010 0.50719 -0.00400
H 	H 	0.22120 0.47120 0.47230 0.03200
C 	C 	0.06260 0.48909 0.52005 -0.01500
C 	C 	0.04600 0.48679 0.57302 -0.00400
H 	H 	0.95410 0.50040 0.58390 0.03200
C 	C 	0.16130 0.46504 0.61003 -0.14400
H 	H 	0.14430 0.46340 0.64500 0.08400
C 	C 	0.49450 0.69790 0.04766 0.34200
C 	C 	0.36690 0.73572 0.06652 -0.12000
C 	C 	0.36770 0.80480 0.06923 0.04800
H 	H 	0.44710 0.82840 0.05700 0.02500
C 	C 	0.25340 0.83950 0.08968 -0.11900
H 	H 	0.25820 0.88600 0.09140 0.07300
C 	C 	0.13150 0.80657 0.10776 0.05000
C 	C 	0.12490 0.73670 0.10286 -0.12300
H 	H 	0.04240 0.71330 0.11310 0.08400
C 	C 	0.24060 0.70270 0.08286 0.04900
H 	H 	0.23480 0.65630 0.08010 0.02800
C 	C 	0.01360 0.84299 0.13254 0.04000
C 	C 	0.86210 0.84500 0.11126 -0.11100
H 	H 	0.83140 0.82200 0.08040 0.07700
C 	C 	0.75680 0.88040 0.13514 0.03100
H 	H 	0.65610 0.88240 0.11980 0.01900
C 	C 	0.79940 0.91340 0.18192 -0.11200
H 	H 	0.72670 0.93700 0.19780 0.06900
C 	C 	0.94840 0.91170 0.20521 0.04000
C 	C 	0.05400 0.87682 0.17956 -0.10900
H 	H 	0.15540 0.87600 0.19430 0.06700
C 	C 	0.99400 0.94500 0.25623 0.04400
C 	C 	0.93290 0.00490 0.26830 -0.11100
H 	H 	0.85890 0.02450 0.24440 0.06900
C 	C 	0.97770 0.03720 0.31518 0.04100
H 	H 	0.93460 0.07830 0.32200 0.02900
C 	C 	0.08570 0.00910 0.35186 -0.10900
C 	C 	0.14490 0.94790 0.34080 0.03800
H 	H 	0.21570 0.92740 0.36540 0.02800
C 	C 	0.10040 0.91600 0.29331 -0.10900
H 	H 	0.14270 0.87480 0.28640 0.06800
C 	C 	0.14280 0.04640 0.40099 0.33500
Cd	Cd	0.72565 0.62089 0.02075 1.21800
N 	N 	0.41750 0.42218 0.63369 -0.18000
N 	N 	0.64920 0.57679 0.94050 -0.25800
N 	N 	0.09130 0.18057 0.51683 -0.24800
O 	O 	0.60870 0.72798 0.03641 -0.38600
O 	O 	0.48270 0.63634 0.04319 -0.40600
O 	O 	0.21450 0.01613 0.43806 -0.39100
O 	O 	0.12110 0.10749 0.40180 -0.40600
C 	C 	0.61280 0.98690 0.43256 0.11100
H 	H 	0.61850 0.01520 0.46140 -0.01300
C 	C 	0.56670 0.01370 0.38382 -0.19100
H 	H 	0.54010 0.05860 0.38070 0.10700
C 	C 	0.55990 0.97426 0.33996 0.13500
C 	C 	0.59840 0.90730 0.34797 -0.18900
H 	H 	0.59570 0.87830 0.31960 0.09600
C 	C 	0.63980 0.88440 0.39721 0.10600
H 	H 	0.66330 0.83920 0.40140 -0.02800
C 	C 	0.51520 0.00128 0.28642 -0.08800
C 	C 	0.54400 0.06740 0.27500 0.04600
H 	H 	0.58810 0.09550 0.30140 0.01400
C 	C 	0.50840 0.09250 0.22531 -0.16900
H 	H 	0.52700 0.13730 0.21860 0.09300
C 	C 	0.44490 0.05130 0.18523 0.15100
C 	C 	0.41510 0.98540 0.19628 -0.17500
H 	H 	0.37090 0.95740 0.16990 0.09000
C 	C 	0.45050 0.96080 0.24632 0.04800
H 	H 	0.43040 0.91620 0.25320 0.00900
C 	C 	0.53140 0.12090 0.11698 0.15100
C 	C 	0.68190 0.10190 0.12301 -0.17200
H 	H 	0.71060 0.06130 0.13900 0.09100
C 	C 	0.79050 0.14290 0.10539 0.04700
H 	H 	0.89240 0.13010 0.11040 0.01400
C 	C 	0.75100 0.20297 0.08037 -0.08900
C 	C 	0.60110 0.22150 0.07586 0.05300
H 	H 	0.57260 0.26230 0.06040 0.00900
C 	C 	0.49000 0.18130 0.09364 -0.17200
H 	H 	0.38860 0.19500 0.08990 0.09400
C 	C 	0.86860 0.24400 0.05871 0.13300
C 	C 	0.99400 0.21430 0.04046 -0.18100
H 	H 	0.00580 0.16800 0.04200 0.09800
C 	C 	0.10080 0.25320 0.02010 0.09800
H 	H 	0.18370 0.23210 0.00800 -0.01000
C 	C 	0.97030 0.34830 0.03453 0.10400
H 	H 	0.96160 0.39460 0.03270 -0.01600
C 	C 	0.85790 0.31250 0.05531 -0.18100
H 	H 	0.77560 0.33470 0.06690 0.09900
C 	C 	0.29980 0.05420 0.09652 0.13600
C 	C 	0.32070 0.05050 0.04447 -0.14300
H 	H 	0.41470 0.06190 0.03420 0.08500
C 	C 	0.20390 0.02990 0.00719 -0.00100
H 	H 	0.22120 0.02880 0.97230 0.03000
C 	C 	0.06260 0.01091 0.02005 -0.01600
C 	C 	0.04600 0.01321 0.07302 -0.00200
H 	H 	0.95410 0.99960 0.08390 0.03100
C 	C 	0.16130 0.03496 0.11003 -0.14600
H 	H 	0.14430 0.03660 0.14500 0.08500
C 	C 	0.49450 0.80210 0.54766 0.34200
C 	C 	0.36690 0.76428 0.56652 -0.12000
C 	C 	0.36770 0.69520 0.56923 0.04800
H 	H 	0.44710 0.67160 0.55700 0.02500
C 	C 	0.25340 0.66050 0.58968 -0.12000
H 	H 	0.25820 0.61400 0.59140 0.07300
C 	C 	0.13150 0.69343 0.60776 0.05000
C 	C 	0.12490 0.76330 0.60286 -0.12300
H 	H 	0.04240 0.78670 0.61310 0.08400
C 	C 	0.24060 0.79730 0.58286 0.05000
H 	H 	0.23480 0.84370 0.58010 0.02800
C 	C 	0.01360 0.65701 0.63254 0.03900
C 	C 	0.86210 0.65500 0.61126 -0.11000
H 	H 	0.83140 0.67800 0.58040 0.07700
C 	C 	0.75680 0.61960 0.63514 0.03000
H 	H 	0.65610 0.61760 0.61980 0.02000
C 	C 	0.79940 0.58660 0.68192 -0.11100
H 	H 	0.72670 0.56300 0.69780 0.06900
C 	C 	0.94840 0.58830 0.70521 0.03900
C 	C 	0.05400 0.62318 0.67956 -0.10900
H 	H 	0.15540 0.62400 0.69430 0.06700
C 	C 	0.99400 0.55500 0.75623 0.04600
C 	C 	0.93290 0.49510 0.76830 -0.11300
H 	H 	0.85890 0.47550 0.74440 0.07000
C 	C 	0.97770 0.46280 0.81518 0.04200
H 	H 	0.93460 0.42170 0.82200 0.02900
C 	C 	0.08570 0.49090 0.85186 -0.11000
C 	C 	0.14490 0.55210 0.84080 0.03900
H 	H 	0.21570 0.57260 0.86540 0.02800
C 	C 	0.10040 0.58400 0.79331 -0.11100
H 	H 	0.14270 0.62520 0.78640 0.06800
C 	C 	0.14280 0.45360 0.90099 0.33500
Cd	Cd	0.72565 0.87911 0.52075 1.21800
N 	N 	0.41750 0.07782 0.13369 -0.18100
N 	N 	0.64920 0.92321 0.44050 -0.25800
N 	N 	0.09130 0.31943 0.01683 -0.24800
O 	O 	0.60870 0.77202 0.53641 -0.38600
O 	O 	0.48270 0.86366 0.54319 -0.40600
O 	O 	0.21450 0.48387 0.93806 -0.39100
O 	O 	0.12110 0.39251 0.90180 -0.40700
C 	C 	0.38720 0.48690 0.06744 0.11300
H 	H 	0.38150 0.51520 0.03860 -0.01400
C 	C 	0.43330 0.51370 0.11618 -0.19200
H 	H 	0.45990 0.55860 0.11930 0.10700
C 	C 	0.44010 0.47426 0.16004 0.13700
C 	C 	0.40160 0.40730 0.15203 -0.19000
H 	H 	0.40430 0.37830 0.18040 0.09700
C 	C 	0.36020 0.38440 0.10279 0.10700
H 	H 	0.33670 0.33920 0.09860 -0.02800
C 	C 	0.48480 0.50128 0.21358 -0.08900
C 	C 	0.45600 0.56740 0.22500 0.04700
H 	H 	0.41190 0.59550 0.19860 0.01400
C 	C 	0.49160 0.59250 0.27469 -0.16900
H 	H 	0.47300 0.63730 0.28140 0.09300
C 	C 	0.55510 0.55130 0.31477 0.15000
C 	C 	0.58490 0.48540 0.30372 -0.17400
H 	H 	0.62910 0.45740 0.33010 0.09000
C 	C 	0.54950 0.46080 0.25368 0.04900
H 	H 	0.56960 0.41620 0.24680 0.00900
C 	C 	0.46860 0.62090 0.38302 0.15100
C 	C 	0.31810 0.60190 0.37699 -0.17200
H 	H 	0.28940 0.56130 0.36100 0.09100
C 	C 	0.20950 0.64290 0.39461 0.04700
H 	H 	0.10760 0.63010 0.38960 0.01400
C 	C 	0.24900 0.70297 0.41963 -0.08800
C 	C 	0.39890 0.72150 0.42414 0.05300
H 	H 	0.42740 0.76230 0.43960 0.00900
C 	C 	0.51000 0.68130 0.40636 -0.17200
H 	H 	0.61140 0.69500 0.41010 0.09300
C 	C 	0.13140 0.74400 0.44129 0.13200
C 	C 	0.00600 0.71430 0.45954 -0.18000
H 	H 	0.99420 0.66800 0.45800 0.09800
C 	C 	0.89920 0.75320 0.47990 0.09800
H 	H 	0.81630 0.73210 0.49200 -0.01000
C 	C 	0.02970 0.84830 0.46547 0.10400
H 	H 	0.03840 0.89460 0.46730 -0.01600
C 	C 	0.14210 0.81250 0.44469 -0.18000
H 	H 	0.22440 0.83470 0.43310 0.09900
C 	C 	0.70020 0.55420 0.40348 0.13400
C 	C 	0.67930 0.55050 0.45553 -0.14100
H 	H 	0.58530 0.56190 0.46580 0.08400
C 	C 	0.79610 0.52990 0.49281 -0.00400
H 	H 	0.77880 0.52880 0.52770 0.03200
C 	C 	0.93740 0.51091 0.47995 -0.01500
C 	C 	0.95400 0.51321 0.42698 -0.00400
H 	H 	0.04590 0.49960 0.41610 0.03200
C 	C 	0.83870 0.53496 0.38997 -0.14400
H 	H 	0.85570 0.53660 0.35500 0.08400
C 	C 	0.50550 0.30210 0.95234 0.34200
C 	C 	0.63310 0.26428 0.93348 -0.12000
C 	C 	0.63230 0.19520 0.93077 0.04800
H 	H 	0.55290 0.17160 0.94300 0.02500
C 	C 	0.74660 0.16050 0.91032 -0.11900
H 	H 	0.74180 0.11400 0.90860 0.07300
C 	C 	0.86850 0.19343 0.89224 0.05000
C 	C 	0.87510 0.26330 0.89714 -0.12300
H 	H 	0.95760 0.28670 0.88690 0.08400
C 	C 	0.75940 0.29730 0.91714 0.04900
H 	H 	0.76520 0.34370 0.91990 0.02800
C 	C 	0.98640 0.15701 0.86746 0.04000
C 	C 	0.13790 0.15500 0.88874 -0.11100
H 	H 	0.16860 0.17800 0.91960 0.07700
C 	C 	0.24320 0.11960 0.86486 0.03100
H 	H 	0.34390 0.11760 0.88020 0.01900
C 	C 	0.20060 0.08660 0.81808 -0.11200
H 	H 	0.27330 0.06300 0.80220 0.06900
C 	C 	0.05160 0.08830 0.79479 0.04000
C 	C 	0.94600 0.12318 0.82044 -0.10900
H 	H 	0.84460 0.12400 0.80570 0.06700
C 	C 	0.00600 0.05500 0.74377 0.04400
C 	C 	0.06710 0.99510 0.73170 -0.11100
H 	H 	0.14110 0.97550 0.75560 0.06900
C 	C 	0.02230 0.96280 0.68482 0.04100
H 	H 	0.06540 0.92170 0.67800 0.02900
C 	C 	0.91430 0.99090 0.64814 -0.10900
C 	C 	0.85510 0.05210 0.65920 0.03800
H 	H 	0.78430 0.07260 0.63460 0.02800
C 	C 	0.89960 0.08400 0.70669 -0.10900
H 	H 	0.85730 0.12520 0.71360 0.06800
C 	C 	0.85720 0.95360 0.59901 0.33500
Cd	Cd	0.27435 0.37911 0.97925 1.21800
N 	N 	0.58250 0.57782 0.36631 -0.18000
N 	N 	0.35080 0.42321 0.05950 -0.25800
N 	N 	0.90870 0.81943 0.48317 -0.24800
O 	O 	0.39130 0.27202 0.96359 -0.38600
O 	O 	0.51730 0.36366 0.95681 -0.40600
O 	O 	0.78550 0.98387 0.56194 -0.39100
O 	O 	0.87890 0.89251 0.59820 -0.40600
