data_crystal

_cell_length_a 10.73200
_cell_length_b 20.42100
_cell_length_c 22.12500
_cell_angle_alpha 90.00000
_cell_angle_beta  90.00000
_cell_angle_gamma 90.00000

_symmetry_space_group_name_	'P 1'
_symmetry_space_group_name_H-M	'P 1'

loop_
_symmetry_equiv_pos_as_xyz
  x,y,z

loop_
_atom_site_label
_atom_site_type_symbol
_atom_site_fract_x
_atom_site_fract_y
_atom_site_fract_z
_atom_site_charge
Cd	Cd	0.56965 0.13883 0.62489 1.13200
N 	N 	0.64110 0.06650 0.44039 -0.16700
N 	N 	0.60110 0.08230 0.53662 -0.27500
N 	N 	0.86250 0.01980 0.25593 -0.16300
N 	N 	0.93280 0.94910 0.18924 -0.26500
N 	N 	0.56960 0.20040 0.26166 -0.16400
N 	N 	0.53680 0.28330 0.19957 -0.27400
C 	C 	0.66510 0.08100 0.37820 0.20100
C 	C 	0.75050 0.04470 0.34730 -0.28500
H 	H 	0.79140 0.01010 0.36610 0.11200
C 	C 	0.77550 0.05980 0.28800 0.21300
C 	C 	0.71520 0.11020 0.25870 -0.27500
H 	H 	0.73170 0.11920 0.21830 0.12000
C 	C 	0.62920 0.14720 0.29090 0.21100
C 	C 	0.60210 0.13270 0.34980 -0.27400
H 	H 	0.54260 0.15680 0.37080 0.11000
C 	C 	0.60030 0.10850 0.48330 0.08700
H 	H 	0.57470 0.15120 0.47550 -0.06500
C 	C 	0.64160 0.01900 0.52840 -0.01800
H 	H 	0.65000 0.98800 0.55890 0.00200
C 	C 	0.66680 0.00900 0.47020 0.00100
H 	H 	0.69630 0.97040 0.45300 -0.01200
C 	C 	0.83890 0.98620 0.20420 0.09100
H 	H 	0.76530 0.98930 0.18220 -0.04200
C 	C 	0.01990 0.95820 0.23350 -0.01400
H 	H 	0.09730 0.93780 0.23500 -0.00800
C 	C 	0.97660 0.00100 0.27440 0.00700
H 	H 	0.01780 0.01510 0.30900 0.01200
C 	C 	0.61370 0.23720 0.21530 0.08800
H 	H 	0.69040 0.23020 0.19680 -0.05200
C 	C 	0.43590 0.27690 0.23820 -0.02000
H 	H 	0.36530 0.30330 0.23770 -0.01500
C 	C 	0.45520 0.22680 0.27620 -0.00200
H 	H 	0.40170 0.21270 0.30660 0.00500
Cd	Cd	0.93035 0.86117 0.12489 1.13100
N 	N 	0.85890 0.93350 0.94039 -0.16800
N 	N 	0.89890 0.91770 0.03662 -0.27600
N 	N 	0.63750 0.98020 0.75593 -0.16400
N 	N 	0.56720 0.05090 0.68924 -0.26400
N 	N 	0.93040 0.79960 0.76166 -0.16500
N 	N 	0.96320 0.71670 0.69957 -0.27400
C 	C 	0.83490 0.91900 0.87820 0.20100
C 	C 	0.74950 0.95530 0.84730 -0.28500
H 	H 	0.70860 0.98990 0.86610 0.11200
C 	C 	0.72450 0.94020 0.78800 0.21300
C 	C 	0.78480 0.88980 0.75870 -0.27500
H 	H 	0.76830 0.88080 0.71830 0.12000
C 	C 	0.87080 0.85280 0.79090 0.21100
C 	C 	0.89790 0.86730 0.84980 -0.27400
H 	H 	0.95740 0.84320 0.87080 0.11000
C 	C 	0.89970 0.89150 0.98330 0.08800
H 	H 	0.92530 0.84880 0.97550 -0.06500
C 	C 	0.85840 0.98100 0.02840 -0.02300
H 	H 	0.85000 0.01200 0.05890 0.00500
C 	C 	0.83320 0.99100 0.97020 0.00400
H 	H 	0.80370 0.02960 0.95300 -0.01300
C 	C 	0.66110 0.01380 0.70420 0.09100
H 	H 	0.73470 0.01070 0.68220 -0.04200
C 	C 	0.48010 0.04180 0.73350 -0.01500
H 	H 	0.40270 0.06220 0.73500 -0.00800
C 	C 	0.52340 0.99900 0.77440 0.00800
H 	H 	0.48220 0.98490 0.80900 0.01200
C 	C 	0.88630 0.76280 0.71530 0.08800
H 	H 	0.80960 0.76980 0.69680 -0.05200
C 	C 	0.06410 0.72310 0.73820 -0.02000
H 	H 	0.13470 0.69670 0.73770 -0.01500
C 	C 	0.04480 0.77320 0.77620 -0.00200
H 	H 	0.09830 0.78730 0.80660 0.00500
Cd	Cd	0.56965 0.36117 0.12489 1.13100
N 	N 	0.64110 0.43350 0.94039 -0.16800
N 	N 	0.60110 0.41770 0.03662 -0.27600
N 	N 	0.86250 0.48020 0.75593 -0.16400
N 	N 	0.93280 0.55090 0.68924 -0.26400
N 	N 	0.56960 0.29960 0.76166 -0.16400
N 	N 	0.53680 0.21670 0.69957 -0.27400
C 	C 	0.66510 0.41900 0.87820 0.20100
C 	C 	0.75050 0.45530 0.84730 -0.28500
H 	H 	0.79140 0.48990 0.86610 0.11200
C 	C 	0.77550 0.44020 0.78800 0.21300
C 	C 	0.71520 0.38980 0.75870 -0.27500
H 	H 	0.73170 0.38080 0.71830 0.12000
C 	C 	0.62920 0.35280 0.79090 0.21100
C 	C 	0.60210 0.36730 0.84980 -0.27400
H 	H 	0.54260 0.34320 0.87080 0.11000
C 	C 	0.60030 0.39150 0.98330 0.08700
H 	H 	0.57470 0.34880 0.97550 -0.06500
C 	C 	0.64160 0.48100 0.02840 -0.01800
H 	H 	0.65000 0.51200 0.05890 0.00300
C 	C 	0.66680 0.49100 0.97020 0.00100
H 	H 	0.69630 0.52960 0.95300 -0.01100
C 	C 	0.83890 0.51380 0.70420 0.09200
H 	H 	0.76530 0.51070 0.68220 -0.04200
C 	C 	0.01990 0.54180 0.73350 -0.01600
H 	H 	0.09730 0.56220 0.73500 -0.00800
C 	C 	0.97660 0.49900 0.77440 0.00900
H 	H 	0.01780 0.48490 0.80900 0.01100
C 	C 	0.61370 0.26280 0.71530 0.08800
H 	H 	0.69040 0.26980 0.69680 -0.05200
C 	C 	0.43590 0.22310 0.73820 -0.02000
H 	H 	0.36530 0.19670 0.73770 -0.01500
C 	C 	0.45520 0.27320 0.77620 -0.00200
H 	H 	0.40170 0.28730 0.80660 0.00500
Cd	Cd	0.93035 0.63883 0.62489 1.13100
N 	N 	0.85890 0.56650 0.44039 -0.16800
N 	N 	0.89890 0.58230 0.53662 -0.27600
N 	N 	0.63750 0.51980 0.25593 -0.16400
N 	N 	0.56720 0.44910 0.18924 -0.26400
N 	N 	0.93040 0.70040 0.26166 -0.16500
N 	N 	0.96320 0.78330 0.19957 -0.27500
C 	C 	0.83490 0.58100 0.37820 0.20100
C 	C 	0.74950 0.54470 0.34730 -0.28500
H 	H 	0.70860 0.51010 0.36610 0.11200
C 	C 	0.72450 0.55980 0.28800 0.21300
C 	C 	0.78480 0.61020 0.25870 -0.27500
H 	H 	0.76830 0.61920 0.21830 0.12000
C 	C 	0.87080 0.64720 0.29090 0.21100
C 	C 	0.89790 0.63270 0.34980 -0.27400
H 	H 	0.95740 0.65680 0.37080 0.10900
C 	C 	0.89970 0.60850 0.48330 0.08700
H 	H 	0.92530 0.65120 0.47550 -0.06500
C 	C 	0.85840 0.51900 0.52840 -0.01800
H 	H 	0.85000 0.48800 0.55890 0.00300
C 	C 	0.83320 0.50900 0.47020 0.00000
H 	H 	0.80370 0.47040 0.45300 -0.01100
C 	C 	0.66110 0.48620 0.20420 0.09200
H 	H 	0.73470 0.48930 0.18220 -0.04200
C 	C 	0.48010 0.45820 0.23350 -0.01400
H 	H 	0.40270 0.43780 0.23500 -0.00800
C 	C 	0.52340 0.50100 0.27440 0.00700
H 	H 	0.48220 0.51510 0.30900 0.01200
C 	C 	0.88630 0.73720 0.21530 0.08800
H 	H 	0.80960 0.73020 0.19680 -0.05200
C 	C 	0.06410 0.77690 0.23820 -0.01900
H 	H 	0.13470 0.80330 0.23770 -0.01500
C 	C 	0.04480 0.72680 0.27620 -0.00100
H 	H 	0.09830 0.71270 0.30660 0.00500
Cd	Cd	0.43035 0.63883 0.87511 1.13100
N 	N 	0.35890 0.56650 0.05961 -0.16800
N 	N 	0.39890 0.58230 0.96338 -0.27600
N 	N 	0.13750 0.51980 0.24407 -0.16400
N 	N 	0.06720 0.44910 0.31076 -0.26400
N 	N 	0.43040 0.70040 0.23834 -0.16400
N 	N 	0.46320 0.78330 0.30043 -0.27400
C 	C 	0.33490 0.58100 0.12180 0.20100
C 	C 	0.24950 0.54470 0.15270 -0.28500
H 	H 	0.20860 0.51010 0.13390 0.11200
C 	C 	0.22450 0.55980 0.21200 0.21300
C 	C 	0.28480 0.61020 0.24130 -0.27500
H 	H 	0.26830 0.61920 0.28170 0.12000
C 	C 	0.37080 0.64720 0.20910 0.21100
C 	C 	0.39790 0.63270 0.15020 -0.27400
H 	H 	0.45740 0.65680 0.12920 0.11000
C 	C 	0.39970 0.60850 0.01670 0.08700
H 	H 	0.42530 0.65120 0.02450 -0.06500
C 	C 	0.35840 0.51900 0.97160 -0.01800
H 	H 	0.35000 0.48800 0.94110 0.00300
C 	C 	0.33320 0.50900 0.02980 0.00100
H 	H 	0.30370 0.47040 0.04700 -0.01100
C 	C 	0.16110 0.48620 0.29580 0.09200
H 	H 	0.23470 0.48930 0.31780 -0.04200
C 	C 	0.98010 0.45820 0.26650 -0.01600
H 	H 	0.90270 0.43780 0.26500 -0.00800
C 	C 	0.02340 0.50100 0.22560 0.00900
H 	H 	0.98220 0.51510 0.19100 0.01100
C 	C 	0.38630 0.73720 0.28470 0.08800
H 	H 	0.30960 0.73020 0.30320 -0.05200
C 	C 	0.56410 0.77690 0.26180 -0.02000
H 	H 	0.63470 0.80330 0.26230 -0.01500
C 	C 	0.54480 0.72680 0.22380 -0.00200
H 	H 	0.59830 0.71270 0.19340 0.00500
Cd	Cd	0.06965 0.36117 0.37511 1.13100
N 	N 	0.14110 0.43350 0.55961 -0.16800
N 	N 	0.10110 0.41770 0.46338 -0.27600
N 	N 	0.36250 0.48020 0.74407 -0.16400
N 	N 	0.43280 0.55090 0.81076 -0.26400
N 	N 	0.06960 0.29960 0.73834 -0.16500
N 	N 	0.03680 0.21670 0.80043 -0.27500
C 	C 	0.16510 0.41900 0.62180 0.20100
C 	C 	0.25050 0.45530 0.65270 -0.28500
H 	H 	0.29140 0.48990 0.63390 0.11200
C 	C 	0.27550 0.44020 0.71200 0.21300
C 	C 	0.21520 0.38980 0.74130 -0.27500
H 	H 	0.23170 0.38080 0.78170 0.12000
C 	C 	0.12920 0.35280 0.70910 0.21100
C 	C 	0.10210 0.36730 0.65020 -0.27400
H 	H 	0.04260 0.34320 0.62920 0.10900
C 	C 	0.10030 0.39150 0.51670 0.08700
H 	H 	0.07470 0.34880 0.52450 -0.06500
C 	C 	0.14160 0.48100 0.47160 -0.01800
H 	H 	0.15000 0.51200 0.44110 0.00300
C 	C 	0.16680 0.49100 0.52980 0.00000
H 	H 	0.19630 0.52960 0.54700 -0.01100
C 	C 	0.33890 0.51380 0.79580 0.09200
H 	H 	0.26530 0.51070 0.81780 -0.04200
C 	C 	0.51990 0.54180 0.76650 -0.01400
H 	H 	0.59730 0.56220 0.76500 -0.00800
C 	C 	0.47660 0.49900 0.72560 0.00700
H 	H 	0.51780 0.48490 0.69100 0.01200
C 	C 	0.11370 0.26280 0.78470 0.08800
H 	H 	0.19040 0.26980 0.80320 -0.05200
C 	C 	0.93590 0.22310 0.76180 -0.01900
H 	H 	0.86530 0.19670 0.76230 -0.01500
C 	C 	0.95520 0.27320 0.72380 -0.00100
H 	H 	0.90170 0.28730 0.69340 0.00500
Cd	Cd	0.43035 0.86117 0.37511 1.13100
N 	N 	0.35890 0.93350 0.55961 -0.16800
N 	N 	0.39890 0.91770 0.46338 -0.27600
N 	N 	0.13750 0.98020 0.74407 -0.16400
N 	N 	0.06720 0.05090 0.81076 -0.26500
N 	N 	0.43040 0.79960 0.73834 -0.16400
N 	N 	0.46320 0.71670 0.80043 -0.27400
C 	C 	0.33490 0.91900 0.62180 0.20100
C 	C 	0.24950 0.95530 0.65270 -0.28500
H 	H 	0.20860 0.98990 0.63390 0.11200
C 	C 	0.22450 0.94020 0.71200 0.21300
C 	C 	0.28480 0.88980 0.74130 -0.27500
H 	H 	0.26830 0.88080 0.78170 0.12000
C 	C 	0.37080 0.85280 0.70910 0.21100
C 	C 	0.39790 0.86730 0.65020 -0.27400
H 	H 	0.45740 0.84320 0.62920 0.11000
C 	C 	0.39970 0.89150 0.51670 0.08700
H 	H 	0.42530 0.84880 0.52450 -0.06500
C 	C 	0.35840 0.98100 0.47160 -0.01800
H 	H 	0.35000 0.01200 0.44110 0.00200
C 	C 	0.33320 0.99100 0.52980 0.00100
H 	H 	0.30370 0.02960 0.54700 -0.01200
C 	C 	0.16110 0.01380 0.79580 0.09100
H 	H 	0.23470 0.01070 0.81780 -0.04200
C 	C 	0.98010 0.04180 0.76650 -0.01400
H 	H 	0.90270 0.06220 0.76500 -0.00800
C 	C 	0.02340 0.99900 0.72560 0.00700
H 	H 	0.98220 0.98490 0.69100 0.01200
C 	C 	0.38630 0.76280 0.78470 0.08800
H 	H 	0.30960 0.76980 0.80320 -0.05200
C 	C 	0.56410 0.72310 0.76180 -0.02000
H 	H 	0.63470 0.69670 0.76230 -0.01500
C 	C 	0.54480 0.77320 0.72380 -0.00200
H 	H 	0.59830 0.78730 0.69340 0.00500
Cd	Cd	0.06965 0.13883 0.87511 1.13100
N 	N 	0.14110 0.06650 0.05961 -0.16800
N 	N 	0.10110 0.08230 0.96338 -0.27600
N 	N 	0.36250 0.01980 0.24407 -0.16400
N 	N 	0.43280 0.94910 0.31076 -0.26400
N 	N 	0.06960 0.20040 0.23834 -0.16500
N 	N 	0.03680 0.28330 0.30043 -0.27400
C 	C 	0.16510 0.08100 0.12180 0.20100
C 	C 	0.25050 0.04470 0.15270 -0.28500
H 	H 	0.29140 0.01010 0.13390 0.11200
C 	C 	0.27550 0.05980 0.21200 0.21300
C 	C 	0.21520 0.11020 0.24130 -0.27500
H 	H 	0.23170 0.11920 0.28170 0.12000
C 	C 	0.12920 0.14720 0.20910 0.21100
C 	C 	0.10210 0.13270 0.15020 -0.27400
H 	H 	0.04260 0.15680 0.12920 0.11000
C 	C 	0.10030 0.10850 0.01670 0.08800
H 	H 	0.07470 0.15120 0.02450 -0.06500
C 	C 	0.14160 0.01900 0.97160 -0.02300
H 	H 	0.15000 0.98800 0.94110 0.00500
C 	C 	0.16680 0.00900 0.02980 0.00400
H 	H 	0.19630 0.97040 0.04700 -0.01300
C 	C 	0.33890 0.98620 0.29580 0.09100
H 	H 	0.26530 0.98930 0.31780 -0.04200
C 	C 	0.51990 0.95820 0.26650 -0.01500
H 	H 	0.59730 0.93780 0.26500 -0.00800
C 	C 	0.47660 0.00100 0.22560 0.00800
H 	H 	0.51780 0.01510 0.19100 0.01200
C 	C 	0.11370 0.23720 0.28470 0.08800
H 	H 	0.19040 0.23020 0.30320 -0.05200
C 	C 	0.93590 0.27690 0.26180 -0.02000
H 	H 	0.86530 0.30330 0.26230 -0.01500
C 	C 	0.95520 0.22680 0.22380 -0.00200
H 	H 	0.90170 0.21270 0.19340 0.00500
