data_crystal

_cell_length_a 13.68310
_cell_length_b 13.68310
_cell_length_c 16.19550
_cell_angle_alpha 66.58150
_cell_angle_beta  66.58150
_cell_angle_gamma 74.94560

_symmetry_space_group_name_	'P 1'
_symmetry_space_group_name_H-M	'P 1'

loop_
_symmetry_equiv_pos_as_xyz
  x,y,z

loop_
_atom_site_label
_atom_site_type_symbol
_atom_site_fract_x
_atom_site_fract_y
_atom_site_fract_z
_atom_site_charge
Ho	Ho	0.66281 0.95456 0.99796 1.66400
Ho	Ho	0.04544 0.33719 0.50204 1.69400
Ho	Ho	0.33719 0.04544 0.00204 1.66400
Ho	Ho	0.95456 0.66281 0.49796 1.69400
H 	H 	0.83710 0.72570 0.24400 0.05400
H 	H 	0.96000 0.41840 0.27700 0.06800
H 	H 	0.84370 0.59150 0.06210 0.10800
H 	H 	0.57900 0.63020 0.15400 0.07500
H 	H 	0.27430 0.16290 0.25600 0.05200
H 	H 	0.58160 0.04000 0.22300 0.06600
H 	H 	0.40850 0.15630 0.43790 0.10600
H 	H 	0.36980 0.42100 0.34600 0.07400
H 	H 	0.16290 0.27430 0.75600 0.05400
H 	H 	0.04000 0.58160 0.72300 0.06800
H 	H 	0.15630 0.40850 0.93790 0.10800
H 	H 	0.42100 0.36980 0.84600 0.07500
H 	H 	0.72570 0.83710 0.74400 0.05200
H 	H 	0.41840 0.96000 0.77700 0.06600
H 	H 	0.59150 0.84370 0.56210 0.10600
H 	H 	0.63020 0.57900 0.65400 0.07400
H 	H 	0.26660 0.73340 0.25000 0.01000
H 	H 	0.73340 0.26660 0.75000 0.01000
C 	C 	0.44900 0.81080 0.12470 0.46800
C 	C 	0.83200 0.67480 0.14510 -0.03600
C 	C 	0.85490 0.66650 0.22390 0.01400
C 	C 	0.90380 0.57160 0.27320 -0.10000
C 	C 	0.92840 0.48320 0.24430 -0.03900
C 	C 	0.90500 0.49320 0.16650 0.10200
C 	C 	0.85760 0.58740 0.11520 -0.06500
C 	C 	0.77780 0.77620 0.09070 0.30000
C 	C 	0.92990 0.56350 0.35790 0.46000
C 	C 	0.42530 0.69890 0.19040 -0.13500
C 	C 	0.50880 0.61680 0.19160 -0.01200
C 	C 	0.18920 0.55100 0.37530 0.47100
C 	C 	0.32520 0.16800 0.35490 -0.03900
C 	C 	0.33350 0.14510 0.27610 0.01500
C 	C 	0.42840 0.09620 0.22680 -0.10200
C 	C 	0.51680 0.07160 0.25570 -0.03800
C 	C 	0.50680 0.09500 0.33350 0.10000
C 	C 	0.41260 0.14240 0.38480 -0.06400
C 	C 	0.22380 0.22220 0.40930 0.30200
C 	C 	0.43650 0.07010 0.14210 0.45700
C 	C 	0.30110 0.57470 0.30960 -0.13700
C 	C 	0.38320 0.49120 0.30840 -0.01100
C 	C 	0.55100 0.18920 0.87530 0.46800
C 	C 	0.16800 0.32520 0.85490 -0.03600
C 	C 	0.14510 0.33350 0.77610 0.01400
C 	C 	0.09620 0.42840 0.72680 -0.10000
C 	C 	0.07160 0.51680 0.75570 -0.03900
C 	C 	0.09500 0.50680 0.83350 0.10200
C 	C 	0.14240 0.41260 0.88480 -0.06500
C 	C 	0.22220 0.22380 0.90930 0.30000
C 	C 	0.07010 0.43650 0.64210 0.46000
C 	C 	0.57470 0.30110 0.80960 -0.13500
C 	C 	0.49120 0.38320 0.80840 -0.01200
C 	C 	0.81080 0.44900 0.62470 0.47100
C 	C 	0.67480 0.83200 0.64510 -0.03900
C 	C 	0.66650 0.85490 0.72390 0.01500
C 	C 	0.57160 0.90380 0.77320 -0.10200
C 	C 	0.48320 0.92840 0.74430 -0.03800
C 	C 	0.49320 0.90500 0.66650 0.10000
C 	C 	0.58740 0.85760 0.61520 -0.06400
C 	C 	0.77620 0.77780 0.59070 0.30200
C 	C 	0.56350 0.92990 0.85790 0.45700
C 	C 	0.69890 0.42530 0.69040 -0.13700
C 	C 	0.61680 0.50880 0.69160 -0.01100
C 	C 	0.32240 0.67760 0.25000 0.07800
C 	C 	0.48550 0.51450 0.25000 0.06400
C 	C 	0.67760 0.32240 0.75000 0.07800
C 	C 	0.51450 0.48550 0.75000 0.06400
N 	N 	0.92770 0.39910 0.13430 -0.00300
N 	N 	0.60090 0.07230 0.36570 -0.00300
N 	N 	0.07230 0.60090 0.86570 -0.00300
N 	N 	0.39910 0.92770 0.63430 -0.00300
N 	N 	0.57410 0.42590 0.25000 -0.00500
N 	N 	0.42590 0.57410 0.75000 -0.00500
O 	O 	0.73550 0.85130 0.12570 -0.38900
O 	O 	0.77080 0.78000 0.01540 -0.36700
O 	O 	0.54630 0.82590 0.08620 -0.45200
O 	O 	0.37250 0.87990 0.11060 -0.49600
O 	O 	0.91040 0.64700 0.37880 -0.46200
O 	O 	0.96980 0.47420 0.40120 -0.51000
O 	O 	0.95940 0.31400 0.18530 -0.11200
O 	O 	0.91730 0.41190 0.06110 -0.09900
O 	O 	0.66420 0.44860 0.20260 -0.10000
O 	O 	0.14870 0.26450 0.37430 -0.39800
O 	O 	0.22000 0.22920 0.48460 -0.37500
O 	O 	0.17410 0.45370 0.41380 -0.46200
O 	O 	0.12010 0.62750 0.38940 -0.50600
O 	O 	0.35300 0.08960 0.12120 -0.46300
O 	O 	0.52580 0.03020 0.09880 -0.51000
O 	O 	0.68600 0.04060 0.31470 -0.11300
O 	O 	0.58810 0.08270 0.43890 -0.09900
O 	O 	0.55140 0.33580 0.29740 -0.10000
O 	O 	0.26450 0.14870 0.87430 -0.38900
O 	O 	0.22920 0.22000 0.98460 -0.36700
O 	O 	0.45370 0.17410 0.91380 -0.45200
O 	O 	0.62750 0.12010 0.88940 -0.49600
O 	O 	0.08960 0.35300 0.62120 -0.46200
O 	O 	0.03020 0.52580 0.59880 -0.51000
O 	O 	0.04060 0.68600 0.81470 -0.11200
O 	O 	0.08270 0.58810 0.93890 -0.09900
O 	O 	0.33580 0.55140 0.79740 -0.10000
O 	O 	0.85130 0.73550 0.62570 -0.39800
O 	O 	0.78000 0.77080 0.51540 -0.37500
O 	O 	0.82590 0.54630 0.58620 -0.46200
O 	O 	0.87990 0.37250 0.61060 -0.50600
O 	O 	0.64700 0.91040 0.87880 -0.46300
O 	O 	0.47420 0.96980 0.90120 -0.51000
O 	O 	0.31400 0.95940 0.68530 -0.11300
O 	O 	0.41190 0.91730 0.56110 -0.09900
O 	O 	0.44860 0.66420 0.70260 -0.10000
