data_crystal

_cell_length_a 13.70380
_cell_length_b 13.70380
_cell_length_c 16.21560
_cell_angle_alpha 66.62030
_cell_angle_beta  66.62030
_cell_angle_gamma 74.98580

_symmetry_space_group_name_	'P 1'
_symmetry_space_group_name_H-M	'P 1'

loop_
_symmetry_equiv_pos_as_xyz
  x,y,z

loop_
_atom_site_label
_atom_site_type_symbol
_atom_site_fract_x
_atom_site_fract_y
_atom_site_fract_z
_atom_site_charge
Dy	Dy	0.45462 0.16301 0.49778 1.73200
Dy	Dy	0.83699 0.54538 0.00222 1.70800
Dy	Dy	0.54538 0.83699 0.50222 1.73200
Dy	Dy	0.16301 0.45462 0.99778 1.70800
H 	H 	0.22500 0.33780 0.74430 0.05300
H 	H 	0.91850 0.46050 0.77680 0.06500
H 	H 	0.09080 0.34420 0.56260 0.10700
H 	H 	0.12880 0.07920 0.65430 0.06600
H 	H 	0.66220 0.77500 0.75570 0.05400
H 	H 	0.53950 0.08150 0.72320 0.06600
H 	H 	0.65580 0.90920 0.93740 0.10700
H 	H 	0.92080 0.87120 0.84570 0.06300
H 	H 	0.77500 0.66220 0.25570 0.05300
H 	H 	0.08150 0.53950 0.22320 0.06500
H 	H 	0.90920 0.65580 0.43740 0.10700
H 	H 	0.87120 0.92080 0.34570 0.06600
H 	H 	0.33780 0.22500 0.24430 0.05400
H 	H 	0.46050 0.91850 0.27680 0.06600
H 	H 	0.34420 0.09080 0.06260 0.10700
H 	H 	0.07920 0.12880 0.15430 0.06300
H 	H 	0.23310 0.76690 0.75000 0.00400
H 	H 	0.76690 0.23310 0.25000 0.00400
C 	C 	0.27640 0.27820 0.59050 0.30200
C 	C 	0.17410 0.33170 0.64520 -0.03600
C 	C 	0.16610 0.35530 0.72420 0.01400
C 	C 	0.07120 0.40440 0.77320 -0.10800
C 	C 	0.98290 0.42850 0.74430 -0.02800
C 	C 	0.99210 0.40430 0.66670 0.10200
C 	C 	0.08650 0.35770 0.61590 -0.07000
C 	C 	0.06360 0.42900 0.85780 0.44700
C 	C 	0.31050 0.94950 0.62420 0.47900
C 	C 	0.19880 0.92600 0.68990 -0.15100
C 	C 	0.11570 0.00910 0.69180 0.00900
C 	C 	0.72180 0.72360 0.90950 0.30200
C 	C 	0.66830 0.82590 0.85480 -0.03600
C 	C 	0.64470 0.83390 0.77580 0.01400
C 	C 	0.59560 0.92880 0.72680 -0.10300
C 	C 	0.57150 0.01710 0.75570 -0.03600
C 	C 	0.59570 0.00790 0.83330 0.09900
C 	C 	0.64230 0.91350 0.88410 -0.06400
C 	C 	0.57100 0.93640 0.64220 0.46100
C 	C 	0.05050 0.68950 0.87580 0.46600
C 	C 	0.07400 0.80120 0.81010 -0.15800
C 	C 	0.99090 0.88430 0.80820 0.02700
C 	C 	0.72360 0.72180 0.40950 0.30200
C 	C 	0.82590 0.66830 0.35480 -0.03600
C 	C 	0.83390 0.64470 0.27580 0.01400
C 	C 	0.92880 0.59560 0.22680 -0.10800
C 	C 	0.01710 0.57150 0.25570 -0.02800
C 	C 	0.00790 0.59570 0.33330 0.10200
C 	C 	0.91350 0.64230 0.38410 -0.07000
C 	C 	0.93640 0.57100 0.14220 0.44700
C 	C 	0.68950 0.05050 0.37580 0.47900
C 	C 	0.80120 0.07400 0.31010 -0.15100
C 	C 	0.88430 0.99090 0.30820 0.00900
C 	C 	0.27820 0.27640 0.09050 0.30200
C 	C 	0.33170 0.17410 0.14520 -0.03600
C 	C 	0.35530 0.16610 0.22420 0.01400
C 	C 	0.40440 0.07120 0.27320 -0.10300
C 	C 	0.42850 0.98290 0.24430 -0.03600
C 	C 	0.40430 0.99210 0.16670 0.09900
C 	C 	0.35770 0.08650 0.11590 -0.06400
C 	C 	0.42900 0.06360 0.35780 0.46100
C 	C 	0.94950 0.31050 0.12420 0.46600
C 	C 	0.92600 0.19880 0.18990 -0.15800
C 	C 	0.00910 0.11570 0.19180 0.02700
C 	C 	0.17730 0.82270 0.75000 0.09200
C 	C 	0.01370 0.98630 0.75000 0.03300
C 	C 	0.82270 0.17730 0.25000 0.09200
C 	C 	0.98630 0.01370 0.25000 0.03300
N 	N 	0.89900 0.42760 0.63480 -0.00400
N 	N 	0.57240 0.10100 0.86520 -0.00400
N 	N 	0.10100 0.57240 0.36520 -0.00400
N 	N 	0.42760 0.89900 0.13480 -0.00400
N 	N 	0.92580 0.07420 0.75000 -0.00000
N 	N 	0.07420 0.92580 0.25000 -0.00000
O 	O 	0.28010 0.27170 0.51470 -0.37800
O 	O 	0.35090 0.23750 0.62500 -0.40200
O 	O 	0.14680 0.41020 0.87800 -0.46500
O 	O 	0.97350 0.46930 0.90090 -0.50000
O 	O 	0.91110 0.41730 0.56140 -0.10100
O 	O 	0.81400 0.45860 0.68610 -0.11300
O 	O 	0.32580 0.04640 0.58660 -0.47100
O 	O 	0.37870 0.87230 0.61120 -0.51300
O 	O 	0.83560 0.05200 0.79730 -0.10000
O 	O 	0.72830 0.71990 0.98530 -0.37200
O 	O 	0.76250 0.64910 0.87500 -0.39700
O 	O 	0.58980 0.85320 0.62200 -0.46800
O 	O 	0.53070 0.02650 0.59910 -0.51600
O 	O 	0.58270 0.08890 0.93860 -0.10000
O 	O 	0.54140 0.18600 0.81390 -0.11400
O 	O 	0.95360 0.67420 0.91340 -0.45600
O 	O 	0.12770 0.62130 0.88880 -0.50900
O 	O 	0.94800 0.16440 0.70270 -0.09900
O 	O 	0.71990 0.72830 0.48530 -0.37800
O 	O 	0.64910 0.76250 0.37500 -0.40200
O 	O 	0.85320 0.58980 0.12200 -0.46500
O 	O 	0.02650 0.53070 0.09910 -0.50000
O 	O 	0.08890 0.58270 0.43860 -0.10100
O 	O 	0.18600 0.54140 0.31390 -0.11300
O 	O 	0.67420 0.95360 0.41340 -0.47100
O 	O 	0.62130 0.12770 0.38880 -0.51300
O 	O 	0.16440 0.94800 0.20270 -0.10000
O 	O 	0.27170 0.28010 0.01470 -0.37200
O 	O 	0.23750 0.35090 0.12500 -0.39700
O 	O 	0.41020 0.14680 0.37800 -0.46800
O 	O 	0.46930 0.97350 0.40090 -0.51600
O 	O 	0.41730 0.91110 0.06140 -0.10000
O 	O 	0.45860 0.81400 0.18610 -0.11400
O 	O 	0.04640 0.32580 0.08660 -0.45600
O 	O 	0.87230 0.37870 0.11120 -0.50900
O 	O 	0.05200 0.83560 0.29730 -0.09900
