data_crystal

_cell_length_a 5.39680
_cell_length_b 11.48860
_cell_length_c 13.42330
_cell_angle_alpha 90.67000
_cell_angle_beta  94.90000
_cell_angle_gamma 91.23800

_symmetry_space_group_name_	'P 1'
_symmetry_space_group_name_H-M	'P 1'

loop_
_symmetry_equiv_pos_as_xyz
  x,y,z

loop_
_atom_site_label
_atom_site_type_symbol
_atom_site_fract_x
_atom_site_fract_y
_atom_site_fract_z
_atom_site_charge
Li	Li	0.68730 0.98790 0.93500 0.55700
Li	Li	0.30570 0.48610 0.55970 0.55700
Li	Li	0.31270 0.01210 0.06500 0.55700
Li	Li	0.69430 0.51390 0.44030 0.55700
H 	H 	0.06790 0.18450 0.65500 0.06400
H 	H 	0.99500 0.04520 0.76880 0.01900
H 	H 	0.41310 0.20430 0.84640 0.01800
H 	H 	0.45980 0.34580 0.72970 0.05200
H 	H 	0.55730 0.73340 0.86780 0.06200
H 	H 	0.59550 0.59290 0.74860 0.02000
H 	H 	0.95040 0.66450 0.61420 0.02100
H 	H 	0.88400 0.80020 0.73410 0.05700
H 	H 	0.93210 0.81550 0.34500 0.06300
H 	H 	0.00500 0.95480 0.23120 0.01800
H 	H 	0.58690 0.79570 0.15360 0.01800
H 	H 	0.54020 0.65420 0.27030 0.05200
H 	H 	0.44270 0.26660 0.13220 0.06200
H 	H 	0.40450 0.40710 0.25140 0.02000
H 	H 	0.04960 0.33550 0.38580 0.02100
H 	H 	0.11600 0.19980 0.26590 0.05700
C 	C 	0.82460 0.37390 0.60250 0.35800
C 	C 	0.77280 0.28240 0.67920 -0.05400
C 	C 	0.93190 0.19030 0.69270 -0.06000
C 	C 	0.88790 0.10750 0.76220 0.03700
C 	C 	0.54630 0.19990 0.80700 0.03800
C 	C 	0.57370 0.28620 0.73730 -0.05500
C 	C 	0.16580 0.87060 0.89700 0.36600
C 	C 	0.21270 0.78260 0.81580 -0.05700
C 	C 	0.42930 0.71950 0.81790 -0.06100
C 	C 	0.45150 0.63620 0.74510 0.03800
C 	C 	0.07210 0.67710 0.66680 0.03500
C 	C 	0.03190 0.75970 0.73800 -0.05600
C 	C 	0.17540 0.62610 0.39750 0.35800
C 	C 	0.22720 0.71760 0.32080 -0.05400
C 	C 	0.06810 0.80970 0.30730 -0.06000
C 	C 	0.11210 0.89250 0.23780 0.03700
C 	C 	0.45370 0.80010 0.19300 0.03800
C 	C 	0.42630 0.71380 0.26270 -0.05500
C 	C 	0.83420 0.12940 0.10300 0.36600
C 	C 	0.78730 0.21740 0.18420 -0.05700
C 	C 	0.57070 0.28050 0.18210 -0.06100
C 	C 	0.54850 0.36380 0.25490 0.03800
C 	C 	0.92790 0.32290 0.33320 0.03500
C 	C 	0.96810 0.24030 0.26200 -0.05600
N 	N 	0.69990 0.11090 0.82110 -0.16500
N 	N 	0.27850 0.61340 0.66920 -0.16600
N 	N 	0.30010 0.88910 0.17890 -0.16500
N 	N 	0.72150 0.38660 0.33080 -0.16600
O 	O 	0.03820 0.37980 0.57530 -0.38100
O 	O 	0.64630 0.43750 0.57110 -0.42800
O 	O 	0.94600 0.88760 0.91150 -0.38500
O 	O 	0.35330 0.92030 0.94290 -0.43000
O 	O 	0.96180 0.62020 0.42470 -0.38100
O 	O 	0.35370 0.56250 0.42890 -0.42800
O 	O 	0.05400 0.11240 0.08850 -0.38500
O 	O 	0.64670 0.07970 0.05710 -0.43000
