data_crystal

_cell_length_a 5.40280
_cell_length_b 11.28620
_cell_length_c 13.91750
_cell_angle_alpha 90.00000
_cell_angle_beta  90.00000
_cell_angle_gamma 102.87500

_symmetry_space_group_name_	'P 1'
_symmetry_space_group_name_H-M	'P 1'

loop_
_symmetry_equiv_pos_as_xyz
  x,y,z

loop_
_atom_site_label
_atom_site_type_symbol
_atom_site_fract_x
_atom_site_fract_y
_atom_site_fract_z
_atom_site_charge
Li	Li	0.81240 0.00890 0.56580 0.55700
Li	Li	0.68760 0.49110 0.06580 0.55700
Li	Li	0.18760 0.99110 0.43420 0.55700
Li	Li	0.31240 0.50890 0.93420 0.55700
H 	H 	0.95740 0.72430 0.37320 0.05900
H 	H 	0.39450 0.66820 0.12270 0.01400
H 	H 	0.36430 0.81020 0.23760 0.05700
H 	H 	0.96370 0.58290 0.25530 0.02100
H 	H 	0.54260 0.77570 0.87320 0.05900
H 	H 	0.10550 0.83180 0.62270 0.01400
H 	H 	0.13570 0.68980 0.73760 0.05800
H 	H 	0.53630 0.91710 0.75530 0.02100
H 	H 	0.04260 0.27570 0.62680 0.05900
H 	H 	0.60550 0.33180 0.87730 0.01400
H 	H 	0.63570 0.18980 0.76240 0.05700
H 	H 	0.03630 0.41710 0.74470 0.02100
H 	H 	0.45740 0.22430 0.12680 0.05900
H 	H 	0.89450 0.16820 0.37730 0.01400
H 	H 	0.86430 0.31020 0.26240 0.05800
H 	H 	0.46370 0.08290 0.24470 0.02100
C 	C 	0.63590 0.87480 0.39689 0.37200
C 	C 	0.65850 0.78440 0.31884 -0.06000
C 	C 	0.84030 0.71440 0.32320 -0.05800
C 	C 	0.50810 0.67930 0.17386 0.03600
C 	C 	0.48910 0.76550 0.24255 -0.05400
C 	C 	0.84270 0.62980 0.25159 0.03800
C 	C 	0.86410 0.62520 0.89689 0.37100
C 	C 	0.84150 0.71560 0.81884 -0.05900
C 	C 	0.65970 0.78560 0.82320 -0.05800
C 	C 	0.99190 0.82070 0.67386 0.03800
C 	C 	0.01090 0.73450 0.74255 -0.05500
C 	C 	0.65730 0.87020 0.75159 0.03800
C 	C 	0.36410 0.12520 0.60311 0.37200
C 	C 	0.34150 0.21560 0.68116 -0.06000
C 	C 	0.15970 0.28560 0.67680 -0.05800
C 	C 	0.49190 0.32070 0.82614 0.03600
C 	C 	0.51090 0.23450 0.75745 -0.05400
C 	C 	0.15730 0.37020 0.74841 0.03800
C 	C 	0.13590 0.37480 0.10311 0.37100
C 	C 	0.15850 0.28440 0.18116 -0.05900
C 	C 	0.34030 0.21440 0.17680 -0.05800
C 	C 	0.00810 0.17930 0.32614 0.03800
C 	C 	0.98910 0.26550 0.25745 -0.05500
C 	C 	0.34270 0.12980 0.24841 0.03800
N 	N 	0.68160 0.61120 0.17727 -0.16500
N 	N 	0.81840 0.88880 0.67727 -0.16500
N 	N 	0.31840 0.38880 0.82273 -0.16500
N 	N 	0.18160 0.11120 0.32273 -0.16500
O 	O 	0.82600 0.91302 0.44943 -0.43000
O 	O 	0.42790 0.90417 0.40297 -0.38800
O 	O 	0.67400 0.58698 0.94943 -0.43100
O 	O 	0.07210 0.59583 0.90297 -0.38700
O 	O 	0.17400 0.08698 0.55057 -0.43000
O 	O 	0.57210 0.09583 0.59703 -0.38800
O 	O 	0.32600 0.41302 0.05057 -0.43100
O 	O 	0.92790 0.40417 0.09703 -0.38700
