data_crystal

_cell_length_a 10.86810
_cell_length_b 9.83580
_cell_length_c 14.60590
_cell_angle_alpha 90.00000
_cell_angle_beta  94.09600
_cell_angle_gamma 90.00000

_symmetry_space_group_name_	'P 1'
_symmetry_space_group_name_H-M	'P 1'

loop_
_symmetry_equiv_pos_as_xyz
  x,y,z

loop_
_atom_site_label
_atom_site_type_symbol
_atom_site_fract_x
_atom_site_fract_y
_atom_site_fract_z
_atom_site_charge
C 	C 	0.27850 0.32450 0.17603 0.03700
H 	H 	0.21190 0.33960 0.13140 0.01800
C 	C 	0.47974 0.35560 0.22503 0.03500
H 	H 	0.55780 0.39540 0.21680 0.02100
C 	C 	0.25740 0.24470 0.25169 -0.04800
H 	H 	0.17780 0.20830 0.25910 0.05200
C 	C 	0.46805 0.27420 0.30150 -0.05100
H 	H 	0.53740 0.25650 0.34320 0.05700
C 	C 	0.35421 0.21910 0.31620 -0.06200
C 	C 	0.33291 0.13700 0.40124 0.36500
C 	C 	0.02820 0.59590 0.74797 0.03100
H 	H 	0.96290 0.53140 0.74410 0.02100
C 	C 	0.19050 0.69430 0.82940 0.02900
H 	H 	0.24080 0.70330 0.88500 0.02300
C 	C 	0.21630 0.77610 0.75591 -0.04400
H 	H 	0.28430 0.83700 0.76080 0.05000
C 	C 	0.14138 0.76760 0.67520 -0.06800
C 	C 	0.04440 0.67640 0.67196 -0.04700
H 	H 	0.98980 0.66900 0.61840 0.05200
C 	C 	0.16756 0.85290 0.59242 0.36800
O 	O 	0.22676 0.13682 0.42841 -0.37900
O 	O 	0.42460 0.07630 0.43954 -0.43200
O 	O 	0.27657 0.85906 0.57242 -0.37800
O 	O 	0.07666 0.91000 0.55023 -0.43300
Li	Li	0.08980 0.02120 0.43950 0.55600
Li	Li	0.40470 0.98420 0.55590 0.55700
N 	N 	0.38702 0.38110 0.16253 -0.16600
N 	N 	0.09895 0.60380 0.82644 -0.16600
C 	C 	0.72150 0.82450 0.32397 0.03700
H 	H 	0.78810 0.83960 0.36860 0.01700
C 	C 	0.52026 0.85560 0.27497 0.03500
H 	H 	0.44220 0.89540 0.28320 0.02200
C 	C 	0.74260 0.74470 0.24831 -0.04800
H 	H 	0.82220 0.70830 0.24090 0.05200
C 	C 	0.53195 0.77420 0.19850 -0.05100
H 	H 	0.46260 0.75650 0.15680 0.05700
C 	C 	0.64579 0.71910 0.18380 -0.06200
C 	C 	0.66709 0.63700 0.09876 0.36600
C 	C 	0.97180 0.09590 0.75203 0.04100
H 	H 	0.03710 0.03140 0.75590 0.01400
C 	C 	0.80950 0.19430 0.67060 0.02900
H 	H 	0.75920 0.20330 0.61500 0.02300
C 	C 	0.78370 0.27610 0.74409 -0.04400
H 	H 	0.71570 0.33700 0.73920 0.04900
C 	C 	0.85862 0.26760 0.82480 -0.06900
C 	C 	0.95560 0.17640 0.82804 -0.04300
H 	H 	0.01020 0.16900 0.88160 0.04900
C 	C 	0.83244 0.35290 0.90758 0.36900
O 	O 	0.77324 0.63682 0.07159 -0.37900
O 	O 	0.57540 0.57630 0.06046 -0.43200
O 	O 	0.72343 0.35906 0.92758 -0.37800
O 	O 	0.92334 0.41000 0.94977 -0.43300
Li	Li	0.91020 0.52120 0.06050 0.55600
Li	Li	0.59530 0.48420 0.94410 0.55700
N 	N 	0.61298 0.88110 0.33747 -0.16600
N 	N 	0.90105 0.10380 0.67356 -0.16600
C 	C 	0.72150 0.67550 0.82397 0.03700
H 	H 	0.78810 0.66040 0.86860 0.01800
C 	C 	0.52026 0.64440 0.77497 0.03500
H 	H 	0.44220 0.60460 0.78320 0.02100
C 	C 	0.74260 0.75530 0.74831 -0.04800
H 	H 	0.82220 0.79170 0.74090 0.05200
C 	C 	0.53195 0.72580 0.69850 -0.05100
H 	H 	0.46260 0.74350 0.65680 0.05700
C 	C 	0.64579 0.78090 0.68380 -0.06200
C 	C 	0.66709 0.86300 0.59876 0.36500
C 	C 	0.97180 0.40410 0.25203 0.03100
H 	H 	0.03710 0.46860 0.25590 0.02100
C 	C 	0.80950 0.30570 0.17060 0.02900
H 	H 	0.75920 0.29670 0.11500 0.02300
C 	C 	0.78370 0.22390 0.24409 -0.04400
H 	H 	0.71570 0.16300 0.23920 0.05000
C 	C 	0.85862 0.23240 0.32480 -0.06800
C 	C 	0.95560 0.32360 0.32804 -0.04700
H 	H 	0.01020 0.33100 0.38160 0.05200
C 	C 	0.83244 0.14710 0.40758 0.36800
O 	O 	0.77324 0.86318 0.57159 -0.37900
O 	O 	0.57540 0.92370 0.56046 -0.43200
O 	O 	0.72343 0.14094 0.42758 -0.37800
O 	O 	0.92334 0.09000 0.44977 -0.43300
Li	Li	0.91020 0.97880 0.56050 0.55600
Li	Li	0.59530 0.01580 0.44410 0.55700
N 	N 	0.61298 0.61890 0.83747 -0.16600
N 	N 	0.90105 0.39620 0.17356 -0.16600
C 	C 	0.27850 0.17550 0.67603 0.03700
H 	H 	0.21190 0.16040 0.63140 0.01700
C 	C 	0.47974 0.14440 0.72503 0.03500
H 	H 	0.55780 0.10460 0.71680 0.02200
C 	C 	0.25740 0.25530 0.75169 -0.04800
H 	H 	0.17780 0.29170 0.75910 0.05200
C 	C 	0.46805 0.22580 0.80150 -0.05100
H 	H 	0.53740 0.24350 0.84320 0.05700
C 	C 	0.35421 0.28090 0.81620 -0.06200
C 	C 	0.33291 0.36300 0.90124 0.36600
C 	C 	0.02820 0.90410 0.24797 0.04100
H 	H 	0.96290 0.96860 0.24410 0.01400
C 	C 	0.19050 0.80570 0.32940 0.02900
H 	H 	0.24080 0.79670 0.38500 0.02300
C 	C 	0.21630 0.72390 0.25591 -0.04400
H 	H 	0.28430 0.66300 0.26080 0.04900
C 	C 	0.14138 0.73240 0.17520 -0.06900
C 	C 	0.04440 0.82360 0.17196 -0.04300
H 	H 	0.98980 0.83100 0.11840 0.04900
C 	C 	0.16756 0.64710 0.09242 0.36900
O 	O 	0.22676 0.36318 0.92841 -0.37900
O 	O 	0.42460 0.42370 0.93954 -0.43200
O 	O 	0.27657 0.64094 0.07242 -0.37800
O 	O 	0.07666 0.59000 0.05023 -0.43300
Li	Li	0.08980 0.47880 0.93950 0.55600
Li	Li	0.40470 0.51580 0.05590 0.55700
N 	N 	0.38702 0.11890 0.66253 -0.16600
N 	N 	0.09895 0.89620 0.32644 -0.16600
