data_crystal

_cell_length_a 5.42410
_cell_length_b 13.82930
_cell_length_c 11.11810
_cell_angle_alpha 90.00000
_cell_angle_beta  102.79000
_cell_angle_gamma 90.00000

_symmetry_space_group_name_	'P 1'
_symmetry_space_group_name_H-M	'P 1'

loop_
_symmetry_equiv_pos_as_xyz
  x,y,z

loop_
_atom_site_label
_atom_site_type_symbol
_atom_site_fract_x
_atom_site_fract_y
_atom_site_fract_z
_atom_site_charge
O 	O 	0.82390 0.04677 0.40884 -0.43000
N 	N 	0.67700 0.31769 0.09896 -0.16400
O 	O 	0.41950 0.08635 0.38962 -0.38700
C 	C 	0.63060 0.09647 0.36576 0.37600
C 	C 	0.65320 0.17512 0.27395 -0.06500
C 	C 	0.83920 0.17284 0.20564 -0.05200
H 	H 	0.96340 0.12320 0.21860 0.05700
C 	C 	0.50180 0.32024 0.16740 0.03200
H 	H 	0.38490 0.37240 0.15530 0.01600
C 	C 	0.83970 0.24413 0.11856 0.03800
H 	H 	0.96310 0.24050 0.06990 0.02000
C 	C 	0.48270 0.25137 0.25404 -0.04600
H 	H 	0.35440 0.25590 0.29970 0.05200
Li	Li	0.18290 0.06560 0.48500 0.55700
O 	O 	0.67610 0.54677 0.09116 -0.43200
N 	N 	0.82300 0.81769 0.40104 -0.16400
O 	O 	0.08050 0.58635 0.11038 -0.38700
C 	C 	0.86940 0.59647 0.13424 0.37500
C 	C 	0.84680 0.67512 0.22605 -0.07000
C 	C 	0.66080 0.67284 0.29436 -0.04900
H 	H 	0.53660 0.62320 0.28140 0.05600
C 	C 	0.99820 0.82024 0.33260 0.02500
H 	H 	0.11510 0.87240 0.34470 0.01900
C 	C 	0.66030 0.74413 0.38144 0.03600
H 	H 	0.53690 0.74050 0.43010 0.02000
C 	C 	0.01730 0.75137 0.24596 -0.03800
H 	H 	0.14560 0.75590 0.20030 0.05000
Li	Li	0.31710 0.56560 0.01500 0.55700
O 	O 	0.17610 0.95323 0.59116 -0.43100
N 	N 	0.32300 0.68231 0.90104 -0.16500
O 	O 	0.58050 0.91365 0.61038 -0.38800
C 	C 	0.36940 0.90353 0.63424 0.37500
C 	C 	0.34680 0.82488 0.72605 -0.06500
C 	C 	0.16080 0.82716 0.79436 -0.05200
H 	H 	0.03660 0.87680 0.78140 0.05700
C 	C 	0.49820 0.67976 0.83260 0.03200
H 	H 	0.61510 0.62760 0.84470 0.01600
C 	C 	0.16030 0.75587 0.88144 0.03800
H 	H 	0.03690 0.75950 0.93010 0.02000
C 	C 	0.51730 0.74863 0.74596 -0.04600
H 	H 	0.64560 0.74410 0.70030 0.05200
Li	Li	0.81710 0.93440 0.51500 0.55700
O 	O 	0.32390 0.45323 0.90884 -0.43200
N 	N 	0.17700 0.18231 0.59896 -0.16400
O 	O 	0.91950 0.41365 0.88962 -0.38700
C 	C 	0.13060 0.40353 0.86576 0.37500
C 	C 	0.15320 0.32488 0.77395 -0.07000
C 	C 	0.33920 0.32716 0.70564 -0.04900
H 	H 	0.46340 0.37680 0.71860 0.05600
C 	C 	0.00180 0.17976 0.66740 0.02500
H 	H 	0.88490 0.12760 0.65530 0.01900
C 	C 	0.33970 0.25587 0.61856 0.03600
H 	H 	0.46310 0.25950 0.56990 0.02000
C 	C 	0.98270 0.24863 0.75404 -0.03800
H 	H 	0.85440 0.24410 0.79970 0.05000
Li	Li	0.68290 0.43440 0.98500 0.55700
