data_crystal

_cell_length_a 5.40130
_cell_length_b 17.64400
_cell_length_c 17.82500
_cell_angle_alpha 89.39100
_cell_angle_beta  85.70800
_cell_angle_gamma 86.26800

_symmetry_space_group_name_	'P 1'
_symmetry_space_group_name_H-M	'P 1'

loop_
_symmetry_equiv_pos_as_xyz
  x,y,z

loop_
_atom_site_label
_atom_site_type_symbol
_atom_site_fract_x
_atom_site_fract_y
_atom_site_fract_z
_atom_site_charge
O 	O 	0.36440 0.56837 0.49813 -0.43000
O 	O 	0.05180 0.00408 0.40088 -0.38000
O 	O 	0.34680 0.06685 0.01364 -0.41700
N 	N 	0.29270 0.85370 0.46470 -0.16300
O 	O 	0.94730 0.09261 0.99202 -0.38000
O 	O 	0.14230 0.49723 0.93238 -0.42800
O 	O 	0.96110 0.59756 0.48751 -0.38500
O 	O 	0.64270 0.00281 0.43262 -0.42700
C 	C 	0.18660 0.19580 0.01600 -0.06000
C 	C 	0.22860 0.69700 0.47810 -0.06400
N 	N 	0.71420 0.02840 0.14790 -0.16600
N 	N 	0.21390 0.35280 0.03240 -0.16500
N 	N 	0.27170 0.47430 0.64870 -0.16600
C 	C 	0.56500 0.04580 0.27800 -0.05300
H 	H 	0.43360 0.06380 0.31300 0.05800
C 	C 	0.43080 0.72870 0.50490 -0.05000
H 	H 	0.55430 0.69750 0.52780 0.05700
C 	C 	0.17980 0.61440 0.48870 0.36800
C 	C 	0.38280 0.30340 0.05790 0.03600
H 	H 	0.51580 0.32240 0.08250 0.02000
C 	C 	0.37650 0.22460 0.05080 -0.04800
H 	H 	0.50310 0.19150 0.06990 0.04600
O 	O 	0.54970 0.50349 0.90494 -0.38400
C 	C 	0.83150 0.00510 0.38520 0.35700
C 	C 	0.15520 0.11210 0.00740 0.34900
C 	C 	0.33240 0.49900 0.88630 0.36300
C 	C 	0.78260 0.01130 0.30280 -0.06200
C 	C 	0.10300 0.82190 0.43680 0.03100
H 	H 	0.98820 0.85360 0.41090 0.02200
C 	C 	0.45340 0.80680 0.49820 0.03600
H 	H 	0.59110 0.82760 0.51880 0.01800
C 	C 	0.06340 0.74550 0.44350 -0.04700
H 	H 	0.92100 0.72650 0.42390 0.05400
C 	C 	0.29940 0.49320 0.80380 -0.06400
C 	C 	0.10610 0.45760 0.77590 -0.05000
H 	H 	0.97700 0.43950 0.80920 0.05500
C 	C 	0.00650 0.24730 0.99040 -0.05100
H 	H 	0.86790 0.22980 0.96750 0.05900
C 	C 	0.96070 0.98550 0.24930 -0.04300
H 	H 	0.11240 0.96160 0.26390 0.05300
C 	C 	0.10180 0.44860 0.69920 0.03900
H 	H 	0.96990 0.42240 0.68130 0.02000
C 	C 	0.45170 0.51090 0.67680 0.03500
H 	H 	0.57240 0.53160 0.64230 0.01500
C 	C 	0.54260 0.05350 0.20100 0.03600
H 	H 	0.39410 0.07840 0.18510 0.02000
C 	C 	0.02950 0.32410 0.99850 0.03800
H 	H 	0.90740 0.35840 0.97880 0.01400
Li	Li	0.19890 0.47040 0.03750 0.55700
C 	C 	0.47480 0.52090 0.75230 -0.04800
H 	H 	0.61000 0.54660 0.76870 0.05400
C 	C 	0.92130 0.99400 0.17360 0.03100
H 	H 	0.04780 0.97440 0.13780 0.02400
Li	Li	0.29410 0.46550 0.53340 0.55600
Li	Li	0.31060 0.97240 0.46130 0.55600
Li	Li	0.30990 0.96390 0.96820 0.55600
O 	O 	0.63560 0.43163 0.50187 -0.43100
O 	O 	0.94820 0.99592 0.59912 -0.38100
O 	O 	0.65320 0.93315 0.98636 -0.41800
N 	N 	0.70730 0.14630 0.53530 -0.16400
O 	O 	0.05270 0.90739 0.00798 -0.38000
O 	O 	0.85770 0.50277 0.06762 -0.42800
O 	O 	0.03890 0.40244 0.51249 -0.38500
O 	O 	0.35730 0.99719 0.56738 -0.42700
C 	C 	0.81340 0.80420 0.98400 -0.06000
C 	C 	0.77140 0.30300 0.52190 -0.06400
N 	N 	0.28580 0.97160 0.85210 -0.16600
N 	N 	0.78610 0.64720 0.96760 -0.16500
N 	N 	0.72830 0.52570 0.35130 -0.16600
C 	C 	0.43500 0.95420 0.72200 -0.05300
H 	H 	0.56640 0.93620 0.68700 0.05800
C 	C 	0.56920 0.27130 0.49510 -0.05000
H 	H 	0.44570 0.30250 0.47220 0.05700
C 	C 	0.82020 0.38560 0.51130 0.36800
C 	C 	0.61720 0.69660 0.94210 0.03600
H 	H 	0.48420 0.67760 0.91750 0.02000
C 	C 	0.62350 0.77540 0.94920 -0.04800
H 	H 	0.49690 0.80850 0.93010 0.04600
O 	O 	0.45030 0.49651 0.09506 -0.38400
C 	C 	0.16850 0.99490 0.61480 0.35700
C 	C 	0.84480 0.88790 0.99260 0.34900
C 	C 	0.66760 0.50100 0.11370 0.36300
C 	C 	0.21740 0.98870 0.69720 -0.06200
C 	C 	0.89700 0.17810 0.56320 0.03100
H 	H 	0.01180 0.14640 0.58910 0.02200
C 	C 	0.54660 0.19320 0.50180 0.03600
H 	H 	0.40890 0.17240 0.48120 0.01800
C 	C 	0.93660 0.25450 0.55650 -0.04700
H 	H 	0.07900 0.27350 0.57610 0.05400
C 	C 	0.70060 0.50680 0.19620 -0.06400
C 	C 	0.89390 0.54240 0.22410 -0.05000
H 	H 	0.02300 0.56050 0.19080 0.05500
C 	C 	0.99350 0.75270 0.00960 -0.05100
H 	H 	0.13210 0.77020 0.03250 0.05900
C 	C 	0.03930 0.01450 0.75070 -0.04300
H 	H 	0.88760 0.03840 0.73610 0.05300
C 	C 	0.89820 0.55140 0.30080 0.03900
H 	H 	0.03010 0.57760 0.31870 0.02000
C 	C 	0.54830 0.48910 0.32320 0.03500
H 	H 	0.42760 0.46840 0.35770 0.01500
C 	C 	0.45740 0.94650 0.79900 0.03600
H 	H 	0.60590 0.92160 0.81490 0.02000
C 	C 	0.97050 0.67590 0.00150 0.03800
H 	H 	0.09260 0.64160 0.02120 0.01400
Li	Li	0.80110 0.52960 0.96250 0.55700
C 	C 	0.52520 0.47910 0.24770 -0.04800
H 	H 	0.39000 0.45340 0.23130 0.05400
C 	C 	0.07870 0.00600 0.82640 0.03100
H 	H 	0.95220 0.02560 0.86220 0.02400
Li	Li	0.70590 0.53450 0.46660 0.55600
Li	Li	0.68940 0.02760 0.53870 0.55600
Li	Li	0.69010 0.03610 0.03180 0.55600
