data_crystal

_cell_length_a 10.80930
_cell_length_b 14.34760
_cell_length_c 10.82430
_cell_angle_alpha 90.00000
_cell_angle_beta  103.55900
_cell_angle_gamma 90.00000

_symmetry_space_group_name_	'P 1'
_symmetry_space_group_name_H-M	'P 1'

loop_
_symmetry_equiv_pos_as_xyz
  x,y,z

loop_
_atom_site_label
_atom_site_type_symbol
_atom_site_fract_x
_atom_site_fract_y
_atom_site_fract_z
_atom_site_charge
C 	C 	0.62580 0.09061 0.05980 0.03700
H 	H 	0.68900 0.04330 0.07350 0.02300
C 	C 	0.13290 0.74734 0.42110 0.03100
H 	H 	0.07240 0.79650 0.40720 0.01100
C 	C 	0.12240 0.67836 0.50710 -0.04800
H 	H 	0.05490 0.68000 0.54960 0.05400
Li	Li	0.46960 0.48260 0.74430 0.55700
O 	O 	0.96551 0.37736 0.84329 -0.42900
C 	C 	0.04375 0.24561 0.97073 -0.06300
N 	N 	0.73495 0.75282 0.38151 -0.16600
N 	N 	0.02517 0.10256 0.14140 -0.15800
O 	O 	0.78777 0.47123 0.66526 -0.43000
C 	C 	0.05868 0.32398 0.88080 0.36900
C 	C 	0.71116 0.60559 0.54370 -0.06800
C 	C 	0.11570 0.16487 0.97660 -0.04800
H 	H 	0.17310 0.15720 0.92300 0.05400
C 	C 	0.10230 0.09565 0.06200 0.03500
H 	H 	0.15090 0.04020 0.06400 0.02500
C 	C 	0.96100 0.25298 0.05092 -0.05200
H 	H 	0.90860 0.30650 0.04830 0.05700
C 	C 	0.69440 0.52548 0.62875 0.36900
O 	O 	0.09235 0.52098 0.64832 -0.38800
O 	O 	0.66880 0.33885 0.87327 -0.37400
C 	C 	0.65770 0.75890 0.46230 0.02800
H 	H 	0.61190 0.81510 0.46440 0.01500
O 	O 	0.29066 0.47426 0.65723 -0.43100
O 	O 	0.16300 0.32892 0.85167 -0.38500
C 	C 	0.19660 0.52801 0.61990 0.36900
C 	C 	0.95620 0.18083 0.13482 0.03500
H 	H 	0.90090 0.18720 0.19080 0.02400
O 	O 	0.45904 0.36166 0.82628 -0.42700
C 	C 	0.80020 0.67363 0.38230 0.03200
H 	H 	0.85390 0.66780 0.32470 0.02000
C 	C 	0.79350 0.59936 0.46290 -0.04800
H 	H 	0.84430 0.54530 0.46270 0.05300
N 	N 	0.22483 0.74822 0.35595 -0.16700
C 	C 	0.64200 0.68707 0.54240 -0.04400
H 	H 	0.58430 0.69350 0.59600 0.05100
O 	O 	0.58918 0.51864 0.65581 -0.38600
Li	Li	0.27360 0.35830 0.74790 0.55600
C 	C 	0.63660 0.16353 0.97885 -0.04700
H 	H 	0.70660 0.16640 0.93970 0.05500
C 	C 	0.21090 0.60691 0.53117 -0.06300
Li	Li	0.97200 0.48950 0.73920 0.55600
C 	C 	0.31060 0.67917 0.38050 0.03600
H 	H 	0.37640 0.67870 0.33570 0.01900
N 	N 	0.53102 0.08346 0.11969 -0.15900
C 	C 	0.55717 0.31735 0.87747 0.36300
C 	C 	0.44100 0.14950 0.09520 0.03500
H 	H 	0.37260 0.14530 0.13630 0.02300
C 	C 	0.54350 0.23236 0.95591 -0.06100
C 	C 	0.30890 0.60828 0.46730 -0.05200
H 	H 	0.37320 0.56170 0.48290 0.05800
Li	Li	0.78200 0.36010 0.76590 0.55600
C 	C 	0.44200 0.22374 0.01360 -0.04900
H 	H 	0.37460 0.26790 0.99740 0.05700
C 	C 	0.37420 0.59061 0.94020 0.03500
H 	H 	0.31100 0.54330 0.92650 0.01700
C 	C 	0.86710 0.24734 0.57890 0.02900
H 	H 	0.92760 0.29650 0.59280 0.01400
C 	C 	0.87760 0.17836 0.49290 -0.04000
H 	H 	0.94510 0.18000 0.45040 0.05200
Li	Li	0.53040 0.98260 0.25570 0.55500
O 	O 	0.03449 0.87736 0.15671 -0.43500
C 	C 	0.95625 0.74561 0.02927 -0.06800
N 	N 	0.26505 0.25282 0.61849 -0.16300
N 	N 	0.97483 0.60256 0.85860 -0.16400
O 	O 	0.21223 0.97123 0.33474 -0.46400
C 	C 	0.94132 0.82398 0.11920 0.36700
C 	C 	0.28884 0.10559 0.45630 -0.07600
C 	C 	0.88430 0.66487 0.02340 -0.04700
H 	H 	0.82690 0.65720 0.07700 0.05200
C 	C 	0.89770 0.59565 0.93800 0.03200
H 	H 	0.84910 0.54020 0.93600 0.01800
C 	C 	0.03900 0.75298 0.94908 -0.05100
H 	H 	0.09140 0.80650 0.95170 0.05300
C 	C 	0.30560 0.02548 0.37125 0.40500
O 	O 	0.90765 0.02098 0.35168 -0.38600
O 	O 	0.33120 0.83885 0.12673 -0.38100
C 	C 	0.34230 0.25890 0.53770 0.02600
H 	H 	0.38810 0.31510 0.53560 0.02000
O 	O 	0.70934 0.97426 0.34277 -0.46500
O 	O 	0.83700 0.82892 0.14833 -0.39100
C 	C 	0.80340 0.02801 0.38010 0.40500
C 	C 	0.04380 0.68083 0.86518 0.03400
H 	H 	0.09910 0.68720 0.80920 0.02200
O 	O 	0.54096 0.86166 0.17372 -0.43400
C 	C 	0.19980 0.17363 0.61770 0.03100
H 	H 	0.14610 0.16780 0.67530 0.02300
C 	C 	0.20650 0.09936 0.53710 -0.04000
H 	H 	0.15570 0.04530 0.53730 0.05800
N 	N 	0.77517 0.24822 0.64405 -0.16500
C 	C 	0.35800 0.18707 0.45760 -0.03600
H 	H 	0.41570 0.19350 0.40400 0.05000
O 	O 	0.41082 0.01864 0.34419 -0.38200
Li	Li	0.72640 0.85830 0.25210 0.55600
C 	C 	0.36340 0.66353 0.02115 -0.04700
H 	H 	0.29340 0.66640 0.06030 0.05300
C 	C 	0.78910 0.10691 0.46883 -0.07100
Li	Li	0.02800 0.98950 0.26080 0.55400
C 	C 	0.68940 0.17917 0.61950 0.03500
H 	H 	0.62360 0.17870 0.66430 0.02200
N 	N 	0.46898 0.58346 0.88031 -0.16400
C 	C 	0.44283 0.81735 0.12253 0.36300
C 	C 	0.55900 0.64950 0.90480 0.03300
H 	H 	0.62740 0.64530 0.86370 0.02100
C 	C 	0.45650 0.73236 0.04409 -0.06300
C 	C 	0.69110 0.10828 0.53270 -0.04400
H 	H 	0.62680 0.06170 0.51710 0.06200
Li	Li	0.21800 0.86010 0.23410 0.55600
C 	C 	0.55800 0.72374 0.98640 -0.05100
H 	H 	0.62540 0.76790 0.00260 0.05500
