data_crystal

_cell_length_a 7.61180
_cell_length_b 9.82530
_cell_length_c 14.74800
_cell_angle_alpha 90.00000
_cell_angle_beta  98.14000
_cell_angle_gamma 90.00000

_symmetry_space_group_name_	'P 1'
_symmetry_space_group_name_H-M	'P 1'

loop_
_symmetry_equiv_pos_as_xyz
  x,y,z

loop_
_atom_site_label
_atom_site_type_symbol
_atom_site_fract_x
_atom_site_fract_y
_atom_site_fract_z
_atom_site_charge
Tb	Tb	0.60121 0.76217 0.88922 1.90700
Tb	Tb	0.10127 0.17132 0.38929 1.86400
Tb	Tb	0.39879 0.26217 0.11078 1.90800
Tb	Tb	0.89873 0.67132 0.61071 1.86000
H 	H 	0.65300 0.53460 0.26510 -0.03100
H 	H 	0.45080 0.82900 0.38950 -0.03000
H 	H 	0.41390 0.82280 0.10790 -0.05300
H 	H 	0.94560 0.09090 0.62180 -0.03600
H 	H 	0.95240 0.10500 0.88510 -0.02700
H 	H 	0.10650 0.42670 0.76490 0.00600
H 	H 	0.34700 0.03460 0.73490 -0.03100
H 	H 	0.54920 0.32900 0.61050 -0.03000
H 	H 	0.58610 0.32280 0.89210 -0.05300
H 	H 	0.05440 0.59090 0.37820 -0.03900
H 	H 	0.04760 0.60500 0.11490 -0.02900
H 	H 	0.89350 0.92670 0.23510 0.00400
C 	C 	0.55210 0.58140 0.08970 0.59900
C 	C 	0.51500 0.65710 0.17340 -0.32200
C 	C 	0.57890 0.61030 0.26130 0.21500
C 	C 	0.47280 0.78850 0.33520 0.14800
C 	C 	0.43290 0.85450 0.25120 -0.26600
C 	C 	0.44840 0.78280 0.16480 0.21600
C 	C 	0.35280 0.98600 0.24650 0.51800
C 	C 	0.06270 0.35150 0.59550 0.45300
C 	C 	0.04320 0.27170 0.67770 -0.23100
C 	C 	0.96360 0.13940 0.67650 0.18700
C 	C 	0.91470 0.08410 0.75130 -0.26700
C 	C 	0.97660 0.14840 0.83230 0.16100
C 	C 	0.07630 0.33490 0.76210 0.11800
C 	C 	0.82870 0.94200 0.75230 0.59500
C 	C 	0.28380 0.75060 0.70990 0.23900
C 	C 	0.20170 0.68660 0.78870 0.28100
C 	C 	0.44790 0.08140 0.91030 0.60300
C 	C 	0.48500 0.15710 0.82660 -0.32300
C 	C 	0.42110 0.11030 0.73870 0.21600
C 	C 	0.52720 0.28850 0.66480 0.14900
C 	C 	0.56710 0.35450 0.74880 -0.26700
C 	C 	0.55160 0.28280 0.83520 0.21800
C 	C 	0.64720 0.48600 0.75350 0.52100
C 	C 	0.93730 0.85150 0.40450 0.45400
C 	C 	0.95680 0.77170 0.32230 -0.23400
C 	C 	0.03640 0.63940 0.32350 0.19200
C 	C 	0.08530 0.58410 0.24870 -0.27500
C 	C 	0.02340 0.64840 0.16770 0.16500
C 	C 	0.92370 0.83490 0.23790 0.11900
C 	C 	0.17130 0.44200 0.24770 0.60100
C 	C 	0.71620 0.25060 0.29010 0.23900
C 	C 	0.79830 0.18660 0.21130 0.28100
N 	N 	0.54750 0.65860 0.33430 -0.19400
N 	N 	0.06520 0.26260 0.84500 -0.17200
N 	N 	0.45250 0.15860 0.66570 -0.19400
N 	N 	0.93480 0.76260 0.15500 -0.17300
O 	O 	0.55750 0.63030 0.01890 -0.58200
O 	O 	0.58390 0.45540 0.10260 -0.51700
O 	O 	0.26760 0.01870 0.31450 -0.51100
O 	O 	0.34390 0.05750 0.17580 -0.53200
O 	O 	0.05330 0.28340 0.51850 -0.51500
O 	O 	0.08070 0.48220 0.60240 -0.48800
O 	O 	0.77530 0.90350 0.82030 -0.60800
O 	O 	0.84200 0.87150 0.68190 -0.55300
O 	O 	0.45620 0.77790 0.72980 -0.38000
O 	O 	0.30510 0.67430 0.86480 -0.40200
O 	O 	0.19820 0.76770 0.63590 -0.38800
O 	O 	0.04810 0.65260 0.77120 -0.39800
O 	O 	0.44250 0.13030 0.98110 -0.58300
O 	O 	0.41610 0.95540 0.89740 -0.52000
O 	O 	0.73240 0.51870 0.68550 -0.51300
O 	O 	0.65610 0.55750 0.82420 -0.53400
O 	O 	0.94670 0.78340 0.48150 -0.51600
O 	O 	0.91930 0.98220 0.39760 -0.49200
O 	O 	0.22470 0.40350 0.17970 -0.60800
O 	O 	0.15800 0.37150 0.31810 -0.55400
O 	O 	0.54380 0.27790 0.27020 -0.38000
O 	O 	0.69490 0.17430 0.13520 -0.40200
O 	O 	0.80180 0.26770 0.36410 -0.38700
O 	O 	0.95190 0.15260 0.22880 -0.39700
