data_crystal

_cell_length_a 15.43800
_cell_length_b 14.69100
_cell_length_c 33.04600
_cell_angle_alpha 90.00000
_cell_angle_beta  94.83200
_cell_angle_gamma 90.00000

_symmetry_space_group_name_	'P 1'
_symmetry_space_group_name_H-M	'P 1'

loop_
_symmetry_equiv_pos_as_xyz
  x,y,z

loop_
_atom_site_label
_atom_site_type_symbol
_atom_site_fract_x
_atom_site_fract_y
_atom_site_fract_z
_atom_site_charge
W 	W 	0.53205 0.24471 0.37165 0.49100
C 	C 	0.44650 0.16210 0.40550 -0.05500
C 	C 	0.48640 0.33900 0.41470 -0.06600
C 	C 	0.64210 0.21200 0.33780 -0.04100
C 	C 	0.49540 0.13810 0.32810 -0.03600
C 	C 	0.53660 0.35150 0.32630 -0.04100
C 	C 	0.39920 0.27040 0.34900 -0.03600
C 	C 	0.63780 0.33190 0.39520 -0.03600
C 	C 	0.60610 0.15260 0.41100 -0.05200
N 	N 	0.40120 0.12000 0.42360 -0.14500
N 	N 	0.46260 0.39000 0.43710 -0.12100
N 	N 	0.70080 0.19350 0.32110 -0.25100
N 	N 	0.47490 0.08750 0.30420 -0.25700
N 	N 	0.54170 0.40640 0.30280 -0.26100
N 	N 	0.32800 0.27920 0.33620 -0.26600
N 	N 	0.69410 0.37850 0.40650 -0.26000
N 	N 	0.64420 0.10030 0.43210 -0.26700
Mn	Mn	0.81934 0.12308 0.30210 1.21300
Mn	Mn	0.45466 0.00389 0.24836 1.20800
Mn	Mn	0.19157 0.29085 0.31456 1.21200
Mn	Mn	0.80493 0.47448 0.41207 1.18600
Mn	Mn	0.71551 0.00290 0.47427 1.18100
N 	N 	0.93450 0.04610 0.28490 -0.26100
N 	N 	0.89610 0.17140 0.35670 -0.24800
N 	N 	0.76470 0.00320 0.32890 -0.26600
N 	N 	0.84050 0.24590 0.26610 -0.26300
N 	N 	0.53710 0.90130 0.28490 -0.25000
N 	N 	0.32050 0.95720 0.26050 -0.24000
N 	N 	0.38690 0.12040 0.21550 -0.25400
N 	N 	0.88840 0.36180 0.43700 -0.27100
N 	N 	0.83200 0.44380 0.34820 -0.25600
N 	N 	0.74680 0.60400 0.38950 -0.27200
N 	N 	0.83560 0.07550 0.46060 -0.26000
N 	N 	0.70880 0.89560 0.42740 -0.26200
N 	N 	0.80370 0.91340 0.51450 -0.26200
C 	C 	0.99310 0.01680 0.27190 -0.03300
C 	C 	0.93810 0.17790 0.38660 -0.03600
C 	C 	0.73950 0.93190 0.33280 -0.04000
C 	C 	0.59200 0.86280 0.30380 -0.05100
C 	C 	0.93390 0.29880 0.44150 -0.06000
C 	C 	0.89870 0.11320 0.45530 -0.05200
C 	C 	0.70220 0.85700 0.39820 -0.03100
W 	W 	0.10640 0.96116 0.24474 0.47800
W 	W 	0.01706 0.18195 0.44396 0.48800
W 	W 	0.69636 0.79275 0.33880 0.47900
C 	C 	0.05110 0.06710 0.20560 -0.07000
C 	C 	0.14360 0.82020 0.23820 -0.03400
C 	C 	0.24530 0.95640 0.25530 -0.05100
C 	C 	0.99530 0.88780 0.21800 -0.04400
C 	C 	0.14970 0.08300 0.27720 -0.03000
C 	C 	0.10120 0.89890 0.30380 -0.04300
C 	C 	0.15040 0.94770 0.18360 -0.03100
C 	C 	0.09570 0.29390 0.46810 -0.06500
C 	C 	0.10090 0.22040 0.39750 -0.03800
C 	C 	0.03010 0.04700 0.41900 -0.03500
C 	C 	0.99820 0.18820 0.50830 -0.05000
C 	C 	0.13420 0.11940 0.47170 -0.04100
C 	C 	0.57720 0.75680 0.36590 -0.06000
C 	C 	0.64320 0.68040 0.30200 -0.03400
C 	C 	0.74880 0.80310 0.28020 -0.04300
C 	C 	0.83540 0.79810 0.35540 -0.04000
C 	C 	0.73070 0.66890 0.37220 -0.03700
N 	N 	0.01580 0.11970 0.18440 -0.14900
N 	N 	0.93730 0.84680 0.20500 -0.26200
N 	N 	0.17090 0.14630 0.29430 -0.24000
N 	N 	0.09020 0.86340 0.33370 -0.26700
N 	N 	0.13600 0.35260 0.48170 -0.14800
N 	N 	0.14380 0.24460 0.37350 -0.24900
N 	N 	0.03240 0.97600 0.40650 -0.26700
N 	N 	0.98850 0.19070 0.54180 -0.27700
N 	N 	0.51540 0.73830 0.38060 -0.13000
N 	N 	0.77190 0.81190 0.24870 -0.25500
N 	N 	0.90730 0.80450 0.36710 -0.25900
Mn	Mn	0.04219 0.82960 0.39408 1.17900
W 	W 	0.46795 0.74471 0.12835 0.49000
C 	C 	0.55350 0.66210 0.09450 -0.05600
C 	C 	0.51360 0.83900 0.08530 -0.06700
C 	C 	0.35790 0.71200 0.16220 -0.04200
C 	C 	0.50460 0.63810 0.17190 -0.03600
C 	C 	0.46340 0.85150 0.17370 -0.04100
C 	C 	0.60080 0.77040 0.15100 -0.03600
C 	C 	0.36220 0.83190 0.10480 -0.03600
C 	C 	0.39390 0.65260 0.08900 -0.05200
N 	N 	0.59880 0.62000 0.07640 -0.14500
N 	N 	0.53740 0.89000 0.06290 -0.12000
N 	N 	0.29920 0.69350 0.17890 -0.25100
N 	N 	0.52510 0.58750 0.19580 -0.25800
N 	N 	0.45830 0.90640 0.19720 -0.26100
N 	N 	0.67200 0.77920 0.16380 -0.26600
N 	N 	0.30590 0.87850 0.09350 -0.26000
N 	N 	0.35580 0.60030 0.06790 -0.26600
Mn	Mn	0.18066 0.62308 0.19790 1.21300
Mn	Mn	0.54534 0.50389 0.25164 1.20800
Mn	Mn	0.80843 0.79085 0.18544 1.21200
Mn	Mn	0.19507 0.97448 0.08793 1.18600
Mn	Mn	0.28449 0.50290 0.02573 1.18100
N 	N 	0.06550 0.54610 0.21510 -0.26100
N 	N 	0.10390 0.67140 0.14330 -0.24800
N 	N 	0.23530 0.50320 0.17110 -0.26400
N 	N 	0.15950 0.74590 0.23390 -0.26300
N 	N 	0.46290 0.40130 0.21510 -0.25100
N 	N 	0.67950 0.45720 0.23950 -0.24000
N 	N 	0.61310 0.62040 0.28450 -0.25500
N 	N 	0.11160 0.86180 0.06300 -0.27100
N 	N 	0.16800 0.94380 0.15180 -0.25600
N 	N 	0.25320 0.10400 0.11050 -0.27100
N 	N 	0.16440 0.57550 0.03940 -0.26000
N 	N 	0.29120 0.39560 0.07260 -0.26300
N 	N 	0.19630 0.41340 0.98550 -0.26300
C 	C 	0.00690 0.51680 0.22810 -0.03100
C 	C 	0.06190 0.67790 0.11340 -0.03500
C 	C 	0.26050 0.43190 0.16720 -0.04300
C 	C 	0.40800 0.36280 0.19620 -0.05100
C 	C 	0.06610 0.79880 0.05850 -0.06000
C 	C 	0.10130 0.61320 0.04470 -0.05100
C 	C 	0.29780 0.35700 0.10180 -0.03100
W 	W 	0.89360 0.46116 0.25526 0.48100
W 	W 	0.98294 0.68195 0.05604 0.48700
W 	W 	0.30364 0.29275 0.16120 0.47900
C 	C 	0.94890 0.56710 0.29440 -0.07300
C 	C 	0.85640 0.32020 0.26180 -0.03400
C 	C 	0.75470 0.45640 0.24470 -0.05100
C 	C 	0.00470 0.38780 0.28200 -0.04700
C 	C 	0.85030 0.58300 0.22280 -0.03300
C 	C 	0.89880 0.39890 0.19620 -0.04300
C 	C 	0.84960 0.44770 0.31640 -0.03000
C 	C 	0.90430 0.79390 0.03190 -0.06400
C 	C 	0.89910 0.72040 0.10250 -0.03800
C 	C 	0.96990 0.54700 0.08100 -0.04000
C 	C 	0.00180 0.68820 0.99170 -0.04900
C 	C 	0.86580 0.61940 0.02830 -0.04100
C 	C 	0.42280 0.25680 0.13410 -0.06000
C 	C 	0.35680 0.18040 0.19800 -0.03400
C 	C 	0.25120 0.30310 0.21980 -0.04400
C 	C 	0.16460 0.29810 0.14460 -0.04100
C 	C 	0.26930 0.16890 0.12780 -0.03700
N 	N 	0.98420 0.61970 0.31560 -0.14900
N 	N 	0.06270 0.34680 0.29500 -0.26200
N 	N 	0.82910 0.64630 0.20570 -0.24000
N 	N 	0.90980 0.36340 0.16630 -0.26700
N 	N 	0.86400 0.85260 0.01830 -0.14800
N 	N 	0.85620 0.74460 0.12650 -0.24900
N 	N 	0.96760 0.47600 0.09350 -0.26400
N 	N 	0.01150 0.69070 0.95820 -0.27700
N 	N 	0.48460 0.23830 0.11940 -0.13000
N 	N 	0.22810 0.31190 0.25130 -0.25500
N 	N 	0.09270 0.30450 0.13290 -0.26000
Mn	Mn	0.95781 0.32960 0.10592 1.17900
W 	W 	0.46795 0.75529 0.62835 0.49000
C 	C 	0.55350 0.83790 0.59450 -0.05600
C 	C 	0.51360 0.66100 0.58530 -0.06700
C 	C 	0.35790 0.78800 0.66220 -0.04200
C 	C 	0.50460 0.86190 0.67190 -0.03600
C 	C 	0.46340 0.64850 0.67370 -0.04100
C 	C 	0.60080 0.72960 0.65100 -0.03600
C 	C 	0.36220 0.66810 0.60480 -0.03600
C 	C 	0.39390 0.84740 0.58900 -0.05200
N 	N 	0.59880 0.88000 0.57640 -0.14500
N 	N 	0.53740 0.61000 0.56290 -0.12100
N 	N 	0.29920 0.80650 0.67890 -0.25100
N 	N 	0.52510 0.91250 0.69580 -0.25700
N 	N 	0.45830 0.59360 0.69720 -0.26100
N 	N 	0.67200 0.72080 0.66380 -0.26600
N 	N 	0.30590 0.62150 0.59350 -0.26000
N 	N 	0.35580 0.89970 0.56790 -0.26700
Mn	Mn	0.18066 0.87692 0.69790 1.21300
Mn	Mn	0.54534 0.99611 0.75164 1.20800
Mn	Mn	0.80843 0.70915 0.68544 1.21200
Mn	Mn	0.19507 0.52552 0.58793 1.18600
Mn	Mn	0.28449 0.99710 0.52573 1.18100
N 	N 	0.06550 0.95390 0.71510 -0.26100
N 	N 	0.10390 0.82860 0.64330 -0.24800
N 	N 	0.23530 0.99680 0.67110 -0.26600
N 	N 	0.15950 0.75410 0.73390 -0.26300
N 	N 	0.46290 0.09870 0.71510 -0.25000
N 	N 	0.67950 0.04280 0.73950 -0.24000
N 	N 	0.61310 0.87960 0.78450 -0.25400
N 	N 	0.11160 0.63820 0.56300 -0.27100
N 	N 	0.16800 0.55620 0.65180 -0.25600
N 	N 	0.25320 0.39600 0.61050 -0.27200
N 	N 	0.16440 0.92450 0.53940 -0.26000
N 	N 	0.29120 0.10440 0.57260 -0.26200
N 	N 	0.19630 0.08660 0.48550 -0.26200
C 	C 	0.00690 0.98320 0.72810 -0.03300
C 	C 	0.06190 0.82210 0.61340 -0.03600
C 	C 	0.26050 0.06810 0.66720 -0.04000
C 	C 	0.40800 0.13720 0.69620 -0.05100
C 	C 	0.06610 0.70120 0.55850 -0.06000
C 	C 	0.10130 0.88680 0.54470 -0.05200
C 	C 	0.29780 0.14300 0.60180 -0.03100
W 	W 	0.89360 0.03884 0.75526 0.47800
W 	W 	0.98294 0.81805 0.55604 0.48800
W 	W 	0.30364 0.20725 0.66120 0.47900
C 	C 	0.94890 0.93290 0.79440 -0.07000
C 	C 	0.85640 0.17980 0.76180 -0.03400
C 	C 	0.75470 0.04360 0.74470 -0.05100
C 	C 	0.00470 0.11220 0.78200 -0.04400
C 	C 	0.85030 0.91700 0.72280 -0.03000
C 	C 	0.89880 0.10110 0.69620 -0.04300
C 	C 	0.84960 0.05230 0.81640 -0.03100
C 	C 	0.90430 0.70610 0.53190 -0.06500
C 	C 	0.89910 0.77960 0.60250 -0.03800
C 	C 	0.96990 0.95300 0.58100 -0.03500
C 	C 	0.00180 0.81180 0.49170 -0.05000
C 	C 	0.86580 0.88060 0.52830 -0.04100
C 	C 	0.42280 0.24320 0.63410 -0.06000
C 	C 	0.35680 0.31960 0.69800 -0.03400
C 	C 	0.25120 0.19690 0.71980 -0.04300
C 	C 	0.16460 0.20190 0.64460 -0.04000
C 	C 	0.26930 0.33110 0.62780 -0.03700
N 	N 	0.98420 0.88030 0.81560 -0.14900
N 	N 	0.06270 0.15320 0.79500 -0.26200
N 	N 	0.82910 0.85370 0.70570 -0.24000
N 	N 	0.90980 0.13660 0.66630 -0.26700
N 	N 	0.86400 0.64740 0.51830 -0.14800
N 	N 	0.85620 0.75540 0.62650 -0.24900
N 	N 	0.96760 0.02400 0.59350 -0.26700
N 	N 	0.01150 0.80930 0.45820 -0.27700
N 	N 	0.48460 0.26170 0.61940 -0.13000
N 	N 	0.22810 0.18810 0.75130 -0.25500
N 	N 	0.09270 0.19550 0.63290 -0.25900
Mn	Mn	0.95781 0.17040 0.60592 1.17900
W 	W 	0.53205 0.25529 0.87165 0.49000
C 	C 	0.44650 0.33790 0.90550 -0.05600
C 	C 	0.48640 0.16100 0.91470 -0.06700
C 	C 	0.64210 0.28800 0.83780 -0.04200
C 	C 	0.49540 0.36190 0.82810 -0.03600
C 	C 	0.53660 0.14850 0.82630 -0.04100
C 	C 	0.39920 0.22960 0.84900 -0.03600
C 	C 	0.63780 0.16810 0.89520 -0.03600
C 	C 	0.60610 0.34740 0.91100 -0.05200
N 	N 	0.40120 0.38000 0.92360 -0.14500
N 	N 	0.46260 0.11000 0.93710 -0.12000
N 	N 	0.70080 0.30650 0.82110 -0.25100
N 	N 	0.47490 0.41250 0.80420 -0.25800
N 	N 	0.54170 0.09360 0.80280 -0.26100
N 	N 	0.32800 0.22080 0.83620 -0.26600
N 	N 	0.69410 0.12150 0.90650 -0.26000
N 	N 	0.64420 0.39970 0.93210 -0.26600
Mn	Mn	0.81934 0.37692 0.80210 1.21300
Mn	Mn	0.45466 0.49611 0.74836 1.20800
Mn	Mn	0.19157 0.20915 0.81456 1.21200
Mn	Mn	0.80493 0.02552 0.91207 1.18600
Mn	Mn	0.71551 0.49710 0.97427 1.18100
N 	N 	0.93450 0.45390 0.78490 -0.26100
N 	N 	0.89610 0.32860 0.85670 -0.24800
N 	N 	0.76470 0.49680 0.82890 -0.26400
N 	N 	0.84050 0.25410 0.76610 -0.26300
N 	N 	0.53710 0.59870 0.78490 -0.25100
N 	N 	0.32050 0.54280 0.76050 -0.24000
N 	N 	0.38690 0.37960 0.71550 -0.25500
N 	N 	0.88840 0.13820 0.93700 -0.27100
N 	N 	0.83200 0.05620 0.84820 -0.25600
N 	N 	0.74680 0.89600 0.88950 -0.27100
N 	N 	0.83560 0.42450 0.96060 -0.26000
N 	N 	0.70880 0.60440 0.92740 -0.26300
N 	N 	0.80370 0.58660 0.01450 -0.26300
C 	C 	0.99310 0.48320 0.77190 -0.03100
C 	C 	0.93810 0.32210 0.88660 -0.03500
C 	C 	0.73950 0.56810 0.83280 -0.04300
C 	C 	0.59200 0.63720 0.80380 -0.05100
C 	C 	0.93390 0.20120 0.94150 -0.06000
C 	C 	0.89870 0.38680 0.95530 -0.05100
C 	C 	0.70220 0.64300 0.89820 -0.03100
W 	W 	0.10640 0.53884 0.74474 0.48100
W 	W 	0.01706 0.31805 0.94396 0.48700
W 	W 	0.69636 0.70725 0.83880 0.47900
C 	C 	0.05110 0.43290 0.70560 -0.07300
C 	C 	0.14360 0.67980 0.73820 -0.03400
C 	C 	0.24530 0.54360 0.75530 -0.05100
C 	C 	0.99530 0.61220 0.71800 -0.04700
C 	C 	0.14970 0.41700 0.77720 -0.03300
C 	C 	0.10120 0.60110 0.80380 -0.04300
C 	C 	0.15040 0.55230 0.68360 -0.03000
C 	C 	0.09570 0.20610 0.96810 -0.06400
C 	C 	0.10090 0.27960 0.89750 -0.03800
C 	C 	0.03010 0.45300 0.91900 -0.04000
C 	C 	0.99820 0.31180 0.00830 -0.04900
C 	C 	0.13420 0.38060 0.97170 -0.04100
C 	C 	0.57720 0.74320 0.86590 -0.06000
C 	C 	0.64320 0.81960 0.80200 -0.03400
C 	C 	0.74880 0.69690 0.78020 -0.04400
C 	C 	0.83540 0.70190 0.85540 -0.04100
C 	C 	0.73070 0.83110 0.87220 -0.03700
N 	N 	0.01580 0.38030 0.68440 -0.14900
N 	N 	0.93730 0.65320 0.70500 -0.26200
N 	N 	0.17090 0.35370 0.79430 -0.24000
N 	N 	0.09020 0.63660 0.83370 -0.26700
N 	N 	0.13600 0.14740 0.98170 -0.14800
N 	N 	0.14380 0.25540 0.87350 -0.24900
N 	N 	0.03240 0.52400 0.90650 -0.26400
N 	N 	0.98850 0.30930 0.04180 -0.27700
N 	N 	0.51540 0.76170 0.88060 -0.13000
N 	N 	0.77190 0.68810 0.74870 -0.25500
N 	N 	0.90730 0.69550 0.86710 -0.26000
Mn	Mn	0.04219 0.67040 0.89408 1.17900
