data_crystal

_cell_length_a 16.79360
_cell_length_b 9.58580
_cell_length_c 22.58270
_cell_angle_alpha 90.00000
_cell_angle_beta  104.21600
_cell_angle_gamma 90.00000

_symmetry_space_group_name_	'P 1'
_symmetry_space_group_name_H-M	'P 1'

loop_
_symmetry_equiv_pos_as_xyz
  x,y,z

loop_
_atom_site_label
_atom_site_type_symbol
_atom_site_fract_x
_atom_site_fract_y
_atom_site_fract_z
_atom_site_charge
S 	S 	0.86993 0.47847 0.01512 0.89800
S 	S 	0.65781 0.03346 0.10686 0.68200
S 	S 	0.87609 0.99663 0.99853 1.07600
S 	S 	0.79962 0.29525 0.28044 0.76000
S 	S 	0.48903 0.53579 0.24093 0.66600
S 	S 	0.67868 0.51341 0.11587 0.74200
S 	S 	0.58764 0.74917 0.92797 0.66800
S 	S 	0.91001 0.83357 0.17018 0.73100
O 	O 	0.83440 0.37980 0.04940 -0.48200
O 	O 	0.81470 0.59820 0.00157 -0.45500
O 	O 	0.95060 0.52140 0.05003 -0.51700
O 	O 	0.87470 0.41530 0.95676 -0.44600
O 	O 	0.69970 0.10510 0.16393 -0.44200
O 	O 	0.65920 0.88180 0.11597 -0.37200
O 	O 	0.70770 0.06240 0.06174 -0.43100
O 	O 	0.57520 0.08920 0.08691 -0.32800
O 	O 	0.79700 0.92350 0.98333 -0.49200
O 	O 	0.88980 0.06460 0.94528 -0.48500
O 	O 	0.93560 0.92200 0.03810 -0.39900
O 	O 	0.93900 0.87190 0.00310 -0.22500
O 	O 	0.89440 0.06440 0.05560 -0.33700
O 	O 	0.85830 0.12840 0.03240 -0.26600
O 	O 	0.82900 0.24520 0.34375 -0.39300
O 	O 	0.83660 0.20500 0.24077 -0.45200
O 	O 	0.82580 0.43940 0.27470 -0.29300
O 	O 	0.71020 0.28550 0.26274 -0.39800
O 	O 	0.45150 0.46230 0.18415 -0.32100
O 	O 	0.55880 0.01890 0.21305 -0.34400
O 	O 	0.57160 0.47700 0.26290 -0.32500
O 	O 	0.50910 0.18930 0.26952 -0.33000
O 	O 	0.70300 0.36650 0.11480 -0.46800
O 	O 	0.61880 0.51820 0.15279 -0.37700
O 	O 	0.64370 0.56430 0.05375 -0.37600
O 	O 	0.74930 0.60400 0.14145 -0.39200
O 	O 	0.60270 0.84480 0.98068 -0.35400
O 	O 	0.51660 0.65880 0.92488 -0.34600
O 	O 	0.57140 0.82780 0.87003 -0.33100
O 	O 	0.66440 0.66700 0.93614 -0.30900
O 	O 	0.85050 0.94860 0.15540 -0.45700
O 	O 	0.90480 0.76800 0.22620 -0.30000
O 	O 	0.88850 0.73370 0.11813 -0.49300
O 	O 	0.99420 0.88100 0.17192 -0.41200
La	La	0.57434 0.27607 0.18145 1.74200
La	La	0.73871 0.77010 0.04769 1.76100
La	La	0.03128 0.73901 0.08382 1.73500
La	La	0.82877 0.20478 0.12947 1.69000
S 	S 	0.13007 0.97847 0.48488 0.87900
S 	S 	0.34219 0.53346 0.39314 0.68800
S 	S 	0.12391 0.49663 0.50147 1.07800
S 	S 	0.20038 0.79525 0.21956 0.76000
S 	S 	0.51097 0.03579 0.25907 0.66200
S 	S 	0.32132 0.01341 0.38413 0.74500
S 	S 	0.41236 0.24917 0.57203 0.66800
S 	S 	0.08999 0.33357 0.32982 0.73200
O 	O 	0.16560 0.87980 0.45060 -0.48000
O 	O 	0.18530 0.09820 0.49843 -0.45000
O 	O 	0.04940 0.02140 0.44997 -0.51000
O 	O 	0.12530 0.91530 0.54324 -0.44300
O 	O 	0.30030 0.60510 0.33607 -0.44200
O 	O 	0.34080 0.38180 0.38403 -0.37600
O 	O 	0.29230 0.56240 0.43826 -0.43000
O 	O 	0.42480 0.58920 0.41309 -0.32800
O 	O 	0.20300 0.42350 0.51667 -0.49100
O 	O 	0.11020 0.56460 0.55472 -0.48100
O 	O 	0.06440 0.42200 0.46190 -0.40500
O 	O 	0.06100 0.37190 0.49690 -0.22800
O 	O 	0.10560 0.56440 0.44440 -0.33200
O 	O 	0.14170 0.62840 0.46760 -0.26800
O 	O 	0.17100 0.74520 0.15625 -0.39300
O 	O 	0.16340 0.70500 0.25923 -0.45100
O 	O 	0.17420 0.93940 0.22530 -0.29600
O 	O 	0.28980 0.78550 0.23726 -0.39800
O 	O 	0.54850 0.96230 0.31585 -0.31900
O 	O 	0.44120 0.51890 0.28695 -0.34400
O 	O 	0.42840 0.97700 0.23710 -0.32400
O 	O 	0.49090 0.68930 0.23048 -0.33000
O 	O 	0.29700 0.86650 0.38520 -0.47000
O 	O 	0.38120 0.01820 0.34721 -0.37800
O 	O 	0.35630 0.06430 0.44625 -0.37600
O 	O 	0.25070 0.10400 0.35855 -0.39200
O 	O 	0.39730 0.34480 0.51932 -0.35200
O 	O 	0.48340 0.15880 0.57512 -0.34600
O 	O 	0.42860 0.32780 0.62997 -0.33100
O 	O 	0.33560 0.16700 0.56386 -0.30800
O 	O 	0.14950 0.44860 0.34460 -0.46100
O 	O 	0.09520 0.26800 0.27380 -0.30200
O 	O 	0.11150 0.23370 0.38187 -0.49300
O 	O 	0.00580 0.38100 0.32808 -0.41700
La	La	0.42566 0.77607 0.31855 1.74200
La	La	0.26129 0.27010 0.45231 1.75800
La	La	0.96872 0.23901 0.41618 1.73900
La	La	0.17123 0.70478 0.37053 1.69100
S 	S 	0.13007 0.52153 0.98488 0.89800
S 	S 	0.34219 0.96654 0.89314 0.68200
S 	S 	0.12391 0.00337 0.00147 1.07600
S 	S 	0.20038 0.70475 0.71956 0.76000
S 	S 	0.51097 0.46421 0.75907 0.66600
S 	S 	0.32132 0.48659 0.88413 0.74200
S 	S 	0.41236 0.25083 0.07203 0.66800
S 	S 	0.08999 0.16643 0.82982 0.73100
O 	O 	0.16560 0.62020 0.95060 -0.48200
O 	O 	0.18530 0.40180 0.99843 -0.45500
O 	O 	0.04940 0.47860 0.94997 -0.51700
O 	O 	0.12530 0.58470 0.04324 -0.44600
O 	O 	0.30030 0.89490 0.83607 -0.44200
O 	O 	0.34080 0.11820 0.88403 -0.37200
O 	O 	0.29230 0.93760 0.93826 -0.43100
O 	O 	0.42480 0.91080 0.91309 -0.32800
O 	O 	0.20300 0.07650 0.01667 -0.49200
O 	O 	0.11020 0.93540 0.05472 -0.48500
O 	O 	0.06440 0.07800 0.96190 -0.39900
O 	O 	0.06100 0.12810 0.99690 -0.22500
O 	O 	0.10560 0.93560 0.94440 -0.33700
O 	O 	0.14170 0.87160 0.96760 -0.26600
O 	O 	0.17100 0.75480 0.65625 -0.39300
O 	O 	0.16340 0.79500 0.75923 -0.45200
O 	O 	0.17420 0.56060 0.72530 -0.29300
O 	O 	0.28980 0.71450 0.73726 -0.39800
O 	O 	0.54850 0.53770 0.81585 -0.32100
O 	O 	0.44120 0.98110 0.78695 -0.34400
O 	O 	0.42840 0.52300 0.73710 -0.32500
O 	O 	0.49090 0.81070 0.73048 -0.33000
O 	O 	0.29700 0.63350 0.88520 -0.46800
O 	O 	0.38120 0.48180 0.84721 -0.37700
O 	O 	0.35630 0.43570 0.94625 -0.37600
O 	O 	0.25070 0.39600 0.85855 -0.39200
O 	O 	0.39730 0.15520 0.01932 -0.35400
O 	O 	0.48340 0.34120 0.07512 -0.34600
O 	O 	0.42860 0.17220 0.12997 -0.33100
O 	O 	0.33560 0.33300 0.06386 -0.30900
O 	O 	0.14950 0.05140 0.84460 -0.45700
O 	O 	0.09520 0.23200 0.77380 -0.30000
O 	O 	0.11150 0.26630 0.88187 -0.49300
O 	O 	0.00580 0.11900 0.82808 -0.41200
La	La	0.42566 0.72393 0.81855 1.74200
La	La	0.26129 0.22990 0.95231 1.76100
La	La	0.96872 0.26099 0.91618 1.73500
La	La	0.17123 0.79522 0.87053 1.69000
S 	S 	0.86993 0.02153 0.51512 0.87900
S 	S 	0.65781 0.46654 0.60686 0.68800
S 	S 	0.87609 0.50337 0.49853 1.07800
S 	S 	0.79962 0.20475 0.78044 0.76000
S 	S 	0.48903 0.96421 0.74093 0.66200
S 	S 	0.67868 0.98659 0.61587 0.74500
S 	S 	0.58764 0.75083 0.42797 0.66800
S 	S 	0.91001 0.66643 0.67018 0.73200
O 	O 	0.83440 0.12020 0.54940 -0.48000
O 	O 	0.81470 0.90180 0.50157 -0.45000
O 	O 	0.95060 0.97860 0.55003 -0.51000
O 	O 	0.87470 0.08470 0.45676 -0.44300
O 	O 	0.69970 0.39490 0.66393 -0.44200
O 	O 	0.65920 0.61820 0.61597 -0.37600
O 	O 	0.70770 0.43760 0.56174 -0.43000
O 	O 	0.57520 0.41080 0.58691 -0.32800
O 	O 	0.79700 0.57650 0.48333 -0.49100
O 	O 	0.88980 0.43540 0.44528 -0.48100
O 	O 	0.93560 0.57800 0.53810 -0.40500
O 	O 	0.93900 0.62810 0.50310 -0.22800
O 	O 	0.89440 0.43560 0.55560 -0.33200
O 	O 	0.85830 0.37160 0.53240 -0.26800
O 	O 	0.82900 0.25480 0.84375 -0.39300
O 	O 	0.83660 0.29500 0.74077 -0.45100
O 	O 	0.82580 0.06060 0.77470 -0.29600
O 	O 	0.71020 0.21450 0.76274 -0.39800
O 	O 	0.45150 0.03770 0.68415 -0.31900
O 	O 	0.55880 0.48110 0.71305 -0.34400
O 	O 	0.57160 0.02300 0.76290 -0.32400
O 	O 	0.50910 0.31070 0.76952 -0.33000
O 	O 	0.70300 0.13350 0.61480 -0.47000
O 	O 	0.61880 0.98180 0.65279 -0.37800
O 	O 	0.64370 0.93570 0.55375 -0.37600
O 	O 	0.74930 0.89600 0.64145 -0.39200
O 	O 	0.60270 0.65520 0.48068 -0.35200
O 	O 	0.51660 0.84120 0.42488 -0.34600
O 	O 	0.57140 0.67220 0.37003 -0.33100
O 	O 	0.66440 0.83300 0.43614 -0.30800
O 	O 	0.85050 0.55140 0.65540 -0.46100
O 	O 	0.90480 0.73200 0.72620 -0.30200
O 	O 	0.88850 0.76630 0.61813 -0.49300
O 	O 	0.99420 0.61900 0.67192 -0.41700
La	La	0.57434 0.22393 0.68145 1.74200
La	La	0.73871 0.72990 0.54769 1.75800
La	La	0.03128 0.76099 0.58382 1.73900
La	La	0.82877 0.29522 0.62947 1.69100
