data_crystal

_cell_length_a 24.55340
_cell_length_b 9.78770
_cell_length_c 13.57160
_cell_angle_alpha 90.00000
_cell_angle_beta  120.57900
_cell_angle_gamma 90.00000

_symmetry_space_group_name_	'P 1'
_symmetry_space_group_name_H-M	'P 1'

loop_
_symmetry_equiv_pos_as_xyz
  x,y,z

loop_
_atom_site_label
_atom_site_type_symbol
_atom_site_fract_x
_atom_site_fract_y
_atom_site_fract_z
_atom_site_charge
Cd	Cd	0.24660 0.39001 0.10180 1.14300
Cd	Cd	0.74384 0.89774 0.64331 1.13500
S 	S 	0.18480 0.57331 0.22368 0.80000
N 	N 	0.14970 0.29000 0.00450 -0.28000
N 	N 	0.34310 0.48940 0.21700 -0.27600
N 	N 	0.84110 0.00170 0.73740 -0.24400
N 	N 	0.64660 0.79310 0.53000 -0.27700
O 	O 	0.20130 0.58640 0.13290 -0.50700
O 	O 	0.21270 0.68540 0.30400 -0.52800
O 	O 	0.21320 0.44650 0.27690 -0.43800
O 	O 	0.11720 0.57460 0.16830 -0.34900
C 	C 	0.14060 0.15610 0.00310 0.08700
H 	H 	0.17590 0.09960 0.03880 -0.08900
C 	C 	0.08060 0.09550 0.95080 -0.13600
H 	H 	0.07640 0.00110 0.95170 0.08100
C 	C 	0.02700 0.17940 0.89700 0.04900
C 	C 	0.03680 0.31780 0.89650 -0.12600
H 	H 	0.00230 0.37610 0.85900 0.07700
C 	C 	0.09800 0.37200 0.95150 0.06100
H 	H 	0.10340 0.46610 0.95190 -0.02200
C 	C 	0.96210 0.11930 0.84010 0.11000
C 	C 	0.90800 0.19860 0.79670 -0.15100
H 	H 	0.91190 0.29320 0.80240 0.09300
C 	C 	0.84890 0.14150 0.74570 0.06900
H 	H 	0.81350 0.19790 0.71620 -0.04400
C 	C 	0.35090 0.62350 0.23280 0.08400
H 	H 	0.31500 0.67800 0.20450 -0.07200
C 	C 	0.40780 0.68500 0.28730 -0.14500
H 	H 	0.41000 0.77990 0.29050 0.04600
C 	C 	0.46330 0.60960 0.33870 0.05100
C 	C 	0.45620 0.46620 0.32710 -0.12900
H 	H 	0.49160 0.40980 0.36060 0.06400
C 	C 	0.39640 0.41070 0.26570 0.05200
H 	H 	0.39220 0.31630 0.25730 -0.05200
C 	C 	0.52840 0.67300 0.40250 0.06800
C 	C 	0.53520 0.81110 0.42060 -0.15800
H 	H 	0.49970 0.86690 0.39160 0.06300
C 	C 	0.58150 0.59320 0.45000 -0.14000
H 	H 	0.57880 0.49880 0.44080 0.06700
C 	C 	0.89230 0.92470 0.78120 0.02500
H 	H 	0.88730 0.83030 0.77730 0.00000
C 	C 	0.95370 0.97780 0.83310 -0.18700
H 	H 	0.98850 0.91970 0.86250 0.07800
C 	C 	0.64110 0.65970 0.51410 0.07100
H 	H 	0.67770 0.60700 0.54610 -0.02500
C 	C 	0.59320 0.86580 0.48000 0.08100
H 	H 	0.59650 0.96040 0.48690 -0.07300
Cd	Cd	0.75340 0.39001 0.89820 1.14200
Cd	Cd	0.25616 0.89774 0.35669 1.13400
S 	S 	0.81520 0.57331 0.77632 0.80000
N 	N 	0.85030 0.29000 0.99550 -0.28000
N 	N 	0.65690 0.48940 0.78300 -0.27600
N 	N 	0.15890 0.00170 0.26260 -0.24400
N 	N 	0.35340 0.79310 0.47000 -0.27700
O 	O 	0.79870 0.58640 0.86710 -0.50700
O 	O 	0.78730 0.68540 0.69600 -0.52800
O 	O 	0.78680 0.44650 0.72310 -0.43800
O 	O 	0.88280 0.57460 0.83170 -0.34900
C 	C 	0.85940 0.15610 0.99690 0.08700
H 	H 	0.82410 0.09960 0.96120 -0.08900
C 	C 	0.91940 0.09550 0.04920 -0.13600
H 	H 	0.92360 0.00110 0.04830 0.08100
C 	C 	0.97300 0.17940 0.10300 0.04900
C 	C 	0.96320 0.31780 0.10350 -0.12600
H 	H 	0.99770 0.37610 0.14100 0.07700
C 	C 	0.90200 0.37200 0.04850 0.06100
H 	H 	0.89660 0.46610 0.04810 -0.02200
C 	C 	0.03790 0.11930 0.15990 0.11000
C 	C 	0.09200 0.19860 0.20330 -0.15100
H 	H 	0.08810 0.29320 0.19760 0.09300
C 	C 	0.15110 0.14150 0.25430 0.06900
H 	H 	0.18650 0.19790 0.28380 -0.04400
C 	C 	0.64910 0.62350 0.76720 0.08400
H 	H 	0.68500 0.67800 0.79550 -0.07200
C 	C 	0.59220 0.68500 0.71270 -0.14500
H 	H 	0.59000 0.77990 0.70950 0.04600
C 	C 	0.53670 0.60960 0.66130 0.05100
C 	C 	0.54380 0.46620 0.67290 -0.12900
H 	H 	0.50840 0.40980 0.63940 0.06400
C 	C 	0.60360 0.41070 0.73430 0.05200
H 	H 	0.60780 0.31630 0.74270 -0.05200
C 	C 	0.47160 0.67300 0.59750 0.06800
C 	C 	0.46480 0.81110 0.57940 -0.15800
H 	H 	0.50030 0.86690 0.60840 0.06300
C 	C 	0.41850 0.59320 0.55000 -0.14000
H 	H 	0.42120 0.49880 0.55920 0.06700
C 	C 	0.10770 0.92470 0.21880 0.02500
H 	H 	0.11270 0.83030 0.22270 0.00000
C 	C 	0.04630 0.97780 0.16690 -0.18700
H 	H 	0.01150 0.91970 0.13750 0.07800
C 	C 	0.35890 0.65970 0.48590 0.07100
H 	H 	0.32230 0.60700 0.45390 -0.02500
C 	C 	0.40680 0.86580 0.52000 0.08100
H 	H 	0.40350 0.96040 0.51310 -0.07300
Cd	Cd	0.74660 0.89001 0.10180 1.13200
Cd	Cd	0.24384 0.39774 0.64331 1.14500
S 	S 	0.68480 0.07331 0.22368 0.85900
N 	N 	0.64970 0.79000 0.00450 -0.28800
N 	N 	0.84310 0.98940 0.21700 -0.33100
N 	N 	0.34110 0.50170 0.73740 -0.27000
N 	N 	0.14660 0.29310 0.53000 -0.24900
O 	O 	0.70130 0.08640 0.13290 -0.49500
O 	O 	0.71270 0.18540 0.30400 -0.52900
O 	O 	0.71320 0.94650 0.27690 -0.48500
O 	O 	0.61720 0.07460 0.16830 -0.33800
C 	C 	0.64060 0.65610 0.00310 0.09200
H 	H 	0.67590 0.59960 0.03880 -0.10100
C 	C 	0.58060 0.59550 0.95080 -0.15300
H 	H 	0.57640 0.50110 0.95170 0.07100
C 	C 	0.52700 0.67940 0.89700 0.07000
C 	C 	0.53680 0.81780 0.89650 -0.14300
H 	H 	0.50230 0.87610 0.85900 0.07700
C 	C 	0.59800 0.87200 0.95150 0.06700
H 	H 	0.60340 0.96610 0.95190 -0.03800
C 	C 	0.46210 0.61930 0.84010 0.04400
C 	C 	0.40800 0.69860 0.79670 -0.12000
H 	H 	0.41190 0.79320 0.80240 0.07600
C 	C 	0.34890 0.64150 0.74570 0.04500
H 	H 	0.31350 0.69790 0.71620 -0.04300
C 	C 	0.85090 0.12350 0.23280 0.19500
H 	H 	0.81500 0.17800 0.20450 -0.10100
C 	C 	0.90780 0.18500 0.28730 -0.25400
H 	H 	0.91000 0.27990 0.29050 0.08900
C 	C 	0.96330 0.10960 0.33870 0.18800
C 	C 	0.95620 0.96620 0.32710 -0.26600
H 	H 	0.99160 0.90980 0.36060 0.10200
C 	C 	0.89640 0.91070 0.26570 0.10600
H 	H 	0.89220 0.81630 0.25730 -0.08200
C 	C 	0.02840 0.17300 0.40250 -0.04200
C 	C 	0.03520 0.31110 0.42060 -0.07600
H 	H 	0.99970 0.36690 0.39160 0.03700
C 	C 	0.08150 0.09320 0.45000 0.02800
H 	H 	0.07880 0.99880 0.44080 -0.02600
C 	C 	0.39230 0.42470 0.78120 0.05300
H 	H 	0.38730 0.33030 0.77730 -0.00000
C 	C 	0.45370 0.47780 0.83310 -0.12000
H 	H 	0.48850 0.41970 0.86250 0.07000
C 	C 	0.14110 0.15970 0.51410 -0.00400
H 	H 	0.17770 0.10700 0.54610 0.01400
C 	C 	0.09320 0.36580 0.48000 0.03400
H 	H 	0.09650 0.46040 0.48690 -0.04600
Cd	Cd	0.25340 0.89001 0.89820 1.13200
Cd	Cd	0.75616 0.39774 0.35669 1.14500
S 	S 	0.31520 0.07331 0.77632 0.85900
N 	N 	0.35030 0.79000 0.99550 -0.28800
N 	N 	0.15690 0.98940 0.78300 -0.33100
N 	N 	0.65890 0.50170 0.26260 -0.27000
N 	N 	0.85340 0.29310 0.47000 -0.24900
O 	O 	0.29870 0.08640 0.86710 -0.49500
O 	O 	0.28730 0.18540 0.69600 -0.52900
O 	O 	0.28680 0.94650 0.72310 -0.48500
O 	O 	0.38280 0.07460 0.83170 -0.33800
C 	C 	0.35940 0.65610 0.99690 0.09200
H 	H 	0.32410 0.59960 0.96120 -0.10100
C 	C 	0.41940 0.59550 0.04920 -0.15300
H 	H 	0.42360 0.50110 0.04830 0.07100
C 	C 	0.47300 0.67940 0.10300 0.07000
C 	C 	0.46320 0.81780 0.10350 -0.14300
H 	H 	0.49770 0.87610 0.14100 0.07700
C 	C 	0.40200 0.87200 0.04850 0.06700
H 	H 	0.39660 0.96610 0.04810 -0.03800
C 	C 	0.53790 0.61930 0.15990 0.04400
C 	C 	0.59200 0.69860 0.20330 -0.12000
H 	H 	0.58810 0.79320 0.19760 0.07600
C 	C 	0.65110 0.64150 0.25430 0.04500
H 	H 	0.68650 0.69790 0.28380 -0.04300
C 	C 	0.14910 0.12350 0.76720 0.19500
H 	H 	0.18500 0.17800 0.79550 -0.10100
C 	C 	0.09220 0.18500 0.71270 -0.25400
H 	H 	0.09000 0.27990 0.70950 0.08900
C 	C 	0.03670 0.10960 0.66130 0.18800
C 	C 	0.04380 0.96620 0.67290 -0.26600
H 	H 	0.00840 0.90980 0.63940 0.10200
C 	C 	0.10360 0.91070 0.73430 0.10600
H 	H 	0.10780 0.81630 0.74270 -0.08200
C 	C 	0.97160 0.17300 0.59750 -0.04200
C 	C 	0.96480 0.31110 0.57940 -0.07600
H 	H 	0.00030 0.36690 0.60840 0.03700
C 	C 	0.91850 0.09320 0.55000 0.02800
H 	H 	0.92120 0.99880 0.55920 -0.02600
C 	C 	0.60770 0.42470 0.21880 0.05300
H 	H 	0.61270 0.33030 0.22270 -0.00000
C 	C 	0.54630 0.47780 0.16690 -0.12000
H 	H 	0.51150 0.41970 0.13750 0.07000
C 	C 	0.85890 0.15970 0.48590 -0.00400
H 	H 	0.82230 0.10700 0.45390 0.01400
C 	C 	0.90680 0.36580 0.52000 0.03400
H 	H 	0.90350 0.46040 0.51310 -0.04600
