data_crystal

_cell_length_a 11.30150
_cell_length_b 33.52110
_cell_length_c 33.52110
_cell_angle_alpha 120.00000
_cell_angle_beta  90.00000
_cell_angle_gamma 90.00000

_symmetry_space_group_name_	'P 1'
_symmetry_space_group_name_H-M	'P 1'

loop_
_symmetry_equiv_pos_as_xyz
  x,y,z

loop_
_atom_site_label
_atom_site_type_symbol
_atom_site_fract_x
_atom_site_fract_y
_atom_site_fract_z
_atom_site_charge
Ni	Ni	0.99332 0.16546 0.83530 1.06900
Ni	Ni	0.09130 0.00153 0.50073 1.06900
Ni	Ni	0.15189 0.83434 0.66930 1.07800
Ni	Ni	0.99332 0.66984 0.83454 1.06900
Ni	Ni	0.09130 0.49920 0.99847 1.06900
Ni	Ni	0.15189 0.83496 0.16566 1.07800
Ni	Ni	0.99332 0.16470 0.33016 1.06900
Ni	Ni	0.09130 0.49927 0.50080 1.06800
Ni	Ni	0.15189 0.33070 0.16504 1.07800
H 	H 	0.08310 0.97500 0.72220 0.01700
H 	H 	0.12030 0.94810 0.59070 0.01500
H 	H 	0.02850 0.07620 0.69160 0.01800
H 	H 	0.03300 0.30910 0.92370 0.02600
H 	H 	0.11880 0.41000 0.05250 0.01800
H 	H 	0.07920 0.27860 0.02540 0.02200
H 	H 	0.20790 0.23450 0.85800 0.00800
H 	H 	0.40800 0.22980 0.85580 0.07000
H 	H 	0.39480 0.09450 0.81580 0.07600
H 	H 	0.19900 0.10270 0.81790 0.01100
H 	H 	0.78710 0.21060 0.90170 0.01000
H 	H 	0.58450 0.21670 0.90420 0.07100
H 	H 	0.57700 0.12070 0.77010 0.07100
H 	H 	0.77840 0.11450 0.76750 0.01100
H 	H 	0.29730 0.04470 0.57390 0.01700
H 	H 	0.49630 0.03970 0.56580 0.06100
H 	H 	0.51300 0.96500 0.43240 0.06700
H 	H 	0.30970 0.96480 0.43230 0.01200
H 	H 	0.88510 0.03910 0.46730 0.01400
H 	H 	0.67970 0.03850 0.46900 0.07200
H 	H 	0.67860 0.96730 0.53480 0.07100
H 	H 	0.88370 0.96400 0.53330 0.00100
H 	H 	0.36460 0.88520 0.65210 0.01300
H 	H 	0.56700 0.88220 0.64940 0.07300
H 	H 	0.55690 0.78490 0.68610 0.07300
H 	H 	0.35560 0.78890 0.68990 0.00300
H 	H 	0.94680 0.89780 0.70860 0.01000
H 	H 	0.74750 0.89900 0.71180 0.06300
H 	H 	0.73700 0.76330 0.61960 0.07400
H 	H 	0.93030 0.76670 0.61930 0.00800
H 	H 	0.08310 0.74720 0.02500 0.01800
H 	H 	0.12030 0.64260 0.05190 0.01600
H 	H 	0.02850 0.61540 0.92380 0.01900
H 	H 	0.03300 0.61460 0.69090 0.02400
H 	H 	0.11880 0.64250 0.59000 0.01400
H 	H 	0.07920 0.74680 0.72140 0.01800
H 	H 	0.20790 0.62350 0.76550 0.00800
H 	H 	0.40800 0.62600 0.77020 0.07000
H 	H 	0.39480 0.72130 0.90550 0.07600
H 	H 	0.19900 0.71520 0.89730 0.01100
H 	H 	0.78710 0.69110 0.78940 0.01000
H 	H 	0.58450 0.68750 0.78330 0.07000
H 	H 	0.57700 0.64940 0.87930 0.07100
H 	H 	0.77840 0.65300 0.88550 0.01100
H 	H 	0.29730 0.52920 0.95530 0.01700
H 	H 	0.49630 0.52610 0.96030 0.06100
H 	H 	0.51300 0.46740 0.03500 0.06700
H 	H 	0.30970 0.46750 0.03520 0.01200
H 	H 	0.88510 0.42820 0.96090 0.01400
H 	H 	0.67970 0.43050 0.96150 0.07200
H 	H 	0.67860 0.56750 0.03270 0.07100
H 	H 	0.88370 0.56930 0.03600 0.00100
H 	H 	0.36460 0.76690 0.11480 0.01300
H 	H 	0.56700 0.76720 0.11780 0.07300
H 	H 	0.55690 0.90120 0.21510 0.07300
H 	H 	0.35560 0.90100 0.21110 0.00300
H 	H 	0.94680 0.81080 0.10220 0.01000
H 	H 	0.74750 0.81280 0.10100 0.06300
H 	H 	0.73700 0.85630 0.23670 0.07300
H 	H 	0.93030 0.85260 0.23330 0.00800
H 	H 	0.08310 0.27780 0.25280 0.01500
H 	H 	0.12030 0.40930 0.35740 0.01300
H 	H 	0.02850 0.30840 0.38460 0.01600
H 	H 	0.03300 0.07630 0.38540 0.02700
H 	H 	0.11880 0.94750 0.35750 0.01800
H 	H 	0.07920 0.97460 0.25320 0.02100
H 	H 	0.20790 0.14200 0.37650 0.00800
H 	H 	0.40800 0.14420 0.37400 0.07000
H 	H 	0.39480 0.18420 0.27870 0.07500
H 	H 	0.19900 0.18210 0.28480 0.01100
H 	H 	0.78710 0.09830 0.30890 0.01000
H 	H 	0.58450 0.09580 0.31250 0.07100
H 	H 	0.57700 0.22990 0.35060 0.07100
H 	H 	0.77840 0.23250 0.34700 0.01000
H 	H 	0.29730 0.42610 0.47080 0.01800
H 	H 	0.49630 0.43420 0.47390 0.06000
H 	H 	0.51300 0.56760 0.53260 0.06600
H 	H 	0.30970 0.56770 0.53250 0.01200
H 	H 	0.88510 0.53270 0.57180 0.01400
H 	H 	0.67970 0.53100 0.56950 0.07000
H 	H 	0.67860 0.46520 0.43250 0.07000
H 	H 	0.88370 0.46670 0.43070 0.00200
H 	H 	0.36460 0.34790 0.23310 0.01300
H 	H 	0.56700 0.35060 0.23280 0.07400
H 	H 	0.55690 0.31390 0.09880 0.07300
H 	H 	0.35560 0.31010 0.09900 0.00300
H 	H 	0.94680 0.29140 0.18920 0.01100
H 	H 	0.74750 0.28820 0.18720 0.06400
H 	H 	0.73700 0.38040 0.14370 0.07300
H 	H 	0.93030 0.38070 0.14740 0.00800
C 	C 	0.05170 0.03046 0.71415 -0.17500
C 	C 	0.08070 0.98505 0.70024 0.10600
C 	C 	0.10620 0.95436 0.65425 -0.18400
C 	C 	0.10280 0.96908 0.62217 0.10400
C 	C 	0.07380 0.01449 0.63608 -0.16600
C 	C 	0.04830 0.04518 0.68207 0.10300
C 	C 	0.02270 0.06760 0.76340 0.46200
C 	C 	0.13380 0.90770 0.64430 0.41600
C 	C 	0.07240 0.02950 0.60020 0.43600
C 	C 	0.05210 0.28654 0.96964 -0.13500
C 	C 	0.05080 0.31859 0.95487 0.07900
C 	C 	0.07560 0.36460 0.98575 -0.15100
C 	C 	0.10180 0.37855 0.03140 0.09800
C 	C 	0.10310 0.34649 0.04617 -0.19200
C 	C 	0.07830 0.30049 0.01529 0.09100
C 	C 	0.02490 0.23620 0.93370 0.37200
C 	C 	0.07690 0.40190 0.97200 0.41700
C 	C 	0.12840 0.35830 0.09160 0.41000
C 	C 	0.24310 0.20560 0.84940 0.05600
C 	C 	0.36430 0.20270 0.84810 -0.11400
C 	C 	0.42820 0.16214 0.83606 0.04800
C 	C 	0.36060 0.12360 0.82450 -0.12200
C 	C 	0.24210 0.13020 0.82650 0.06500
C 	C 	0.74340 0.19180 0.87436 0.04800
C 	C 	0.62310 0.19570 0.87630 -0.11500
C 	C 	0.55940 0.16870 0.83740 0.04900
C 	C 	0.62090 0.13920 0.79750 -0.11700
C 	C 	0.74030 0.13540 0.79560 0.05700
C 	C 	0.33610 0.02830 0.54500 0.02700
C 	C 	0.45430 0.02380 0.53750 -0.08400
C 	C 	0.53070 0.00320 0.50140 0.03500
C 	C 	0.47100 0.98070 0.46070 -0.10800
C 	C 	0.34990 0.98100 0.46100 0.04300
C 	C 	0.84360 0.02430 0.48090 0.04700
C 	C 	0.72280 0.02380 0.48240 -0.11400
C 	C 	0.66150 0.00304 0.50184 0.06000
C 	C 	0.72180 0.98150 0.52090 -0.12200
C 	C 	0.84220 0.97970 0.52060 0.04600
C 	C 	0.40390 0.86450 0.65920 0.06000
C 	C 	0.52340 0.86300 0.65750 -0.12300
C 	C 	0.58070 0.83279 0.66789 0.05800
C 	C 	0.51700 0.80570 0.67930 -0.12400
C 	C 	0.39770 0.80790 0.68120 0.05700
C 	C 	0.90720 0.86950 0.68970 0.02600
C 	C 	0.78480 0.87040 0.69170 -0.09700
C 	C 	0.71220 0.83160 0.66600 0.03800
C 	C 	0.77550 0.79190 0.63840 -0.12400
C 	C 	0.89500 0.79560 0.63950 0.07400
C 	C 	0.05170 0.68369 0.96954 -0.17500
C 	C 	0.08070 0.71519 0.01495 0.10600
C 	C 	0.10620 0.69989 0.04564 -0.18400
C 	C 	0.10280 0.65309 0.03092 0.10400
C 	C 	0.07380 0.62159 0.98551 -0.16600
C 	C 	0.04830 0.63689 0.95482 0.10300
C 	C 	0.02270 0.69580 0.93240 0.46200
C 	C 	0.13380 0.73660 0.09230 0.41600
C 	C 	0.07240 0.57070 0.97050 0.43600
C 	C 	0.05210 0.68310 0.71346 -0.14800
C 	C 	0.05080 0.63628 0.68141 0.08900
C 	C 	0.07560 0.62115 0.63540 -0.16400
C 	C 	0.10180 0.65285 0.62145 0.11300
C 	C 	0.10310 0.69968 0.65351 -0.20100
C 	C 	0.07830 0.71480 0.69951 0.10600
C 	C 	0.02490 0.69750 0.76380 0.37500
C 	C 	0.07690 0.57010 0.59810 0.42100
C 	C 	0.12840 0.73330 0.64170 0.41400
C 	C 	0.24310 0.64380 0.79440 0.05600
C 	C 	0.36430 0.64540 0.79730 -0.11400
C 	C 	0.42820 0.67392 0.83786 0.04700
C 	C 	0.36060 0.70090 0.87640 -0.12200
C 	C 	0.24210 0.69630 0.86980 0.06500
C 	C 	0.74340 0.68256 0.80820 0.04700
C 	C 	0.62310 0.68060 0.80430 -0.11500
C 	C 	0.55940 0.66870 0.83130 0.04900
C 	C 	0.62090 0.65830 0.86080 -0.11700
C 	C 	0.74030 0.66020 0.86460 0.05700
C 	C 	0.33610 0.51670 0.97170 0.02700
C 	C 	0.45430 0.51370 0.97620 -0.08400
C 	C 	0.53070 0.49820 0.99680 0.03500
C 	C 	0.47100 0.48000 0.01930 -0.10800
C 	C 	0.34990 0.48000 0.01900 0.04300
C 	C 	0.84360 0.45660 0.97570 0.04700
C 	C 	0.72280 0.45860 0.97620 -0.11400
C 	C 	0.66150 0.49880 0.99696 0.06000
C 	C 	0.72180 0.53940 0.01850 -0.12200
C 	C 	0.84220 0.54090 0.02030 0.04600
C 	C 	0.40390 0.79470 0.13550 0.05900
C 	C 	0.52340 0.79450 0.13700 -0.12300
C 	C 	0.58070 0.83510 0.16721 0.05700
C 	C 	0.51700 0.87360 0.19430 -0.12500
C 	C 	0.39770 0.87330 0.19210 0.05700
C 	C 	0.90720 0.82020 0.13050 0.02600
C 	C 	0.78480 0.82130 0.12960 -0.09800
C 	C 	0.71220 0.83440 0.16840 0.03800
C 	C 	0.77550 0.84650 0.20810 -0.12400
C 	C 	0.89500 0.84390 0.20440 0.07300
C 	C 	0.05170 0.28585 0.31631 -0.18800
C 	C 	0.08070 0.29976 0.28481 0.12000
C 	C 	0.10620 0.34575 0.30011 -0.19300
C 	C 	0.10280 0.37783 0.34691 0.11800
C 	C 	0.07380 0.36392 0.37841 -0.17900
C 	C 	0.04830 0.31793 0.36311 0.11200
C 	C 	0.02270 0.23660 0.30420 0.46500
C 	C 	0.13380 0.35570 0.26340 0.42000
C 	C 	0.07240 0.39980 0.42930 0.44000
C 	C 	0.05210 0.03036 0.31690 -0.13500
C 	C 	0.05080 0.04513 0.36372 0.07900
C 	C 	0.07560 0.01425 0.37885 -0.15100
C 	C 	0.10180 0.96860 0.34715 0.09800
C 	C 	0.10310 0.95383 0.30032 -0.19200
C 	C 	0.07830 0.98471 0.28520 0.09100
C 	C 	0.02490 0.06630 0.30250 0.37200
C 	C 	0.07690 0.02800 0.42990 0.41700
C 	C 	0.12840 0.90840 0.26670 0.41000
C 	C 	0.24310 0.15060 0.35620 0.05600
C 	C 	0.36430 0.15190 0.35460 -0.11400
C 	C 	0.42820 0.16394 0.32608 0.04700
C 	C 	0.36060 0.17550 0.29910 -0.12200
C 	C 	0.24210 0.17350 0.30370 0.06500
C 	C 	0.74340 0.12564 0.31744 0.04700
C 	C 	0.62310 0.12370 0.31940 -0.11500
C 	C 	0.55940 0.16260 0.33130 0.04900
C 	C 	0.62090 0.20250 0.34170 -0.11700
C 	C 	0.74030 0.20440 0.33980 0.05700
C 	C 	0.33610 0.45500 0.48330 0.02500
C 	C 	0.45430 0.46250 0.48630 -0.08300
C 	C 	0.53070 0.49860 0.50180 0.03100
C 	C 	0.47100 0.53930 0.52000 -0.10200
C 	C 	0.34990 0.53900 0.52000 0.04600
C 	C 	0.84360 0.51910 0.54340 0.04500
C 	C 	0.72280 0.51760 0.54140 -0.11200
C 	C 	0.66150 0.49816 0.50120 0.05400
C 	C 	0.72180 0.47910 0.46060 -0.11500
C 	C 	0.84220 0.47940 0.45910 0.04800
C 	C 	0.40390 0.34080 0.20530 0.06000
C 	C 	0.52340 0.34250 0.20550 -0.12300
C 	C 	0.58070 0.33211 0.16490 0.05800
C 	C 	0.51700 0.32070 0.12640 -0.12400
C 	C 	0.39770 0.31880 0.12670 0.05700
C 	C 	0.90720 0.31030 0.17980 0.02600
C 	C 	0.78480 0.30830 0.17870 -0.09700
C 	C 	0.71220 0.33400 0.16560 0.03800
C 	C 	0.77550 0.36160 0.15350 -0.12400
C 	C 	0.89500 0.36050 0.15610 0.07400
N 	N 	0.16840 0.16788 0.83834 -0.23800
N 	N 	0.80620 0.16187 0.83452 -0.22500
N 	N 	0.28200 0.00394 0.50129 -0.20800
N 	N 	0.90220 0.00193 0.50074 -0.22000
N 	N 	0.33490 0.83721 0.67101 -0.23400
N 	N 	0.98160 0.82960 0.66169 -0.24500
N 	N 	0.16840 0.67046 0.83212 -0.23800
N 	N 	0.80620 0.67265 0.83813 -0.22500
N 	N 	0.28200 0.49735 0.99606 -0.20800
N 	N 	0.90220 0.49881 0.99807 -0.22000
N 	N 	0.33490 0.83380 0.16279 -0.23400
N 	N 	0.98160 0.83209 0.17040 -0.24500
N 	N 	0.16840 0.16166 0.32954 -0.23800
N 	N 	0.80620 0.16548 0.32735 -0.22500
N 	N 	0.28200 0.49871 0.50265 -0.21000
N 	N 	0.90220 0.49926 0.50119 -0.22200
N 	N 	0.33490 0.32899 0.16620 -0.23400
N 	N 	0.98160 0.33831 0.16791 -0.24500
O 	O 	0.99670 0.10408 0.77631 -0.52300
O 	O 	0.02670 0.05130 0.79260 -0.28000
O 	O 	0.13860 0.89594 0.66975 -0.48100
O 	O 	0.16300 0.87499 0.59746 -0.25900
O 	O 	0.09090 0.00332 0.56254 -0.48400
O 	O 	0.04340 0.07170 0.61420 -0.29100
O 	O 	0.02620 0.20760 0.94850 -0.27200
O 	O 	0.00020 0.22437 0.89399 -0.44900
O 	O 	0.04980 0.38610 0.92680 -0.27300
O 	O 	0.09550 0.43880 0.99715 -0.49500
O 	O 	0.15430 0.40240 0.12370 -0.26800
O 	O 	0.13220 0.33353 0.10690 -0.46300
O 	O 	0.99670 0.67223 0.89592 -0.52300
O 	O 	0.02670 0.74130 0.94870 -0.28000
O 	O 	0.13860 0.77381 0.10406 -0.48200
O 	O 	0.16300 0.72247 0.12501 -0.25900
O 	O 	0.09090 0.55922 0.99668 -0.48400
O 	O 	0.04340 0.54250 0.92830 -0.29100
O 	O 	0.02620 0.74090 0.79240 -0.27500
O 	O 	0.00020 0.66962 0.77563 -0.45000
O 	O 	0.04980 0.54070 0.61390 -0.27400
O 	O 	0.09550 0.55835 0.56120 -0.49800
O 	O 	0.15430 0.72130 0.59760 -0.26800
O 	O 	0.13220 0.77337 0.66647 -0.46400
O 	O 	0.99670 0.22369 0.32777 -0.52400
O 	O 	0.02670 0.20740 0.25870 -0.28200
O 	O 	0.13860 0.33025 0.22619 -0.48200
O 	O 	0.16300 0.40254 0.27753 -0.25900
O 	O 	0.09090 0.43746 0.44078 -0.48700
O 	O 	0.04340 0.38580 0.45750 -0.29200
O 	O 	0.02620 0.05150 0.25910 -0.27300
O 	O 	0.00020 0.10601 0.33038 -0.44900
O 	O 	0.04980 0.07320 0.45930 -0.27300
O 	O 	0.09550 0.00285 0.44165 -0.49500
O 	O 	0.15430 0.87630 0.27870 -0.26800
O 	O 	0.13220 0.89310 0.22663 -0.46300
