data_crystal

_cell_length_a 18.23820
_cell_length_b 18.23820
_cell_length_c 10.21200
_cell_angle_alpha 90.00000
_cell_angle_beta  90.00000
_cell_angle_gamma 123.62830

_symmetry_space_group_name_	'P 1'
_symmetry_space_group_name_H-M	'P 1'

loop_
_symmetry_equiv_pos_as_xyz
  x,y,z

loop_
_atom_site_label
_atom_site_type_symbol
_atom_site_fract_x
_atom_site_fract_y
_atom_site_fract_z
_atom_site_charge
Rb	Rb	0.09241 0.76209 0.96049 0.68500
Ga	Ga	0.84582 0.00702 0.28894 2.09000
Ga	Ga	0.15492 0.66866 0.29917 2.08300
Ga	Ga	0.34558 0.00870 0.10730 2.07900
Ga	Ga	0.96214 0.51168 0.13230 2.09800
P 	P 	0.30768 0.81756 0.10460 0.63500
P 	P 	0.34292 0.02624 0.81621 0.64300
P 	P 	0.15883 0.97681 0.09568 0.63100
P 	P 	0.93272 0.52656 0.83467 0.61200
F 	F 	0.08448 0.61662 0.12880 -0.86600
F 	F 	0.96627 0.04841 0.33160 -0.84400
F 	F 	0.45291 0.01027 0.04220 -0.87400
O 	O 	0.01298 0.52810 0.79280 -0.61000
O 	O 	0.40406 0.84834 0.12640 -0.59100
O 	O 	0.25343 0.74261 0.19910 -0.62100
O 	O 	0.94415 0.55935 0.97550 -0.53800
O 	O 	0.42811 0.07631 0.73580 -0.56400
O 	O 	0.27766 0.78442 0.96530 -0.57600
O 	O 	0.84827 0.43313 0.82000 -0.61400
O 	O 	0.30693 0.92793 0.83680 -0.71400
O 	O 	0.16734 0.95732 0.95170 -0.62900
O 	O 	0.92111 0.58941 0.74740 -0.60000
O 	O 	0.24532 0.01132 0.16480 -0.59300
O 	O 	0.13437 0.04431 0.10480 -0.54600
O 	O 	0.27463 0.03411 0.74310 -0.57800
O 	O 	0.08755 0.88639 0.15380 -0.67300
O 	O 	0.36100 0.06934 0.95290 -0.56200
O 	O 	0.28943 0.88837 0.13900 -0.69700
O 	O 	0.81759 0.89479 0.24680 -0.57800
N 	N 	0.58693 0.18043 0.92640 -0.45400
H 	H 	0.62590 0.20450 0.86140 0.18100
H 	H 	0.53520 0.13700 0.89510 0.21400
H 	H 	0.60580 0.15920 0.98630 0.23600
C 	C 	0.57693 0.24807 0.98690 0.35200
H 	H 	0.60810 0.26570 0.06980 -0.08800
H 	H 	0.51500 0.22220 0.00510 -0.09900
C 	C 	0.61094 0.32906 0.90280 -0.41800
H 	H 	0.56810 0.31390 0.83400 0.16000
H 	H 	0.66460 0.34200 0.86070 0.16200
C 	C 	0.63080 0.41340 0.96630 0.21000
H 	H 	0.57350 0.40350 0.98220 -0.01600
H 	H 	0.65410 0.41410 0.05190 -0.05300
C 	C 	0.68710 0.50670 0.91940 -0.21400
H 	H 	0.66040 0.52080 0.85020 0.10400
H 	H 	0.74670 0.52550 0.89660 0.12200
C 	C 	0.67860 0.53560 0.05330 -0.10600
H 	H 	0.64640 0.48320 0.10730 0.04900
H 	H 	0.64200 0.55860 0.04460 0.04800
C 	C 	0.75940 0.60240 0.12820 -0.00600
H 	H 	0.75240 0.64860 0.15840 0.05200
H 	H 	0.76490 0.57430 0.20470 0.04700
N 	N 	0.84110 0.64230 0.05000 -0.40000
H 	H 	0.83560 0.66640 0.97790 0.20700
H 	H 	0.85040 0.60100 0.02770 0.15800
H 	H 	0.88630 0.68370 0.09710 0.17200
Rb	Rb	0.90759 0.23791 0.46049 0.67500
Ga	Ga	0.15418 0.99298 0.78894 2.09000
Ga	Ga	0.84508 0.33134 0.79917 2.08400
Ga	Ga	0.65442 0.99130 0.60730 2.08400
Ga	Ga	0.03786 0.48832 0.63230 2.10100
P 	P 	0.69232 0.18244 0.60460 0.66600
P 	P 	0.65708 0.97376 0.31621 0.64300
P 	P 	0.84117 0.02319 0.59568 0.66000
P 	P 	0.06728 0.47344 0.33467 0.61200
F 	F 	0.91552 0.38338 0.62880 -0.84800
F 	F 	0.03373 0.95159 0.83160 -0.83500
F 	F 	0.54709 0.98973 0.54220 -0.85000
O 	O 	0.98702 0.47190 0.29280 -0.61500
O 	O 	0.59594 0.15166 0.62640 -0.58600
O 	O 	0.74657 0.25739 0.69910 -0.62200
O 	O 	0.05585 0.44065 0.47550 -0.56300
O 	O 	0.57189 0.92369 0.23580 -0.57000
O 	O 	0.72234 0.21558 0.46530 -0.60500
O 	O 	0.15173 0.56687 0.32000 -0.61800
O 	O 	0.69307 0.07207 0.33680 -0.72400
O 	O 	0.83266 0.04268 0.45170 -0.65900
O 	O 	0.07889 0.41059 0.24740 -0.60600
O 	O 	0.75468 0.98868 0.66480 -0.58400
O 	O 	0.86563 0.95569 0.60480 -0.53400
O 	O 	0.72537 0.96589 0.24310 -0.58500
O 	O 	0.91245 0.11361 0.65380 -0.66600
O 	O 	0.63900 0.93066 0.45290 -0.58900
O 	O 	0.71057 0.11163 0.63900 -0.68900
O 	O 	0.18241 0.10521 0.74680 -0.56900
N 	N 	0.41307 0.81957 0.42640 -0.39900
H 	H 	0.37410 0.79550 0.36140 0.17200
H 	H 	0.46480 0.86300 0.39510 0.19500
H 	H 	0.39420 0.84080 0.48630 0.20600
C 	C 	0.42307 0.75193 0.48690 0.07100
H 	H 	0.39190 0.73430 0.56980 0.02100
H 	H 	0.48500 0.77780 0.50510 0.02100
C 	C 	0.38906 0.67094 0.40280 -0.22300
H 	H 	0.43190 0.68610 0.33400 0.10100
H 	H 	0.33540 0.65800 0.36070 0.10600
C 	C 	0.36920 0.58660 0.46630 0.01300
H 	H 	0.42650 0.59650 0.48220 0.02300
H 	H 	0.34590 0.58590 0.55190 0.02800
C 	C 	0.31290 0.49330 0.41940 -0.16300
H 	H 	0.33960 0.47920 0.35020 0.08000
H 	H 	0.25330 0.47450 0.39660 0.09700
C 	C 	0.32140 0.46440 0.55330 -0.08000
H 	H 	0.35360 0.51680 0.60730 0.04400
H 	H 	0.35800 0.44140 0.54460 0.05300
C 	C 	0.24060 0.39760 0.62820 -0.01600
H 	H 	0.24760 0.35140 0.65840 0.06100
H 	H 	0.23510 0.42570 0.70470 0.05100
N 	N 	0.15890 0.35770 0.55000 -0.36700
H 	H 	0.16440 0.33360 0.47790 0.16800
H 	H 	0.14960 0.39900 0.52770 0.16900
H 	H 	0.11370 0.31630 0.59710 0.17300
Rb	Rb	0.23791 0.90759 0.46049 0.67500
Ga	Ga	0.99298 0.15418 0.78894 2.09000
Ga	Ga	0.33134 0.84508 0.79917 2.08400
Ga	Ga	0.99130 0.65442 0.60730 2.08400
Ga	Ga	0.48832 0.03786 0.63230 2.10100
P 	P 	0.18244 0.69232 0.60460 0.66600
P 	P 	0.97376 0.65708 0.31621 0.64300
P 	P 	0.02319 0.84117 0.59568 0.66000
P 	P 	0.47344 0.06728 0.33467 0.61200
F 	F 	0.38338 0.91552 0.62880 -0.84800
F 	F 	0.95159 0.03373 0.83160 -0.83500
F 	F 	0.98973 0.54709 0.54220 -0.85000
O 	O 	0.47190 0.98702 0.29280 -0.61500
O 	O 	0.15166 0.59594 0.62640 -0.58600
O 	O 	0.25739 0.74657 0.69910 -0.62200
O 	O 	0.44065 0.05585 0.47550 -0.56300
O 	O 	0.92369 0.57189 0.23580 -0.57000
O 	O 	0.21558 0.72234 0.46530 -0.60500
O 	O 	0.56687 0.15173 0.32000 -0.61800
O 	O 	0.07207 0.69307 0.33680 -0.72400
O 	O 	0.04268 0.83266 0.45170 -0.65900
O 	O 	0.41059 0.07889 0.24740 -0.60600
O 	O 	0.98868 0.75468 0.66480 -0.58400
O 	O 	0.95569 0.86563 0.60480 -0.53400
O 	O 	0.96589 0.72537 0.24310 -0.58500
O 	O 	0.11361 0.91245 0.65380 -0.66600
O 	O 	0.93066 0.63900 0.45290 -0.58900
O 	O 	0.11163 0.71057 0.63900 -0.68900
O 	O 	0.10521 0.18241 0.74680 -0.56900
N 	N 	0.81957 0.41307 0.42640 -0.39900
H 	H 	0.79550 0.37410 0.36140 0.17200
H 	H 	0.86300 0.46480 0.39510 0.19500
H 	H 	0.84080 0.39420 0.48630 0.20600
C 	C 	0.75193 0.42307 0.48690 0.07100
H 	H 	0.73430 0.39190 0.56980 0.02100
H 	H 	0.77780 0.48500 0.50510 0.02100
C 	C 	0.67094 0.38906 0.40280 -0.22300
H 	H 	0.68610 0.43190 0.33400 0.10100
H 	H 	0.65800 0.33540 0.36070 0.10600
C 	C 	0.58660 0.36920 0.46630 0.01300
H 	H 	0.59650 0.42650 0.48220 0.02300
H 	H 	0.58590 0.34590 0.55190 0.02800
C 	C 	0.49330 0.31290 0.41940 -0.16300
H 	H 	0.47920 0.33960 0.35020 0.08000
H 	H 	0.47450 0.25330 0.39660 0.09700
C 	C 	0.46440 0.32140 0.55330 -0.08000
H 	H 	0.51680 0.35360 0.60730 0.04400
H 	H 	0.44140 0.35800 0.54460 0.05300
C 	C 	0.39760 0.24060 0.62820 -0.01600
H 	H 	0.35140 0.24760 0.65840 0.06100
H 	H 	0.42570 0.23510 0.70470 0.05100
N 	N 	0.35770 0.15890 0.55000 -0.36700
H 	H 	0.33360 0.16440 0.47790 0.16800
H 	H 	0.39900 0.14960 0.52770 0.16900
H 	H 	0.31630 0.11370 0.59710 0.17300
Rb	Rb	0.76209 0.09241 0.96049 0.68400
Ga	Ga	0.00702 0.84582 0.28894 2.09000
Ga	Ga	0.66866 0.15492 0.29917 2.08300
Ga	Ga	0.00870 0.34558 0.10730 2.07900
Ga	Ga	0.51168 0.96214 0.13230 2.09800
P 	P 	0.81756 0.30768 0.10460 0.63500
P 	P 	0.02624 0.34292 0.81621 0.64300
P 	P 	0.97681 0.15883 0.09568 0.63100
P 	P 	0.52656 0.93272 0.83467 0.61200
F 	F 	0.61662 0.08448 0.12880 -0.86600
F 	F 	0.04841 0.96627 0.33160 -0.84400
F 	F 	0.01027 0.45291 0.04220 -0.87400
O 	O 	0.52810 0.01298 0.79280 -0.61000
O 	O 	0.84834 0.40406 0.12640 -0.59100
O 	O 	0.74261 0.25343 0.19910 -0.62100
O 	O 	0.55935 0.94415 0.97550 -0.53800
O 	O 	0.07631 0.42811 0.73580 -0.56400
O 	O 	0.78442 0.27766 0.96530 -0.57600
O 	O 	0.43313 0.84827 0.82000 -0.61400
O 	O 	0.92793 0.30693 0.83680 -0.71400
O 	O 	0.95732 0.16734 0.95170 -0.62900
O 	O 	0.58941 0.92111 0.74740 -0.60000
O 	O 	0.01132 0.24532 0.16480 -0.59300
O 	O 	0.04431 0.13437 0.10480 -0.54600
O 	O 	0.03411 0.27463 0.74310 -0.57800
O 	O 	0.88639 0.08755 0.15380 -0.67300
O 	O 	0.06934 0.36100 0.95290 -0.56200
O 	O 	0.88837 0.28943 0.13900 -0.69700
O 	O 	0.89479 0.81759 0.24680 -0.57800
N 	N 	0.18043 0.58693 0.92640 -0.45400
H 	H 	0.20450 0.62590 0.86140 0.18100
H 	H 	0.13700 0.53520 0.89510 0.21400
H 	H 	0.15920 0.60580 0.98630 0.23600
C 	C 	0.24807 0.57693 0.98690 0.35200
H 	H 	0.26570 0.60810 0.06980 -0.08800
H 	H 	0.22220 0.51500 0.00510 -0.09900
C 	C 	0.32906 0.61094 0.90280 -0.41800
H 	H 	0.31390 0.56810 0.83400 0.16000
H 	H 	0.34200 0.66460 0.86070 0.16200
C 	C 	0.41340 0.63080 0.96630 0.21000
H 	H 	0.40350 0.57350 0.98220 -0.01600
H 	H 	0.41410 0.65410 0.05190 -0.05300
C 	C 	0.50670 0.68710 0.91940 -0.21400
H 	H 	0.52080 0.66040 0.85020 0.10400
H 	H 	0.52550 0.74670 0.89660 0.12200
C 	C 	0.53560 0.67860 0.05330 -0.10600
H 	H 	0.48320 0.64640 0.10730 0.04900
H 	H 	0.55860 0.64200 0.04460 0.04800
C 	C 	0.60240 0.75940 0.12820 -0.00600
H 	H 	0.64860 0.75240 0.15840 0.05200
H 	H 	0.57430 0.76490 0.20470 0.04700
N 	N 	0.64230 0.84110 0.05000 -0.40000
H 	H 	0.66640 0.83560 0.97790 0.20700
H 	H 	0.60100 0.85040 0.02770 0.15800
H 	H 	0.68370 0.88630 0.09710 0.17200
Ga	Ga	0.05093 0.05093 0.21266 2.11300
P 	P 	0.87258 0.87258 0.16255 0.56100
F 	F 	0.14686 0.14686 0.30850 -0.56800
O 	O 	0.95472 0.95472 0.10620 -0.54000
O 	O 	0.81340 0.81340 0.04750 -0.19800
Ga	Ga	0.94907 0.94907 0.71266 2.11300
P 	P 	0.12742 0.12742 0.66255 0.56100
F 	F 	0.85314 0.85314 0.80850 -0.55600
O 	O 	0.04528 0.04528 0.60620 -0.52900
O 	O 	0.18660 0.18660 0.54750 -0.17800
