data_crystal

_cell_length_a 18.63300
_cell_length_b 20.39900
_cell_length_c 20.85200
_cell_angle_alpha 90.00000
_cell_angle_beta  90.00000
_cell_angle_gamma 90.00000

_symmetry_space_group_name_	'P 1'
_symmetry_space_group_name_H-M	'P 1'

loop_
_symmetry_equiv_pos_as_xyz
  x,y,z

loop_
_atom_site_label
_atom_site_type_symbol
_atom_site_fract_x
_atom_site_fract_y
_atom_site_fract_z
_atom_site_charge
Cd	Cd	0.82775 0.87196 0.38654 1.24200
Cd	Cd	0.68851 0.16329 0.36463 1.22700
Cd	Cd	0.75538 0.03662 0.46170 1.22400
Cd	Cd	0.19579 0.08593 0.11856 1.18400
O 	O 	0.67677 0.04346 0.37290 -0.44700
O 	O 	0.57660 0.09896 0.37070 -0.34000
O 	O 	0.16496 0.49108 0.11468 -0.47000
O 	O 	0.06620 0.43427 0.11600 -0.36800
O 	O 	0.82940 0.89327 0.26350 -0.30500
O 	O 	0.85500 0.79870 0.30693 -0.39000
O 	O 	0.70915 0.87700 0.37340 -0.40200
O 	O 	0.70070 0.93835 0.46129 -0.44400
O 	O 	0.80510 0.90210 0.02780 -0.45200
O 	O 	0.84530 0.81860 0.96730 -0.43100
O 	O 	0.67900 0.49390 0.96080 -0.40400
O 	O 	0.78950 0.46340 0.95090 -0.36400
O 	O 	0.20530 0.84290 0.44760 -0.30100
O 	O 	0.12620 0.89450 0.38670 -0.45000
H 	H 	0.09700 0.87390 0.41070 0.26200
O 	O 	0.30690 0.05860 0.19600 -0.33200
O 	O 	0.32570 0.64240 0.25570 -0.31900
O 	O 	0.69790 0.68360 0.20470 -0.27300
O 	O 	0.61350 0.63890 0.14290 -0.45500
H 	H 	0.58600 0.66040 0.16770 0.26900
O 	O 	0.19050 0.63320 0.18720 -0.33900
O 	O 	0.35960 0.71309 0.54672 -0.40300
O 	O 	0.35270 0.62120 0.49600 -0.36900
O 	O 	0.38040 0.72250 0.20740 -0.38000
O 	O 	0.20000 0.62760 0.08430 -0.50400
O 	O 	0.20000 0.01850 0.20030 -0.43400
C 	C 	0.55420 0.86830 0.39680 -0.03200
H 	H 	0.57480 0.82830 0.40760 0.05600
C 	C 	0.56700 0.98390 0.38110 -0.04100
C 	C 	0.49330 0.98630 0.36610 -0.04800
H 	H 	0.47270 0.02640 0.35590 0.08000
C 	C 	0.45020 0.93000 0.36620 0.00800
C 	C 	0.48120 0.87040 0.38210 -0.00800
C 	C 	0.60790 0.04650 0.37550 0.31200
C 	C 	0.44130 0.80700 0.38110 0.01700
C 	C 	0.42090 0.78100 0.32240 -0.04000
H 	H 	0.43160 0.80310 0.28460 0.06900
C 	C 	0.38360 0.72020 0.32040 -0.05700
C 	C 	0.36770 0.68760 0.37690 0.01000
H 	H 	0.34420 0.64740 0.37570 0.05800
C 	C 	0.42360 0.77410 0.43790 -0.03400
H 	H 	0.43650 0.79180 0.47730 0.04300
C 	C 	0.09730 0.48770 0.11430 0.32400
C 	C 	0.85010 0.83450 0.25860 0.31500
C 	C 	0.86680 0.80670 0.19570 -0.07100
C 	C 	0.84310 0.83770 0.13930 0.02200
H 	H 	0.81640 0.87610 0.14220 0.05300
C 	C 	0.90780 0.74970 0.19000 -0.02800
H 	H 	0.92570 0.72960 0.22680 0.04800
C 	C 	0.92220 0.72220 0.12970 0.00500
C 	C 	0.89750 0.75350 0.07540 -0.01800
H 	H 	0.90690 0.73520 0.03540 0.05600
C 	C 	0.96570 0.66010 0.12500 -0.00300
C 	C 	0.93550 0.59910 0.10900 0.00400
C 	C 	0.97940 0.54550 0.10760 -0.04600
H 	H 	0.95910 0.50460 0.09970 0.07700
C 	C 	0.85900 0.81140 0.07900 -0.08800
C 	C 	0.83460 0.84730 0.02010 0.38300
C 	C 	0.80470 0.62070 0.13250 -0.02800
H 	H 	0.81820 0.64760 0.16650 0.05200
C 	C 	0.73240 0.61180 0.11940 -0.07600
C 	C 	0.71210 0.57250 0.06760 0.01700
H 	H 	0.66380 0.56780 0.05770 0.06200
C 	C 	0.76340 0.54040 0.03070 -0.06900
C 	C 	0.83570 0.55070 0.04460 -0.03000
H 	H 	0.87030 0.53070 0.01910 0.06500
C 	C 	0.37270 0.93720 0.34840 0.01000
C 	C 	0.31970 0.90630 0.38460 -0.02000
H 	H 	0.33180 0.88180 0.42060 0.04400
C 	C 	0.24730 0.91280 0.36560 -0.08600
C 	C 	0.22950 0.95060 0.31350 0.02400
H 	H 	0.18160 0.95540 0.30180 0.06100
C 	C 	0.28220 0.98140 0.27850 -0.07100
C 	C 	0.67640 0.91400 0.41180 0.35200
C 	C 	0.35360 0.97480 0.29690 -0.02800
H 	H 	0.38900 0.99640 0.27370 0.06600
C 	C 	0.03910 0.66480 0.13500 -0.03500
H 	H 	0.05890 0.70510 0.14610 0.05200
C 	C 	0.08380 0.61070 0.12860 -0.05500
C 	C 	0.05430 0.54970 0.11740 -0.05300
C 	C 	0.85770 0.59040 0.09590 0.01200
C 	C 	0.74270 0.49620 0.97640 0.33600
C 	C 	0.19090 0.87880 0.40400 0.38300
C 	C 	0.59670 0.92360 0.39590 -0.04600
C 	C 	0.38670 0.71490 0.43540 -0.07200
C 	C 	0.26150 0.02300 0.22140 0.33900
C 	C 	0.36240 0.69260 0.25690 0.31500
C 	C 	0.36500 0.68120 0.49570 0.33000
C 	C 	0.67840 0.64730 0.15960 0.36700
C 	C 	0.16320 0.62280 0.13530 0.33500
Cd	Cd	0.67225 0.12804 0.88654 1.24200
Cd	Cd	0.81149 0.83671 0.86463 1.22600
Cd	Cd	0.74462 0.96338 0.96170 1.22200
Cd	Cd	0.30421 0.91407 0.61856 1.18400
O 	O 	0.82323 0.95654 0.87290 -0.44800
O 	O 	0.92340 0.90104 0.87070 -0.34200
O 	O 	0.33504 0.50892 0.61468 -0.47000
O 	O 	0.43380 0.56573 0.61600 -0.36800
O 	O 	0.67060 0.10673 0.76350 -0.30500
O 	O 	0.64500 0.20130 0.80693 -0.39000
O 	O 	0.79085 0.12300 0.87340 -0.40200
O 	O 	0.79930 0.06165 0.96129 -0.44300
O 	O 	0.69490 0.09790 0.52780 -0.45200
O 	O 	0.65470 0.18140 0.46730 -0.43000
O 	O 	0.82100 0.50610 0.46080 -0.40400
O 	O 	0.71050 0.53660 0.45090 -0.36400
O 	O 	0.29470 0.15710 0.94760 -0.30000
O 	O 	0.37380 0.10550 0.88670 -0.45000
H 	H 	0.40300 0.12610 0.91070 0.26200
O 	O 	0.19310 0.94140 0.69600 -0.33200
O 	O 	0.17430 0.35760 0.75570 -0.31900
O 	O 	0.80210 0.31640 0.70470 -0.27300
O 	O 	0.88650 0.36110 0.64290 -0.45500
H 	H 	0.91400 0.33960 0.66770 0.26900
O 	O 	0.30950 0.36680 0.68720 -0.33900
O 	O 	0.14040 0.28691 0.04672 -0.40400
O 	O 	0.14730 0.37880 0.99600 -0.36900
O 	O 	0.11960 0.27750 0.70740 -0.38000
O 	O 	0.30000 0.37240 0.58430 -0.50400
O 	O 	0.30000 0.98150 0.70030 -0.43400
C 	C 	0.94580 0.13170 0.89680 -0.03300
H 	H 	0.92520 0.17170 0.90760 0.05600
C 	C 	0.93300 0.01610 0.88110 -0.04200
C 	C 	0.00670 0.01370 0.86610 -0.04700
H 	H 	0.02730 0.97360 0.85590 0.08000
C 	C 	0.04980 0.07000 0.86620 0.00800
C 	C 	0.01880 0.12960 0.88210 -0.00700
C 	C 	0.89210 0.95350 0.87550 0.31300
C 	C 	0.05870 0.19300 0.88110 0.01600
C 	C 	0.07910 0.21900 0.82240 -0.04000
H 	H 	0.06840 0.19690 0.78460 0.06900
C 	C 	0.11640 0.27980 0.82040 -0.05800
C 	C 	0.13230 0.31240 0.87690 0.01000
H 	H 	0.15580 0.35260 0.87570 0.05800
C 	C 	0.07640 0.22590 0.93790 -0.03400
H 	H 	0.06350 0.20820 0.97730 0.04400
C 	C 	0.40270 0.51230 0.61430 0.32400
C 	C 	0.64990 0.16550 0.75860 0.31500
C 	C 	0.63320 0.19330 0.69570 -0.07100
C 	C 	0.65690 0.16230 0.63930 0.02200
H 	H 	0.68360 0.12390 0.64220 0.05300
C 	C 	0.59220 0.25030 0.69000 -0.02800
H 	H 	0.57430 0.27040 0.72680 0.04800
C 	C 	0.57780 0.27780 0.62970 0.00500
C 	C 	0.60250 0.24650 0.57540 -0.01900
H 	H 	0.59310 0.26480 0.53540 0.05600
C 	C 	0.53430 0.33990 0.62500 -0.00400
C 	C 	0.56450 0.40090 0.60900 0.00500
C 	C 	0.52060 0.45450 0.60760 -0.04800
H 	H 	0.54090 0.49540 0.59970 0.07700
C 	C 	0.64100 0.18860 0.57900 -0.08800
C 	C 	0.66540 0.15270 0.52010 0.38100
C 	C 	0.69530 0.37930 0.63250 -0.02800
H 	H 	0.68180 0.35240 0.66650 0.05200
C 	C 	0.76760 0.38820 0.61940 -0.07600
C 	C 	0.78790 0.42750 0.56760 0.01700
H 	H 	0.83620 0.43220 0.55770 0.06200
C 	C 	0.73660 0.45960 0.53070 -0.07000
C 	C 	0.66430 0.44930 0.54460 -0.03000
H 	H 	0.62970 0.46930 0.51910 0.06400
C 	C 	0.12730 0.06280 0.84840 0.01000
C 	C 	0.18030 0.09370 0.88460 -0.02000
H 	H 	0.16820 0.11820 0.92060 0.04400
C 	C 	0.25270 0.08720 0.86560 -0.08600
C 	C 	0.27050 0.04940 0.81350 0.02400
H 	H 	0.31840 0.04460 0.80180 0.06100
C 	C 	0.21780 0.01860 0.77850 -0.07200
C 	C 	0.82360 0.08600 0.91180 0.35100
C 	C 	0.14640 0.02520 0.79690 -0.02800
H 	H 	0.11100 0.00360 0.77370 0.06500
C 	C 	0.46090 0.33520 0.63500 -0.03400
H 	H 	0.44110 0.29490 0.64610 0.05200
C 	C 	0.41620 0.38930 0.62860 -0.05600
C 	C 	0.44570 0.45030 0.61740 -0.05200
C 	C 	0.64230 0.40960 0.59590 0.01100
C 	C 	0.75730 0.50380 0.47640 0.33700
C 	C 	0.30910 0.12120 0.90400 0.38300
C 	C 	0.90330 0.07640 0.89590 -0.04600
C 	C 	0.11330 0.28510 0.93540 -0.07300
C 	C 	0.23850 0.97700 0.72140 0.34000
C 	C 	0.13760 0.30740 0.75690 0.31500
C 	C 	0.13500 0.31880 0.99570 0.33100
C 	C 	0.82160 0.35270 0.65960 0.36700
C 	C 	0.33680 0.37720 0.63530 0.33500
Cd	Cd	0.17225 0.37196 0.11346 1.24100
Cd	Cd	0.31149 0.66329 0.13537 1.22600
Cd	Cd	0.24462 0.53662 0.03830 1.22300
Cd	Cd	0.80421 0.58593 0.38144 1.18400
O 	O 	0.32323 0.54346 0.12710 -0.44700
O 	O 	0.42340 0.59896 0.12930 -0.34100
O 	O 	0.83504 0.99108 0.38532 -0.46900
O 	O 	0.93380 0.93427 0.38400 -0.36800
O 	O 	0.17060 0.39327 0.23650 -0.30500
O 	O 	0.14500 0.29870 0.19307 -0.39000
O 	O 	0.29085 0.37700 0.12660 -0.40200
O 	O 	0.29930 0.43835 0.03871 -0.44400
O 	O 	0.19490 0.40210 0.47220 -0.45200
O 	O 	0.15470 0.31860 0.53270 -0.43000
O 	O 	0.32100 0.99390 0.53920 -0.40400
O 	O 	0.21050 0.96340 0.54910 -0.36400
O 	O 	0.79470 0.34290 0.05240 -0.30100
O 	O 	0.87380 0.39450 0.11330 -0.45100
H 	H 	0.90300 0.37390 0.08930 0.26200
O 	O 	0.69310 0.55860 0.30400 -0.33200
O 	O 	0.67430 0.14240 0.24430 -0.31900
O 	O 	0.30210 0.18360 0.29530 -0.27300
O 	O 	0.38650 0.13890 0.35710 -0.45500
H 	H 	0.41400 0.16040 0.33230 0.26900
O 	O 	0.80950 0.13320 0.31280 -0.33900
O 	O 	0.64040 0.21309 0.95328 -0.40200
O 	O 	0.64730 0.12120 0.00400 -0.37000
O 	O 	0.61960 0.22250 0.29260 -0.38000
O 	O 	0.80000 0.12760 0.41570 -0.50400
O 	O 	0.80000 0.51850 0.29970 -0.43400
C 	C 	0.44580 0.36830 0.10320 -0.03200
H 	H 	0.42520 0.32830 0.09240 0.05600
C 	C 	0.43300 0.48390 0.11890 -0.04100
C 	C 	0.50670 0.48630 0.13390 -0.05000
H 	H 	0.52730 0.52640 0.14410 0.08100
C 	C 	0.54980 0.43000 0.13380 0.00900
C 	C 	0.51880 0.37040 0.11790 -0.00900
C 	C 	0.39210 0.54650 0.12450 0.31300
C 	C 	0.55870 0.30700 0.11890 0.01700
C 	C 	0.57910 0.28100 0.17760 -0.04100
H 	H 	0.56840 0.30310 0.21540 0.06900
C 	C 	0.61640 0.22020 0.17960 -0.05700
C 	C 	0.63230 0.18760 0.12310 0.01000
H 	H 	0.65580 0.14740 0.12430 0.05800
C 	C 	0.57640 0.27410 0.06210 -0.03400
H 	H 	0.56350 0.29180 0.02270 0.04300
C 	C 	0.90270 0.98770 0.38570 0.32400
C 	C 	0.14990 0.33450 0.24140 0.31500
C 	C 	0.13320 0.30670 0.30430 -0.07100
C 	C 	0.15690 0.33770 0.36070 0.02200
H 	H 	0.18360 0.37610 0.35780 0.05300
C 	C 	0.09220 0.24970 0.31000 -0.02800
H 	H 	0.07430 0.22960 0.27320 0.04800
C 	C 	0.07780 0.22220 0.37030 0.00500
C 	C 	0.10250 0.25350 0.42460 -0.01900
H 	H 	0.09310 0.23520 0.46460 0.05600
C 	C 	0.03430 0.16010 0.37500 -0.00500
C 	C 	0.06450 0.09910 0.39100 0.00500
C 	C 	0.02060 0.04550 0.39240 -0.04800
H 	H 	0.04090 0.00460 0.40030 0.07700
C 	C 	0.14100 0.31140 0.42100 -0.08800
C 	C 	0.16540 0.34730 0.47990 0.38100
C 	C 	0.19530 0.12070 0.36750 -0.02800
H 	H 	0.18180 0.14760 0.33350 0.05200
C 	C 	0.26760 0.11180 0.38060 -0.07700
C 	C 	0.28790 0.07250 0.43240 0.01700
H 	H 	0.33620 0.06780 0.44230 0.06200
C 	C 	0.23660 0.04040 0.46930 -0.07000
C 	C 	0.16430 0.05070 0.45540 -0.02900
H 	H 	0.12970 0.03070 0.48090 0.06400
C 	C 	0.62730 0.43720 0.15160 0.00900
C 	C 	0.68030 0.40630 0.11540 -0.01900
H 	H 	0.66820 0.38180 0.07940 0.04300
C 	C 	0.75270 0.41280 0.13440 -0.08600
C 	C 	0.77050 0.45060 0.18650 0.02500
H 	H 	0.81840 0.45540 0.19820 0.06000
C 	C 	0.71780 0.48140 0.22150 -0.07300
C 	C 	0.32360 0.41400 0.08820 0.35200
C 	C 	0.64640 0.47480 0.20310 -0.02700
H 	H 	0.61100 0.49640 0.22630 0.06500
C 	C 	0.96090 0.16480 0.36500 -0.03400
H 	H 	0.94110 0.20510 0.35390 0.05200
C 	C 	0.91620 0.11070 0.37140 -0.05600
C 	C 	0.94570 0.04970 0.38260 -0.05300
C 	C 	0.14230 0.09040 0.40410 0.01100
C 	C 	0.25730 0.99620 0.52360 0.33700
C 	C 	0.80910 0.37880 0.09600 0.38300
C 	C 	0.40330 0.42360 0.10410 -0.04700
C 	C 	0.61330 0.21490 0.06460 -0.07200
C 	C 	0.73850 0.52300 0.27860 0.34000
C 	C 	0.63760 0.19260 0.24310 0.31500
C 	C 	0.63500 0.18120 0.00430 0.32900
C 	C 	0.32160 0.14730 0.34040 0.36700
C 	C 	0.83680 0.12280 0.36470 0.33500
Cd	Cd	0.32775 0.62804 0.61346 1.24100
Cd	Cd	0.18851 0.33671 0.63537 1.22600
Cd	Cd	0.25538 0.46338 0.53830 1.22300
Cd	Cd	0.69579 0.41407 0.88144 1.18400
O 	O 	0.17677 0.45654 0.62710 -0.44700
O 	O 	0.07660 0.40104 0.62930 -0.34100
O 	O 	0.66496 0.00892 0.88532 -0.46900
O 	O 	0.56620 0.06573 0.88400 -0.36800
O 	O 	0.32940 0.60673 0.73650 -0.30500
O 	O 	0.35500 0.70130 0.69307 -0.39000
O 	O 	0.20915 0.62300 0.62660 -0.40200
O 	O 	0.20070 0.56165 0.53871 -0.44400
O 	O 	0.30510 0.59790 0.97220 -0.45200
O 	O 	0.34530 0.68140 0.03270 -0.43000
O 	O 	0.17900 0.00610 0.03920 -0.40500
O 	O 	0.28950 0.03660 0.04910 -0.36400
O 	O 	0.70530 0.65710 0.55240 -0.30100
O 	O 	0.62620 0.60550 0.61330 -0.45100
H 	H 	0.59700 0.62610 0.58930 0.26200
O 	O 	0.80690 0.44140 0.80400 -0.33200
O 	O 	0.82570 0.85760 0.74430 -0.31900
O 	O 	0.19790 0.81640 0.79530 -0.27300
O 	O 	0.11350 0.86110 0.85710 -0.45500
H 	H 	0.08600 0.83960 0.83230 0.26900
O 	O 	0.69050 0.86680 0.81280 -0.33900
O 	O 	0.85960 0.78691 0.45328 -0.40300
O 	O 	0.85270 0.87880 0.50400 -0.36900
O 	O 	0.88040 0.77750 0.79260 -0.38000
O 	O 	0.70000 0.87240 0.91570 -0.50400
O 	O 	0.70000 0.48150 0.79970 -0.43400
C 	C 	0.05420 0.63170 0.60320 -0.03100
H 	H 	0.07480 0.67170 0.59240 0.05600
C 	C 	0.06700 0.51610 0.61890 -0.04000
C 	C 	0.99330 0.51370 0.63390 -0.05100
H 	H 	0.97270 0.47360 0.64410 0.08100
C 	C 	0.95020 0.57000 0.63380 0.00900
C 	C 	0.98120 0.62960 0.61790 -0.00900
C 	C 	0.10790 0.45350 0.62450 0.31300
C 	C 	0.94130 0.69300 0.61890 0.01700
C 	C 	0.92090 0.71900 0.67760 -0.04100
H 	H 	0.93160 0.69690 0.71540 0.06900
C 	C 	0.88360 0.77980 0.67960 -0.05700
C 	C 	0.86770 0.81240 0.62310 0.01000
H 	H 	0.84420 0.85260 0.62430 0.05800
C 	C 	0.92360 0.72590 0.56210 -0.03400
H 	H 	0.93650 0.70820 0.52270 0.04300
C 	C 	0.59730 0.01230 0.88570 0.32400
C 	C 	0.35010 0.66550 0.74140 0.31500
C 	C 	0.36680 0.69330 0.80430 -0.07100
C 	C 	0.34310 0.66230 0.86070 0.02200
H 	H 	0.31640 0.62390 0.85780 0.05300
C 	C 	0.40780 0.75030 0.81000 -0.02800
H 	H 	0.42570 0.77040 0.77320 0.04800
C 	C 	0.42220 0.77780 0.87030 0.00500
C 	C 	0.39750 0.74650 0.92460 -0.01900
H 	H 	0.40690 0.76480 0.96460 0.05600
C 	C 	0.46570 0.83990 0.87500 -0.00400
C 	C 	0.43550 0.90090 0.89100 0.00400
C 	C 	0.47940 0.95450 0.89240 -0.04700
H 	H 	0.45910 0.99540 0.90030 0.07600
C 	C 	0.35900 0.68860 0.92100 -0.08800
C 	C 	0.33460 0.65270 0.97990 0.38100
C 	C 	0.30470 0.87930 0.86750 -0.02800
H 	H 	0.31820 0.85240 0.83350 0.05200
C 	C 	0.23240 0.88820 0.88060 -0.07600
C 	C 	0.21210 0.92750 0.93240 0.01600
H 	H 	0.16380 0.93220 0.94230 0.06200
C 	C 	0.26340 0.95960 0.96930 -0.06900
C 	C 	0.33570 0.94930 0.95540 -0.03000
H 	H 	0.37030 0.96930 0.98090 0.06400
C 	C 	0.87270 0.56280 0.65160 0.00800
C 	C 	0.81970 0.59370 0.61540 -0.01900
H 	H 	0.83180 0.61820 0.57940 0.04300
C 	C 	0.74730 0.58720 0.63440 -0.08600
C 	C 	0.72950 0.54940 0.68650 0.02500
H 	H 	0.68160 0.54460 0.69820 0.06000
C 	C 	0.78220 0.51860 0.72150 -0.07300
C 	C 	0.17640 0.58600 0.58820 0.35200
C 	C 	0.85360 0.52520 0.70310 -0.02700
H 	H 	0.88900 0.50360 0.72630 0.06500
C 	C 	0.53910 0.83520 0.86500 -0.03400
H 	H 	0.55890 0.79490 0.85390 0.05200
C 	C 	0.58380 0.88930 0.87140 -0.05500
C 	C 	0.55430 0.95030 0.88260 -0.05300
C 	C 	0.35770 0.90960 0.90410 0.01100
C 	C 	0.24270 0.00380 0.02360 0.33600
C 	C 	0.69090 0.62120 0.59600 0.38300
C 	C 	0.09670 0.57640 0.60410 -0.04700
C 	C 	0.88670 0.78510 0.56460 -0.07200
C 	C 	0.76150 0.47700 0.77860 0.34000
C 	C 	0.86240 0.80740 0.74310 0.31500
C 	C 	0.86500 0.81880 0.50430 0.33000
C 	C 	0.17840 0.85270 0.84040 0.36700
C 	C 	0.66320 0.87720 0.86470 0.33500
