data_crystal

_cell_length_a 9.59900
_cell_length_b 11.02500
_cell_length_c 12.57100
_cell_angle_alpha 86.32800
_cell_angle_beta  81.70500
_cell_angle_gamma 79.83400

_symmetry_space_group_name_	'P 1'
_symmetry_space_group_name_H-M	'P 1'

loop_
_symmetry_equiv_pos_as_xyz
  x,y,z

loop_
_atom_site_label
_atom_site_type_symbol
_atom_site_fract_x
_atom_site_fract_y
_atom_site_fract_z
_atom_site_charge
Cd	Cd	0.82571 0.48714 0.97605 1.18300
Cd	Cd	0.67544 0.64951 0.71479 1.18900
Cd	Cd	0.17429 0.51286 0.02395 1.18300
Cd	Cd	0.32456 0.35049 0.28521 1.18900
H 	H 	0.93820 0.26000 0.14880 -0.02400
H 	H 	0.91410 0.06030 0.20410 0.08600
H 	H 	0.81570 0.94580 0.10040 0.01400
H 	H 	0.72340 0.03670 0.94910 0.09400
H 	H 	0.37650 0.41910 0.68640 0.08800
H 	H 	0.26890 0.41710 0.53490 -0.00200
H 	H 	0.62520 0.26830 0.37440 -0.00700
H 	H 	0.73840 0.25120 0.52560 0.08100
H 	H 	0.86860 0.06520 0.69660 0.11100
H 	H 	0.85210 0.86760 0.65100 -0.02800
H 	H 	0.45560 0.90920 0.77330 -0.02400
H 	H 	0.45290 0.11140 0.81640 0.12800
H 	H 	0.06180 0.74000 0.85120 -0.02400
H 	H 	0.08590 0.93970 0.79590 0.08600
H 	H 	0.18430 0.05420 0.89960 0.01400
H 	H 	0.27660 0.96330 0.05090 0.09400
H 	H 	0.62350 0.58090 0.31360 0.08800
H 	H 	0.73110 0.58290 0.46510 -0.00200
H 	H 	0.37480 0.73170 0.62560 -0.00700
H 	H 	0.26160 0.74880 0.47440 0.08100
H 	H 	0.13140 0.93480 0.30340 0.11100
H 	H 	0.14790 0.13240 0.34900 -0.02800
H 	H 	0.54440 0.09080 0.22670 -0.02400
H 	H 	0.54710 0.88860 0.18360 0.12800
C 	C 	0.89470 0.21470 0.10730 0.09600
C 	C 	0.88160 0.09420 0.14070 -0.15300
C 	C 	0.82160 0.02770 0.08080 0.08100
C 	C 	0.76870 0.08110 0.99000 -0.14000
C 	C 	0.78320 0.19930 0.96040 0.06200
C 	C 	0.73430 0.27130 0.86420 0.08700
C 	C 	0.64050 0.33410 0.71990 0.10200
C 	C 	0.56890 0.33480 0.62260 0.04100
C 	C 	0.42910 0.38500 0.62410 -0.13300
C 	C 	0.36560 0.38500 0.53220 0.08100
C 	C 	0.57310 0.29610 0.43910 0.07900
C 	C 	0.64300 0.28790 0.52900 -0.13000
C 	C 	0.66230 0.10800 0.75910 0.19400
C 	C 	0.78260 0.03580 0.71170 -0.22500
C 	C 	0.77240 0.91670 0.68660 0.11700
C 	C 	0.53950 0.94180 0.75740 0.13900
C 	C 	0.53570 0.06340 0.78390 -0.22800
C 	C 	0.10530 0.78530 0.89270 0.09600
C 	C 	0.11840 0.90580 0.85930 -0.15300
C 	C 	0.17840 0.97230 0.91920 0.08100
C 	C 	0.23130 0.91890 0.01000 -0.14000
C 	C 	0.21680 0.80070 0.03960 0.06200
C 	C 	0.26570 0.72870 0.13580 0.08700
C 	C 	0.35950 0.66590 0.28010 0.10200
C 	C 	0.43110 0.66520 0.37740 0.04100
C 	C 	0.57090 0.61500 0.37590 -0.13300
C 	C 	0.63440 0.61500 0.46780 0.08100
C 	C 	0.42690 0.70390 0.56090 0.07900
C 	C 	0.35700 0.71210 0.47100 -0.13000
C 	C 	0.33770 0.89200 0.24090 0.19400
C 	C 	0.21740 0.96420 0.28830 -0.22500
C 	C 	0.22760 0.08330 0.31340 0.11700
C 	C 	0.46050 0.05820 0.24260 0.13900
C 	C 	0.46430 0.93660 0.21610 -0.22800
N 	N 	0.84760 0.26760 0.01840 -0.22300
N 	N 	0.73580 0.38740 0.84990 -0.21500
N 	N 	0.67800 0.42850 0.75720 -0.19500
N 	N 	0.67200 0.23210 0.78420 -0.16000
N 	N 	0.43620 0.34150 0.44100 -0.24200
N 	N 	0.65250 0.87120 0.71200 -0.25100
N 	N 	0.05920 0.43960 0.90030 -0.30900
N 	N 	0.10220 0.35800 0.84560 -0.04300
N 	N 	0.14280 0.27340 0.79140 -0.08500
N 	N 	0.75880 0.66310 0.88120 -0.30400
N 	N 	0.69210 0.74480 0.93570 -0.06600
N 	N 	0.62820 0.82220 0.98570 -0.08500
N 	N 	0.88820 0.61990 0.61350 -0.20600
N 	N 	0.99490 0.61150 0.63990 -0.04300
N 	N 	0.10750 0.60800 0.66390 -0.08800
N 	N 	0.55030 0.33290 0.19000 -0.19200
N 	N 	0.58750 0.41800 0.14390 -0.05700
N 	N 	0.62400 0.50640 0.09900 -0.19500
N 	N 	0.15240 0.73240 0.98160 -0.22300
N 	N 	0.26420 0.61260 0.15010 -0.21500
N 	N 	0.32200 0.57150 0.24280 -0.19500
N 	N 	0.32800 0.76790 0.21580 -0.16000
N 	N 	0.56380 0.65850 0.55900 -0.24200
N 	N 	0.34750 0.12880 0.28800 -0.25100
N 	N 	0.94080 0.56040 0.09970 -0.30900
N 	N 	0.89780 0.64200 0.15440 -0.04300
N 	N 	0.85720 0.72660 0.20860 -0.08500
N 	N 	0.24120 0.33690 0.11880 -0.30400
N 	N 	0.30790 0.25520 0.06430 -0.06600
N 	N 	0.37180 0.17780 0.01430 -0.08500
N 	N 	0.11180 0.38010 0.38650 -0.20600
N 	N 	0.00510 0.38850 0.36010 -0.04300
N 	N 	0.89250 0.39200 0.33610 -0.08800
N 	N 	0.44970 0.66710 0.81000 -0.19200
N 	N 	0.41250 0.58200 0.85610 -0.05700
N 	N 	0.37600 0.49360 0.90100 -0.19500
