data_crystal

_cell_length_a 11.10030
_cell_length_b 12.30010
_cell_length_c 43.00300
_cell_angle_alpha 90.00000
_cell_angle_beta  90.00000
_cell_angle_gamma 90.00000

_symmetry_space_group_name_	'P 1'
_symmetry_space_group_name_H-M	'P 1'

loop_
_symmetry_equiv_pos_as_xyz
  x,y,z

loop_
_atom_site_label
_atom_site_type_symbol
_atom_site_fract_x
_atom_site_fract_y
_atom_site_fract_z
_atom_site_charge
Ag	Ag	0.49660 0.88468 0.98190 0.54400
Ag	Ag	0.65708 0.59666 0.86794 0.49700
Ag	Ag	0.68302 0.86923 0.25420 0.54100
Ag	Ag	0.50340 0.61532 0.48190 0.54400
Ag	Ag	0.34292 0.90334 0.36794 0.49700
Ag	Ag	0.31698 0.63077 0.75420 0.54200
Ag	Ag	0.99660 0.11532 0.51810 0.54400
Ag	Ag	0.15708 0.40334 0.63206 0.49800
Ag	Ag	0.18302 0.13077 0.24580 0.54000
Ag	Ag	0.00340 0.38468 0.01810 0.54300
Ag	Ag	0.84292 0.09666 0.13206 0.49700
Ag	Ag	0.81698 0.36923 0.74580 0.54000
Ag	Ag	0.50340 0.11532 0.01810 0.54300
Ag	Ag	0.34292 0.40334 0.13206 0.49600
Ag	Ag	0.31698 0.13077 0.74580 0.54000
Ag	Ag	0.49660 0.38468 0.51810 0.54300
Ag	Ag	0.65708 0.09666 0.63206 0.49600
Ag	Ag	0.68302 0.36923 0.24580 0.54100
Ag	Ag	0.00340 0.88468 0.48190 0.54300
Ag	Ag	0.84292 0.59666 0.36794 0.49700
Ag	Ag	0.81698 0.86923 0.75420 0.54000
Ag	Ag	0.99660 0.61532 0.98190 0.54300
Ag	Ag	0.15708 0.90334 0.86794 0.49700
Ag	Ag	0.18302 0.63077 0.25420 0.54000
H 	H 	0.43130 0.96050 0.10640 0.03700
H 	H 	0.47350 0.90630 0.15640 0.04800
H 	H 	0.66810 0.65810 0.12360 0.04000
H 	H 	0.62460 0.71330 0.07330 0.05100
H 	H 	0.64050 0.77060 0.92110 0.00300
H 	H 	0.51760 0.70790 0.92250 -0.00100
H 	H 	0.72600 0.72530 0.99760 0.03200
H 	H 	0.76620 0.78230 0.96660 0.01800
H 	H 	0.53990 0.62740 0.00010 0.04300
H 	H 	0.45630 0.61960 0.97070 0.02800
H 	H 	0.82880 0.54440 0.92530 0.01200
H 	H 	0.82900 0.67150 0.92240 -0.00000
H 	H 	0.76510 0.45770 0.97350 0.03100
H 	H 	0.72490 0.52980 0.00180 0.03000
H 	H 	0.51850 0.50760 0.92700 0.01900
H 	H 	0.64200 0.44590 0.92850 0.02600
H 	H 	0.79500 0.50320 0.80900 0.02700
H 	H 	0.67050 0.44260 0.80830 0.04500
H 	H 	0.68050 0.76800 0.81410 -0.00500
H 	H 	0.80060 0.70120 0.81200 -0.00400
H 	H 	0.48370 0.54540 0.81090 0.02600
H 	H 	0.48640 0.67270 0.81350 -0.00100
H 	H 	0.77360 0.62060 0.73530 0.03600
H 	H 	0.85650 0.61240 0.76480 0.01600
H 	H 	0.58020 0.52600 0.73440 0.02900
H 	H 	0.54040 0.45670 0.76330 0.03300
H 	H 	0.54860 0.78140 0.76910 0.01700
H 	H 	0.58500 0.72380 0.73790 0.04900
H 	H 	0.56870 0.53950 0.60640 0.03700
H 	H 	0.52650 0.59370 0.65640 0.04800
H 	H 	0.33190 0.84190 0.62360 0.04000
H 	H 	0.37540 0.78670 0.57330 0.05100
H 	H 	0.35950 0.72940 0.42110 0.00300
H 	H 	0.48240 0.79210 0.42250 -0.00100
H 	H 	0.27400 0.77470 0.49760 0.03300
H 	H 	0.23380 0.71770 0.46660 0.01800
H 	H 	0.46010 0.87260 0.50010 0.04300
H 	H 	0.54370 0.88040 0.47070 0.02800
H 	H 	0.17120 0.95560 0.42530 0.01200
H 	H 	0.17100 0.82850 0.42240 0.00000
H 	H 	0.23490 0.04230 0.47350 0.03000
H 	H 	0.27510 0.97020 0.50180 0.03000
H 	H 	0.48150 0.99240 0.42700 0.01800
H 	H 	0.35800 0.05410 0.42850 0.02500
H 	H 	0.20500 0.99680 0.30900 0.02700
H 	H 	0.32950 0.05740 0.30830 0.04500
H 	H 	0.31950 0.73200 0.31410 -0.00500
H 	H 	0.19940 0.79880 0.31200 -0.00400
H 	H 	0.51630 0.95460 0.31090 0.02600
H 	H 	0.51360 0.82730 0.31350 -0.00100
H 	H 	0.22640 0.87940 0.23530 0.03600
H 	H 	0.14350 0.88760 0.26480 0.01600
H 	H 	0.41980 0.97400 0.23440 0.02900
H 	H 	0.45960 0.04330 0.26330 0.03300
H 	H 	0.45140 0.71860 0.26910 0.01700
H 	H 	0.41500 0.77620 0.23790 0.04900
H 	H 	0.93130 0.03950 0.39360 0.03300
H 	H 	0.97350 0.09370 0.34360 0.05400
H 	H 	0.16810 0.34190 0.37640 0.04200
H 	H 	0.12460 0.28670 0.42670 0.04900
H 	H 	0.14050 0.22940 0.57890 0.00300
H 	H 	0.01760 0.29210 0.57750 -0.00100
H 	H 	0.22600 0.27470 0.50240 0.03300
H 	H 	0.26620 0.21770 0.53340 0.01800
H 	H 	0.03990 0.37260 0.49990 0.04300
H 	H 	0.95630 0.38040 0.52930 0.02800
H 	H 	0.32880 0.45560 0.57470 0.01200
H 	H 	0.32900 0.32850 0.57760 0.00000
H 	H 	0.26510 0.54230 0.52650 0.03100
H 	H 	0.22490 0.47020 0.49820 0.03000
H 	H 	0.01850 0.49240 0.57300 0.01900
H 	H 	0.14200 0.55410 0.57150 0.02600
H 	H 	0.29500 0.49680 0.69100 0.02800
H 	H 	0.17050 0.55740 0.69170 0.04600
H 	H 	0.18050 0.23200 0.68590 -0.00500
H 	H 	0.30060 0.29880 0.68800 -0.00400
H 	H 	0.98370 0.45460 0.68910 0.02400
H 	H 	0.98640 0.32730 0.68650 -0.00200
H 	H 	0.27360 0.37940 0.76470 0.03600
H 	H 	0.35650 0.38760 0.73520 0.01600
H 	H 	0.08020 0.47400 0.76560 0.02900
H 	H 	0.04040 0.54330 0.73670 0.03400
H 	H 	0.04860 0.21860 0.73090 0.01700
H 	H 	0.08500 0.27620 0.76210 0.04900
H 	H 	0.06870 0.46050 0.89360 0.03600
H 	H 	0.02650 0.40630 0.84360 0.05000
H 	H 	0.83190 0.15810 0.87640 0.04100
H 	H 	0.87540 0.21330 0.92670 0.05000
H 	H 	0.85950 0.27060 0.07890 0.00300
H 	H 	0.98240 0.20790 0.07750 -0.00000
H 	H 	0.77400 0.22530 0.00240 0.03300
H 	H 	0.73380 0.28230 0.03340 0.01800
H 	H 	0.96010 0.12740 0.99990 0.04200
H 	H 	0.04370 0.11960 0.02930 0.02600
H 	H 	0.67120 0.04440 0.07470 0.01200
H 	H 	0.67100 0.17150 0.07760 0.00000
H 	H 	0.73490 0.95770 0.02650 0.03000
H 	H 	0.77510 0.02980 0.99820 0.03000
H 	H 	0.98150 0.00760 0.07300 0.01900
H 	H 	0.85800 0.94590 0.07150 0.02500
H 	H 	0.70500 0.00320 0.19100 0.02700
H 	H 	0.82950 0.94260 0.19170 0.04500
H 	H 	0.81950 0.26800 0.18590 -0.00500
H 	H 	0.69940 0.20120 0.18800 -0.00400
H 	H 	0.01630 0.04540 0.18910 0.02200
H 	H 	0.01360 0.17270 0.18650 -0.00500
H 	H 	0.72640 0.12060 0.26470 0.03600
H 	H 	0.64350 0.11240 0.23520 0.01600
H 	H 	0.91980 0.02600 0.26560 0.02900
H 	H 	0.95960 0.95670 0.23670 0.03200
H 	H 	0.95140 0.28140 0.23090 0.01700
H 	H 	0.91500 0.22380 0.26210 0.04900
H 	H 	0.56870 0.03950 0.89360 0.03700
H 	H 	0.52650 0.09370 0.84360 0.04800
H 	H 	0.33190 0.34190 0.87640 0.04000
H 	H 	0.37540 0.28670 0.92670 0.05100
H 	H 	0.35950 0.22940 0.07890 0.00300
H 	H 	0.48240 0.29210 0.07750 -0.00100
H 	H 	0.27400 0.27470 0.00240 0.03200
H 	H 	0.23380 0.21770 0.03340 0.01800
H 	H 	0.46010 0.37260 0.99990 0.04300
H 	H 	0.54370 0.38040 0.02930 0.02800
H 	H 	0.17120 0.45560 0.07470 0.01200
H 	H 	0.17100 0.32850 0.07760 -0.00000
H 	H 	0.23490 0.54230 0.02650 0.03100
H 	H 	0.27510 0.47020 0.99820 0.03000
H 	H 	0.48150 0.49240 0.07300 0.01900
H 	H 	0.35800 0.55410 0.07150 0.02600
H 	H 	0.20500 0.49680 0.19100 0.02700
H 	H 	0.32950 0.55740 0.19170 0.04500
H 	H 	0.31950 0.23200 0.18590 -0.00500
H 	H 	0.19940 0.29880 0.18800 -0.00400
H 	H 	0.51630 0.45460 0.18910 0.02600
H 	H 	0.51360 0.32730 0.18650 -0.00100
H 	H 	0.22640 0.37940 0.26470 0.03600
H 	H 	0.14350 0.38760 0.23520 0.01600
H 	H 	0.41980 0.47400 0.26560 0.02900
H 	H 	0.45960 0.54330 0.23670 0.03300
H 	H 	0.45140 0.21860 0.23090 0.01700
H 	H 	0.41500 0.27620 0.26210 0.04900
H 	H 	0.43130 0.46050 0.39360 0.03700
H 	H 	0.47350 0.40630 0.34360 0.04800
H 	H 	0.66810 0.15810 0.37640 0.04000
H 	H 	0.62460 0.21330 0.42670 0.05100
H 	H 	0.64050 0.27060 0.57890 0.00300
H 	H 	0.51760 0.20790 0.57750 -0.00100
H 	H 	0.72600 0.22530 0.50240 0.03300
H 	H 	0.76620 0.28230 0.53340 0.01800
H 	H 	0.53990 0.12740 0.49990 0.04300
H 	H 	0.45630 0.11960 0.52930 0.02800
H 	H 	0.82880 0.04440 0.57470 0.01200
H 	H 	0.82900 0.17150 0.57760 0.00000
H 	H 	0.76510 0.95770 0.52650 0.03000
H 	H 	0.72490 0.02980 0.49820 0.03000
H 	H 	0.51850 0.00760 0.57300 0.01800
H 	H 	0.64200 0.94590 0.57150 0.02500
H 	H 	0.79500 0.00320 0.69100 0.02700
H 	H 	0.67050 0.94260 0.69170 0.04500
H 	H 	0.68050 0.26800 0.68590 -0.00500
H 	H 	0.80060 0.20120 0.68800 -0.00400
H 	H 	0.48370 0.04540 0.68910 0.02600
H 	H 	0.48640 0.17270 0.68650 -0.00100
H 	H 	0.77360 0.12060 0.76470 0.03600
H 	H 	0.85650 0.11240 0.73520 0.01600
H 	H 	0.58020 0.02600 0.76560 0.02900
H 	H 	0.54040 0.95670 0.73670 0.03300
H 	H 	0.54860 0.28140 0.73090 0.01700
H 	H 	0.58500 0.22380 0.76210 0.04900
H 	H 	0.06870 0.96050 0.60640 0.03300
H 	H 	0.02650 0.90630 0.65640 0.05400
H 	H 	0.83190 0.65810 0.62360 0.04200
H 	H 	0.87540 0.71330 0.57330 0.04900
H 	H 	0.85950 0.77060 0.42110 0.00300
H 	H 	0.98240 0.70790 0.42250 -0.00100
H 	H 	0.77400 0.72530 0.49760 0.03300
H 	H 	0.73380 0.78230 0.46660 0.01800
H 	H 	0.96010 0.62740 0.50010 0.04300
H 	H 	0.04370 0.61960 0.47070 0.02800
H 	H 	0.67120 0.54440 0.42530 0.01200
H 	H 	0.67100 0.67150 0.42240 0.00000
H 	H 	0.73490 0.45770 0.47350 0.03100
H 	H 	0.77510 0.52980 0.50180 0.03000
H 	H 	0.98150 0.50760 0.42700 0.01900
H 	H 	0.85800 0.44590 0.42850 0.02600
H 	H 	0.70500 0.50320 0.30900 0.02800
H 	H 	0.82950 0.44260 0.30830 0.04600
H 	H 	0.81950 0.76800 0.31410 -0.00500
H 	H 	0.69940 0.70120 0.31200 -0.00400
H 	H 	0.01630 0.54540 0.31090 0.02400
H 	H 	0.01360 0.67270 0.31350 -0.00200
H 	H 	0.72640 0.62060 0.23530 0.03600
H 	H 	0.64350 0.61240 0.26480 0.01600
H 	H 	0.91980 0.52600 0.23440 0.02900
H 	H 	0.95960 0.45670 0.26330 0.03400
H 	H 	0.95140 0.78140 0.26910 0.01700
H 	H 	0.91500 0.72380 0.23790 0.04900
H 	H 	0.93130 0.53950 0.10640 0.03600
H 	H 	0.97350 0.59370 0.15640 0.05000
H 	H 	0.16810 0.84190 0.12360 0.04100
H 	H 	0.12460 0.78670 0.07330 0.05000
H 	H 	0.14050 0.72940 0.92110 0.00300
H 	H 	0.01760 0.79210 0.92250 -0.00000
H 	H 	0.22600 0.77470 0.99760 0.03300
H 	H 	0.26620 0.71770 0.96660 0.01800
H 	H 	0.03990 0.87260 0.00010 0.04200
H 	H 	0.95630 0.88040 0.97070 0.02600
H 	H 	0.32880 0.95560 0.92530 0.01200
H 	H 	0.32900 0.82850 0.92240 0.00000
H 	H 	0.26510 0.04230 0.97350 0.03000
H 	H 	0.22490 0.97020 0.00180 0.03000
H 	H 	0.01850 0.99240 0.92700 0.01900
H 	H 	0.14200 0.05410 0.92850 0.02500
H 	H 	0.29500 0.99680 0.80900 0.02700
H 	H 	0.17050 0.05740 0.80830 0.04500
H 	H 	0.18050 0.73200 0.81410 -0.00500
H 	H 	0.30060 0.79880 0.81200 -0.00400
H 	H 	0.98370 0.95460 0.81090 0.02200
H 	H 	0.98640 0.82730 0.81350 -0.00500
H 	H 	0.27360 0.87940 0.73530 0.03600
H 	H 	0.35650 0.88760 0.76480 0.01600
H 	H 	0.08020 0.97400 0.73440 0.02900
H 	H 	0.04040 0.04330 0.76330 0.03200
H 	H 	0.04860 0.71860 0.76910 0.01700
H 	H 	0.08500 0.77620 0.73790 0.04900
C 	C 	0.50280 0.88250 0.05164 0.30400
C 	C 	0.52490 0.84500 0.08447 -0.06700
C 	C 	0.48010 0.90010 0.10965 -0.03000
C 	C 	0.50530 0.86820 0.13958 -0.03000
C 	C 	0.57800 0.77970 0.14447 -0.06600
C 	C 	0.62160 0.71980 0.12004 -0.02500
C 	C 	0.59510 0.75300 0.09003 -0.03400
C 	C 	0.60000 0.70810 0.93002 0.00300
C 	C 	0.72530 0.71920 0.97507 -0.00800
C 	C 	0.53950 0.62170 0.97756 -0.00900
C 	C 	0.78720 0.61010 0.93155 -0.00000
C 	C 	0.72440 0.52450 0.97930 -0.01400
C 	C 	0.60080 0.51220 0.93448 -0.00300
C 	C 	0.71230 0.50800 0.80179 -0.02400
C 	C 	0.71760 0.70410 0.80498 0.00600
C 	C 	0.52660 0.61030 0.80437 -0.00900
C 	C 	0.77340 0.61560 0.75783 -0.01300
C 	C 	0.58290 0.52200 0.75690 -0.01600
C 	C 	0.58760 0.71770 0.76041 -0.02000
C 	C 	0.49720 0.61750 0.55164 0.30400
C 	C 	0.47510 0.65500 0.58447 -0.06700
C 	C 	0.51990 0.59990 0.60965 -0.03000
C 	C 	0.49470 0.63180 0.63958 -0.03000
C 	C 	0.42200 0.72030 0.64447 -0.06600
C 	C 	0.37840 0.78020 0.62004 -0.02500
C 	C 	0.40490 0.74700 0.59003 -0.03400
C 	C 	0.40000 0.79190 0.43002 0.00300
C 	C 	0.27470 0.78080 0.47507 -0.00800
C 	C 	0.46050 0.87830 0.47756 -0.00900
C 	C 	0.21280 0.88990 0.43155 -0.00100
C 	C 	0.27560 0.97550 0.47930 -0.01300
C 	C 	0.39920 0.98780 0.43448 -0.00200
C 	C 	0.28770 0.99200 0.30179 -0.02300
C 	C 	0.28240 0.79590 0.30498 0.00600
C 	C 	0.47340 0.88970 0.30437 -0.00900
C 	C 	0.22660 0.88440 0.25783 -0.01300
C 	C 	0.41710 0.97800 0.25690 -0.01500
C 	C 	0.41240 0.78230 0.26041 -0.02000
C 	C 	0.00280 0.11750 0.44836 0.30500
C 	C 	0.02490 0.15500 0.41553 -0.07500
C 	C 	0.98010 0.09990 0.39035 -0.01700
C 	C 	0.00530 0.13180 0.36042 -0.04400
C 	C 	0.07800 0.22030 0.35553 -0.06000
C 	C 	0.12160 0.28020 0.37996 -0.03200
C 	C 	0.09510 0.24700 0.40997 -0.02700
C 	C 	0.10000 0.29190 0.56998 0.00300
C 	C 	0.22530 0.28080 0.52493 -0.00800
C 	C 	0.03950 0.37830 0.52244 -0.00900
C 	C 	0.28720 0.38990 0.56845 -0.00100
C 	C 	0.22440 0.47550 0.52070 -0.01400
C 	C 	0.10080 0.48780 0.56552 -0.00300
C 	C 	0.21230 0.49200 0.69821 -0.02400
C 	C 	0.21760 0.29590 0.69502 0.00600
C 	C 	0.02660 0.38970 0.69563 -0.00500
C 	C 	0.27340 0.38440 0.74217 -0.01300
C 	C 	0.08290 0.47800 0.74310 -0.01600
C 	C 	0.08760 0.28230 0.73959 -0.02000
C 	C 	0.99720 0.38250 0.94836 0.30400
C 	C 	0.97510 0.34500 0.91553 -0.07000
C 	C 	0.01990 0.40010 0.89035 -0.02600
C 	C 	0.99470 0.36820 0.86042 -0.03500
C 	C 	0.92200 0.27970 0.85553 -0.06400
C 	C 	0.87840 0.21980 0.87996 -0.02800
C 	C 	0.90490 0.25300 0.90997 -0.03200
C 	C 	0.90000 0.20810 0.06998 0.00300
C 	C 	0.77470 0.21920 0.02493 -0.00800
C 	C 	0.96050 0.12170 0.02244 -0.00600
C 	C 	0.71280 0.11010 0.06845 -0.00000
C 	C 	0.77560 0.02450 0.02070 -0.01300
C 	C 	0.89920 0.01220 0.06552 -0.00100
C 	C 	0.78770 0.00800 0.19821 -0.02300
C 	C 	0.78240 0.20410 0.19502 0.00600
C 	C 	0.97340 0.11030 0.19563 0.00000
C 	C 	0.72660 0.11560 0.24217 -0.01300
C 	C 	0.91710 0.02200 0.24310 -0.01400
C 	C 	0.91240 0.21770 0.23959 -0.02000
C 	C 	0.49720 0.11750 0.94836 0.30400
C 	C 	0.47510 0.15500 0.91553 -0.06700
C 	C 	0.51990 0.09990 0.89035 -0.03000
C 	C 	0.49470 0.13180 0.86042 -0.03000
C 	C 	0.42200 0.22030 0.85553 -0.06600
C 	C 	0.37840 0.28020 0.87996 -0.02500
C 	C 	0.40490 0.24700 0.90997 -0.03400
C 	C 	0.40000 0.29190 0.06998 0.00300
C 	C 	0.27470 0.28080 0.02493 -0.00800
C 	C 	0.46050 0.37830 0.02244 -0.00900
C 	C 	0.21280 0.38990 0.06845 -0.00000
C 	C 	0.27560 0.47550 0.02070 -0.01400
C 	C 	0.39920 0.48780 0.06552 -0.00300
C 	C 	0.28770 0.49200 0.19821 -0.02400
C 	C 	0.28240 0.29590 0.19502 0.00600
C 	C 	0.47340 0.38970 0.19563 -0.00900
C 	C 	0.22660 0.38440 0.24217 -0.01300
C 	C 	0.41710 0.47800 0.24310 -0.01600
C 	C 	0.41240 0.28230 0.23959 -0.02000
C 	C 	0.50280 0.38250 0.44836 0.30400
C 	C 	0.52490 0.34500 0.41553 -0.06700
C 	C 	0.48010 0.40010 0.39035 -0.03000
C 	C 	0.50530 0.36820 0.36042 -0.03000
C 	C 	0.57800 0.27970 0.35553 -0.06600
C 	C 	0.62160 0.21980 0.37996 -0.02500
C 	C 	0.59510 0.25300 0.40997 -0.03400
C 	C 	0.60000 0.20810 0.56998 0.00300
C 	C 	0.72530 0.21920 0.52493 -0.00800
C 	C 	0.53950 0.12170 0.52244 -0.00900
C 	C 	0.78720 0.11010 0.56845 -0.00100
C 	C 	0.72440 0.02450 0.52070 -0.01300
C 	C 	0.60080 0.01220 0.56552 -0.00200
C 	C 	0.71230 0.00800 0.69821 -0.02300
C 	C 	0.71760 0.20410 0.69502 0.00600
C 	C 	0.52660 0.11030 0.69563 -0.00900
C 	C 	0.77340 0.11560 0.74217 -0.01300
C 	C 	0.58290 0.02200 0.74310 -0.01500
C 	C 	0.58760 0.21770 0.73959 -0.02000
C 	C 	0.99720 0.88250 0.55164 0.30500
C 	C 	0.97510 0.84500 0.58447 -0.07500
C 	C 	0.01990 0.90010 0.60965 -0.01700
C 	C 	0.99470 0.86820 0.63958 -0.04400
C 	C 	0.92200 0.77970 0.64447 -0.06000
C 	C 	0.87840 0.71980 0.62004 -0.03200
C 	C 	0.90490 0.75300 0.59003 -0.02700
C 	C 	0.90000 0.70810 0.43002 0.00300
C 	C 	0.77470 0.71920 0.47507 -0.00800
C 	C 	0.96050 0.62170 0.47756 -0.00900
C 	C 	0.71280 0.61010 0.43155 -0.00100
C 	C 	0.77560 0.52450 0.47930 -0.01400
C 	C 	0.89920 0.51220 0.43448 -0.00300
C 	C 	0.78770 0.50800 0.30179 -0.02400
C 	C 	0.78240 0.70410 0.30498 0.00600
C 	C 	0.97340 0.61030 0.30437 -0.00500
C 	C 	0.72660 0.61560 0.25783 -0.01300
C 	C 	0.91710 0.52200 0.25690 -0.01600
C 	C 	0.91240 0.71770 0.26041 -0.02000
C 	C 	0.00280 0.61750 0.05164 0.30400
C 	C 	0.02490 0.65500 0.08447 -0.07000
C 	C 	0.98010 0.59990 0.10965 -0.02600
C 	C 	0.00530 0.63180 0.13958 -0.03500
C 	C 	0.07800 0.72030 0.14447 -0.06400
C 	C 	0.12160 0.78020 0.12004 -0.02800
C 	C 	0.09510 0.74700 0.09003 -0.03200
C 	C 	0.10000 0.79190 0.93002 0.00300
C 	C 	0.22530 0.78080 0.97507 -0.00800
C 	C 	0.03950 0.87830 0.97756 -0.00600
C 	C 	0.28720 0.88990 0.93155 -0.00000
C 	C 	0.22440 0.97550 0.97930 -0.01300
C 	C 	0.10080 0.98780 0.93448 -0.00100
C 	C 	0.21230 0.99200 0.80179 -0.02300
C 	C 	0.21760 0.79590 0.80498 0.00600
C 	C 	0.02660 0.88970 0.80437 0.00000
C 	C 	0.27340 0.88440 0.75783 -0.01300
C 	C 	0.08290 0.97800 0.75690 -0.01400
C 	C 	0.08760 0.78230 0.76041 -0.02000
S 	S 	0.61271 0.73850 0.18313 0.47700
S 	S 	0.38729 0.76150 0.68313 0.47700
S 	S 	0.11271 0.26150 0.31687 0.47400
S 	S 	0.88729 0.23850 0.81687 0.47600
S 	S 	0.38729 0.26150 0.81687 0.47700
S 	S 	0.61271 0.23850 0.31687 0.47700
S 	S 	0.88729 0.73850 0.68313 0.47400
S 	S 	0.11271 0.76150 0.18313 0.47600
N 	N 	0.59970 0.71790 0.96403 -0.13700
N 	N 	0.66160 0.60690 0.91958 -0.16500
N 	N 	0.79120 0.61970 0.96578 -0.14500
N 	N 	0.60020 0.52110 0.96825 -0.10000
N 	N 	0.65300 0.60530 0.81598 -0.15800
N 	N 	0.71540 0.71370 0.77093 -0.14600
N 	N 	0.71060 0.51540 0.76734 -0.13800
N 	N 	0.52210 0.61870 0.77029 -0.13600
N 	N 	0.40030 0.78210 0.46403 -0.13700
N 	N 	0.33840 0.89310 0.41958 -0.16500
N 	N 	0.20880 0.88030 0.46578 -0.14500
N 	N 	0.39980 0.97890 0.46825 -0.10000
N 	N 	0.34700 0.89470 0.31598 -0.15800
N 	N 	0.28460 0.78630 0.27093 -0.14600
N 	N 	0.28940 0.98460 0.26734 -0.13800
N 	N 	0.47790 0.88130 0.27029 -0.13600
N 	N 	0.09970 0.28210 0.53597 -0.13700
N 	N 	0.16160 0.39310 0.58042 -0.16500
N 	N 	0.29120 0.38030 0.53422 -0.14500
N 	N 	0.10020 0.47890 0.53175 -0.10000
N 	N 	0.15300 0.39470 0.68402 -0.15800
N 	N 	0.21540 0.28630 0.72907 -0.14600
N 	N 	0.21060 0.48460 0.73266 -0.13800
N 	N 	0.02210 0.38130 0.72971 -0.13600
N 	N 	0.90030 0.21790 0.03597 -0.13700
N 	N 	0.83840 0.10690 0.08042 -0.16500
N 	N 	0.70880 0.11970 0.03422 -0.14500
N 	N 	0.89980 0.02110 0.03175 -0.10000
N 	N 	0.84700 0.10530 0.18402 -0.15800
N 	N 	0.78460 0.21370 0.22907 -0.14600
N 	N 	0.78940 0.01540 0.23266 -0.13900
N 	N 	0.97790 0.11870 0.22971 -0.13600
N 	N 	0.40030 0.28210 0.03597 -0.13700
N 	N 	0.33840 0.39310 0.08042 -0.16500
N 	N 	0.20880 0.38030 0.03422 -0.14500
N 	N 	0.39980 0.47890 0.03175 -0.10000
N 	N 	0.34700 0.39470 0.18402 -0.15800
N 	N 	0.28460 0.28630 0.22907 -0.14600
N 	N 	0.28940 0.48460 0.23266 -0.13800
N 	N 	0.47790 0.38130 0.22971 -0.13600
N 	N 	0.59970 0.21790 0.53597 -0.13700
N 	N 	0.66160 0.10690 0.58042 -0.16500
N 	N 	0.79120 0.11970 0.53422 -0.14500
N 	N 	0.60020 0.02110 0.53175 -0.10000
N 	N 	0.65300 0.10530 0.68402 -0.15800
N 	N 	0.71540 0.21370 0.72907 -0.14600
N 	N 	0.71060 0.01540 0.73266 -0.13800
N 	N 	0.52210 0.11870 0.72971 -0.13600
N 	N 	0.90030 0.71790 0.46403 -0.13700
N 	N 	0.83840 0.60690 0.41958 -0.16500
N 	N 	0.70880 0.61970 0.46578 -0.14500
N 	N 	0.89980 0.52110 0.46825 -0.10000
N 	N 	0.84700 0.60530 0.31598 -0.15800
N 	N 	0.78460 0.71370 0.27093 -0.14600
N 	N 	0.78940 0.51540 0.26734 -0.13800
N 	N 	0.97790 0.61870 0.27029 -0.13600
N 	N 	0.09970 0.78210 0.96403 -0.13700
N 	N 	0.16160 0.89310 0.91958 -0.16500
N 	N 	0.29120 0.88030 0.96578 -0.14500
N 	N 	0.10020 0.97890 0.96825 -0.10000
N 	N 	0.15300 0.89470 0.81598 -0.15800
N 	N 	0.21540 0.78630 0.77093 -0.14600
N 	N 	0.21060 0.98460 0.76734 -0.13900
N 	N 	0.02210 0.88130 0.77029 -0.13600
O 	O 	0.55310 0.83100 0.03014 -0.34000
O 	O 	0.43830 0.96590 0.04821 -0.34900
O 	O 	0.58580 0.83110 0.20282 -0.31900
O 	O 	0.73950 0.70980 0.18310 -0.27400
O 	O 	0.53690 0.64580 0.18969 -0.28200
O 	O 	0.44690 0.66900 0.53014 -0.34000
O 	O 	0.56170 0.53410 0.54821 -0.34900
O 	O 	0.41420 0.66890 0.70282 -0.31900
O 	O 	0.26050 0.79020 0.68310 -0.27400
O 	O 	0.46310 0.85420 0.68969 -0.28200
O 	O 	0.05310 0.16900 0.46986 -0.34000
O 	O 	0.93830 0.03410 0.45179 -0.34800
O 	O 	0.08580 0.16890 0.29718 -0.32000
O 	O 	0.23950 0.29020 0.31690 -0.27400
O 	O 	0.03690 0.35420 0.31031 -0.28200
O 	O 	0.94690 0.33100 0.96986 -0.34000
O 	O 	0.06170 0.46590 0.95179 -0.34900
O 	O 	0.91420 0.33110 0.79718 -0.31900
O 	O 	0.76050 0.20980 0.81690 -0.27400
O 	O 	0.96310 0.14580 0.81031 -0.28100
O 	O 	0.44690 0.16900 0.96986 -0.34000
O 	O 	0.56170 0.03410 0.95179 -0.34900
O 	O 	0.41420 0.16890 0.79718 -0.31900
O 	O 	0.26050 0.29020 0.81690 -0.27400
O 	O 	0.46310 0.35420 0.81031 -0.28200
O 	O 	0.55310 0.33100 0.46986 -0.34000
O 	O 	0.43830 0.46590 0.45179 -0.34900
O 	O 	0.58580 0.33110 0.29718 -0.31900
O 	O 	0.73950 0.20980 0.31690 -0.27400
O 	O 	0.53690 0.14580 0.31031 -0.28200
O 	O 	0.94690 0.83100 0.53014 -0.34000
O 	O 	0.06170 0.96590 0.54821 -0.34800
O 	O 	0.91420 0.83110 0.70282 -0.32000
O 	O 	0.76050 0.70980 0.68310 -0.27400
O 	O 	0.96310 0.64580 0.68969 -0.28200
O 	O 	0.05310 0.66900 0.03014 -0.34000
O 	O 	0.93830 0.53410 0.04821 -0.34900
O 	O 	0.08580 0.66890 0.20282 -0.31900
O 	O 	0.23950 0.79020 0.18310 -0.27400
O 	O 	0.03690 0.85420 0.18969 -0.28100
