data_crystal

_cell_length_a 16.69950
_cell_length_b 16.71060
_cell_length_c 9.79070
_cell_angle_alpha 90.00000
_cell_angle_beta  90.00000
_cell_angle_gamma 90.00000

_symmetry_space_group_name_	'P 1'
_symmetry_space_group_name_H-M	'P 1'

loop_
_symmetry_equiv_pos_as_xyz
  x,y,z

loop_
_atom_site_label
_atom_site_type_symbol
_atom_site_fract_x
_atom_site_fract_y
_atom_site_fract_z
_atom_site_charge
Na	Na	0.86190 0.68650 0.82830 0.58200
O 	O 	0.92580 0.79600 0.70160 -0.27800
Na	Na	0.36190 0.18650 0.32830 0.57600
O 	O 	0.42580 0.29600 0.20160 -0.31600
Na	Na	0.13810 0.81350 0.82830 0.57600
O 	O 	0.07420 0.70400 0.70160 -0.33100
Na	Na	0.63810 0.31350 0.32830 0.57700
O 	O 	0.57420 0.20400 0.20160 -0.31500
Na	Na	0.13810 0.18650 0.17170 0.57600
O 	O 	0.07420 0.29600 0.29840 -0.33100
Na	Na	0.63810 0.68650 0.67170 0.57700
O 	O 	0.57420 0.79600 0.79840 -0.31500
Na	Na	0.86190 0.31350 0.17170 0.58100
O 	O 	0.92580 0.20400 0.29840 -0.27900
Na	Na	0.36190 0.81350 0.67170 0.57600
O 	O 	0.42580 0.70400 0.79840 -0.31600
Na	Na	0.13810 0.31350 0.17170 0.57600
O 	O 	0.07420 0.20400 0.29840 -0.33000
Na	Na	0.63810 0.81350 0.67170 0.57700
O 	O 	0.57420 0.70400 0.79840 -0.31500
Na	Na	0.86190 0.18650 0.17170 0.58000
O 	O 	0.92580 0.29600 0.29840 -0.27900
Na	Na	0.36190 0.68650 0.67170 0.57600
O 	O 	0.42580 0.79600 0.79840 -0.31600
Na	Na	0.86190 0.81350 0.82830 0.58000
O 	O 	0.92580 0.70400 0.70160 -0.27900
Na	Na	0.36190 0.31350 0.32830 0.57600
O 	O 	0.42580 0.20400 0.20160 -0.31600
Na	Na	0.13810 0.68650 0.82830 0.57600
O 	O 	0.07420 0.79600 0.70160 -0.33000
Na	Na	0.63810 0.18650 0.32830 0.57700
O 	O 	0.57420 0.29600 0.20160 -0.31500
Ho	Ho	-0.00000 0.75000 0.11987 1.63300
Na	Na	0.00000 0.75000 0.50710 0.58200
Ho	Ho	0.50000 0.25000 0.61987 1.72400
Na	Na	0.50000 0.25000 0.00710 0.59100
Ho	Ho	0.00000 0.25000 0.88013 1.63300
Na	Na	-0.00000 0.25000 0.49290 0.58200
Ho	Ho	0.50000 0.75000 0.38013 1.72400
Na	Na	0.50000 0.75000 0.99290 0.59100
O 	O 	0.09020 0.75000 0.31000 -0.41200
O 	O 	0.13600 0.75000 0.05130 -0.47800
C 	C 	0.16760 0.75000 0.28780 0.15100
C 	C 	0.19280 0.75000 0.14220 0.15000
C 	C 	0.22530 0.75000 0.39000 -0.24900
H 	H 	0.20910 0.75000 0.48300 0.09300
O 	O 	0.59020 0.25000 0.81000 -0.40700
O 	O 	0.63600 0.25000 0.55130 -0.48600
C 	C 	0.66760 0.25000 0.78780 0.15100
C 	C 	0.69280 0.25000 0.64220 0.15400
C 	C 	0.72530 0.25000 0.89000 -0.24100
H 	H 	0.70910 0.25000 0.98300 0.09500
O 	O 	0.90980 0.75000 0.31000 -0.35900
O 	O 	0.86400 0.75000 0.05130 -0.44700
C 	C 	0.83240 0.75000 0.28780 0.15200
C 	C 	0.80720 0.75000 0.14220 0.15600
C 	C 	0.77470 0.75000 0.39000 -0.23800
H 	H 	0.79090 0.75000 0.48300 0.09700
O 	O 	0.40980 0.25000 0.81000 -0.40800
O 	O 	0.36400 0.25000 0.55130 -0.48900
C 	C 	0.33240 0.25000 0.78780 0.14800
C 	C 	0.30720 0.25000 0.64220 0.15300
C 	C 	0.27470 0.25000 0.89000 -0.24400
H 	H 	0.29090 0.25000 0.98300 0.09400
O 	O 	0.90980 0.25000 0.69000 -0.35900
O 	O 	0.86400 0.25000 0.94870 -0.44700
C 	C 	0.83240 0.25000 0.71220 0.15200
C 	C 	0.80720 0.25000 0.85780 0.15600
C 	C 	0.77470 0.25000 0.61000 -0.23800
H 	H 	0.79090 0.25000 0.51700 0.09700
O 	O 	0.40980 0.75000 0.19000 -0.40800
O 	O 	0.36400 0.75000 0.44870 -0.48900
C 	C 	0.33240 0.75000 0.21220 0.14800
C 	C 	0.30720 0.75000 0.35780 0.15300
C 	C 	0.27470 0.75000 0.11000 -0.24400
H 	H 	0.29090 0.75000 0.01700 0.09400
O 	O 	0.09020 0.25000 0.69000 -0.41200
O 	O 	0.13600 0.25000 0.94870 -0.47800
C 	C 	0.16760 0.25000 0.71220 0.15100
C 	C 	0.19280 0.25000 0.85780 0.15000
C 	C 	0.22530 0.25000 0.61000 -0.24900
H 	H 	0.20910 0.25000 0.51700 0.09300
O 	O 	0.59020 0.75000 0.19000 -0.40700
O 	O 	0.63600 0.75000 0.44870 -0.48600
C 	C 	0.66760 0.75000 0.21220 0.15100
C 	C 	0.69280 0.75000 0.35780 0.15400
C 	C 	0.72530 0.75000 0.11000 -0.24100
H 	H 	0.70910 0.75000 0.01700 0.09500
O 	O 	-0.00000 0.61700 0.19560 -0.39500
O 	O 	-0.00000 0.66030 0.93360 -0.44200
C 	C 	-0.00000 0.47800 0.13840 -0.23200
C 	C 	0.00000 0.58310 0.96110 0.09900
C 	C 	-0.00000 0.55850 0.10460 0.12500
H 	H 	-0.00000 0.46340 0.23220 0.08900
O 	O 	0.50000 0.11700 0.69560 -0.38300
O 	O 	0.50000 0.16030 0.43360 -0.42900
C 	C 	0.50000 0.97800 0.63840 -0.22500
C 	C 	0.50000 0.08310 0.46110 0.10700
C 	C 	0.50000 0.05850 0.60460 0.13200
H 	H 	0.50000 0.96340 0.73220 0.10200
O 	O 	0.00000 0.88300 0.19560 -0.39500
O 	O 	-0.00000 0.83970 0.93360 -0.44200
C 	C 	-0.00000 0.02200 0.13840 -0.23300
C 	C 	-0.00000 0.91690 0.96110 0.09800
C 	C 	-0.00000 0.94150 0.10460 0.12600
H 	H 	-0.00000 0.03660 0.23220 0.08900
O 	O 	0.50000 0.38300 0.69560 -0.38300
O 	O 	0.50000 0.33970 0.43360 -0.42900
C 	C 	0.50000 0.52200 0.63840 -0.22500
C 	C 	0.50000 0.41690 0.46110 0.10700
C 	C 	0.50000 0.44150 0.60460 0.13200
H 	H 	0.50000 0.53660 0.73220 0.10200
O 	O 	0.00000 0.11700 0.80440 -0.39500
O 	O 	-0.00000 0.16030 0.06640 -0.44200
C 	C 	0.00000 0.97800 0.86160 -0.23300
C 	C 	-0.00000 0.08310 0.03890 0.09800
C 	C 	-0.00000 0.05850 0.89540 0.12600
H 	H 	0.00000 0.96340 0.76780 0.08900
O 	O 	0.50000 0.61700 0.30440 -0.38300
O 	O 	0.50000 0.66030 0.56640 -0.42900
C 	C 	0.50000 0.47800 0.36160 -0.22500
C 	C 	0.50000 0.58310 0.53890 0.10700
C 	C 	0.50000 0.55850 0.39540 0.13200
H 	H 	0.50000 0.46340 0.26780 0.10200
O 	O 	0.00000 0.38300 0.80440 -0.39500
O 	O 	-0.00000 0.33970 0.06640 -0.44200
C 	C 	-0.00000 0.52200 0.86160 -0.23200
C 	C 	-0.00000 0.41690 0.03890 0.09900
C 	C 	-0.00000 0.44150 0.89540 0.12500
H 	H 	-0.00000 0.53660 0.76780 0.08900
O 	O 	0.50000 0.88300 0.30440 -0.38300
O 	O 	0.50000 0.83970 0.56640 -0.42900
C 	C 	0.50000 0.02200 0.36160 -0.22500
C 	C 	0.50000 0.91690 0.53890 0.10700
C 	C 	0.50000 0.94150 0.39540 0.13200
H 	H 	0.50000 0.03660 0.26780 0.10200
O 	O 	0.75000 0.75000 0.75000 -0.44600
O 	O 	0.25000 0.25000 0.25000 -0.45400
O 	O 	0.25000 0.75000 0.75000 -0.45400
O 	O 	0.75000 0.25000 0.25000 -0.44600
