data_crystal

_cell_length_a 12.15840
_cell_length_b 12.15840
_cell_length_c 17.80820
_cell_angle_alpha 90.00000
_cell_angle_beta  90.00000
_cell_angle_gamma 90.00000

_symmetry_space_group_name_	'P 1'
_symmetry_space_group_name_H-M	'P 1'

loop_
_symmetry_equiv_pos_as_xyz
  x,y,z

loop_
_atom_site_label
_atom_site_type_symbol
_atom_site_fract_x
_atom_site_fract_y
_atom_site_fract_z
_atom_site_charge
Np	Np	0.39685 0.42142 0.22130 0.02600
O 	O 	0.24630 0.40280 0.20480 -0.04000
O 	O 	0.41400 0.52180 0.09870 -0.18100
O 	O 	0.37880 0.62360 0.19730 -0.17700
O 	O 	0.48850 0.87380 0.84180 -0.17600
O 	O 	0.55870 0.71120 0.87210 -0.16400
C 	C 	0.39900 0.61520 0.12840 0.27300
C 	C 	0.40520 0.71640 0.08110 -0.04200
C 	C 	0.44590 0.70950 0.00780 -0.00400
H 	H 	0.47070 0.64080 0.98890 0.08100
C 	C 	0.45030 0.80180 0.96290 -0.03600
C 	C 	0.41030 0.90170 0.99020 -0.01000
H 	H 	0.40860 0.96430 0.95830 0.06500
C 	C 	0.37310 0.91020 0.06340 -0.04200
H 	H 	0.34880 0.97900 0.08250 0.08500
C 	C 	0.37180 0.81710 0.10910 -0.00600
H 	H 	0.34780 0.82280 0.15970 0.07600
C 	C 	0.50210 0.79510 0.88640 0.27700
Np	Np	0.10315 0.07858 0.22130 0.02400
O 	O 	0.25370 0.09720 0.20480 -0.04200
O 	O 	0.08600 0.97820 0.09870 -0.18200
O 	O 	0.12120 0.87640 0.19730 -0.17800
O 	O 	0.01150 0.62620 0.84180 -0.17600
O 	O 	0.94130 0.78880 0.87210 -0.16500
C 	C 	0.10100 0.88480 0.12840 0.27300
C 	C 	0.09480 0.78360 0.08110 -0.04100
C 	C 	0.05410 0.79050 0.00780 -0.00500
H 	H 	0.02930 0.85920 0.98890 0.08200
C 	C 	0.04970 0.69820 0.96290 -0.03500
C 	C 	0.08970 0.59830 0.99020 -0.01000
H 	H 	0.09140 0.53570 0.95830 0.06500
C 	C 	0.12690 0.58980 0.06340 -0.04200
H 	H 	0.15120 0.52100 0.08250 0.08500
C 	C 	0.12820 0.68290 0.10910 -0.00600
H 	H 	0.15220 0.67720 0.15970 0.07600
C 	C 	0.99790 0.70490 0.88640 0.27600
Np	Np	0.57858 0.89685 0.72130 0.02500
O 	O 	0.59720 0.74630 0.70480 -0.04100
O 	O 	0.47820 0.91400 0.59870 -0.18200
O 	O 	0.37640 0.87880 0.69730 -0.17800
O 	O 	0.12620 0.98850 0.34180 -0.17600
O 	O 	0.28880 0.05870 0.37210 -0.16400
C 	C 	0.38480 0.89900 0.62840 0.27200
C 	C 	0.28360 0.90520 0.58110 -0.04100
C 	C 	0.29050 0.94590 0.50780 -0.00600
H 	H 	0.35920 0.97070 0.48890 0.08200
C 	C 	0.19820 0.95030 0.46290 -0.03400
C 	C 	0.09830 0.91030 0.49020 -0.01000
H 	H 	0.03570 0.90860 0.45830 0.06500
C 	C 	0.08980 0.87310 0.56340 -0.04200
H 	H 	0.02100 0.84880 0.58250 0.08500
C 	C 	0.18290 0.87180 0.60910 -0.00600
H 	H 	0.17720 0.84780 0.65970 0.07600
C 	C 	0.20490 0.00210 0.38640 0.27500
Np	Np	0.92142 0.60315 0.72130 0.02500
O 	O 	0.90280 0.75370 0.70480 -0.04200
O 	O 	0.02180 0.58600 0.59870 -0.18200
O 	O 	0.12360 0.62120 0.69730 -0.17800
O 	O 	0.37380 0.51150 0.34180 -0.17700
O 	O 	0.21120 0.44130 0.37210 -0.16500
C 	C 	0.11520 0.60100 0.62840 0.27300
C 	C 	0.21640 0.59480 0.58110 -0.04100
C 	C 	0.20950 0.55410 0.50780 -0.00500
H 	H 	0.14080 0.52930 0.48890 0.08200
C 	C 	0.30180 0.54970 0.46290 -0.03600
C 	C 	0.40170 0.58970 0.49020 -0.01000
H 	H 	0.46430 0.59140 0.45830 0.06500
C 	C 	0.41020 0.62690 0.56340 -0.04200
H 	H 	0.47900 0.65120 0.58250 0.08500
C 	C 	0.31710 0.62820 0.60910 -0.00600
H 	H 	0.32280 0.65220 0.65970 0.07600
C 	C 	0.29510 0.49790 0.38640 0.27700
Np	Np	0.60315 0.57858 0.77870 0.02500
O 	O 	0.75370 0.59720 0.79520 -0.04100
O 	O 	0.58600 0.47820 0.90130 -0.18200
O 	O 	0.62120 0.37640 0.80270 -0.17800
O 	O 	0.51150 0.12620 0.15820 -0.17700
O 	O 	0.44130 0.28880 0.12790 -0.16500
C 	C 	0.60100 0.38480 0.87160 0.27300
C 	C 	0.59480 0.28360 0.91890 -0.04200
C 	C 	0.55410 0.29050 0.99220 -0.00400
H 	H 	0.52930 0.35920 0.01110 0.08100
C 	C 	0.54970 0.19820 0.03710 -0.03600
C 	C 	0.58970 0.09830 0.00980 -0.01000
H 	H 	0.59140 0.03570 0.04170 0.06500
C 	C 	0.62690 0.08980 0.93660 -0.04200
H 	H 	0.65120 0.02100 0.91750 0.08500
C 	C 	0.62820 0.18290 0.89090 -0.00600
H 	H 	0.65220 0.17720 0.84030 0.07600
C 	C 	0.49790 0.20490 0.11360 0.27700
Np	Np	0.89685 0.92142 0.77870 0.02400
O 	O 	0.74630 0.90280 0.79520 -0.04200
O 	O 	0.91400 0.02180 0.90130 -0.18200
O 	O 	0.87880 0.12360 0.80270 -0.17800
O 	O 	0.98850 0.37380 0.15820 -0.17600
O 	O 	0.05870 0.21120 0.12790 -0.16500
C 	C 	0.89900 0.11520 0.87160 0.27300
C 	C 	0.90520 0.21640 0.91890 -0.04100
C 	C 	0.94590 0.20950 0.99220 -0.00500
H 	H 	0.97070 0.14080 0.01110 0.08200
C 	C 	0.95030 0.30180 0.03710 -0.03500
C 	C 	0.91030 0.40170 0.00980 -0.01000
H 	H 	0.90860 0.46430 0.04170 0.06500
C 	C 	0.87310 0.41020 0.93660 -0.04200
H 	H 	0.84880 0.47900 0.91750 0.08500
C 	C 	0.87180 0.31710 0.89090 -0.00600
H 	H 	0.84780 0.32280 0.84030 0.07600
C 	C 	0.00210 0.29510 0.11360 0.27600
Np	Np	0.42142 0.10315 0.27870 0.02500
O 	O 	0.40280 0.25370 0.29520 -0.04100
O 	O 	0.52180 0.08600 0.40130 -0.18200
O 	O 	0.62360 0.12120 0.30270 -0.17800
O 	O 	0.87380 0.01150 0.65820 -0.17600
O 	O 	0.71120 0.94130 0.62790 -0.16400
C 	C 	0.61520 0.10100 0.37160 0.27200
C 	C 	0.71640 0.09480 0.41890 -0.04100
C 	C 	0.70950 0.05410 0.49220 -0.00600
H 	H 	0.64080 0.02930 0.51110 0.08200
C 	C 	0.80180 0.04970 0.53710 -0.03400
C 	C 	0.90170 0.08970 0.50980 -0.01000
H 	H 	0.96430 0.09140 0.54170 0.06500
C 	C 	0.91020 0.12690 0.43660 -0.04200
H 	H 	0.97900 0.15120 0.41750 0.08500
C 	C 	0.81710 0.12820 0.39090 -0.00600
H 	H 	0.82280 0.15220 0.34030 0.07600
C 	C 	0.79510 0.99790 0.61360 0.27500
Np	Np	0.07858 0.39685 0.27870 0.02500
O 	O 	0.09720 0.24630 0.29520 -0.04200
O 	O 	0.97820 0.41400 0.40130 -0.18200
O 	O 	0.87640 0.37880 0.30270 -0.17800
O 	O 	0.62620 0.48850 0.65820 -0.17700
O 	O 	0.78880 0.55870 0.62790 -0.16500
C 	C 	0.88480 0.39900 0.37160 0.27300
C 	C 	0.78360 0.40520 0.41890 -0.04100
C 	C 	0.79050 0.44590 0.49220 -0.00500
H 	H 	0.85920 0.47070 0.51110 0.08200
C 	C 	0.69820 0.45030 0.53710 -0.03600
C 	C 	0.59830 0.41030 0.50980 -0.01000
H 	H 	0.53570 0.40860 0.54170 0.06500
C 	C 	0.58980 0.37310 0.43660 -0.04200
H 	H 	0.52100 0.34880 0.41750 0.08500
C 	C 	0.68290 0.37180 0.39090 -0.00600
H 	H 	0.67720 0.34780 0.34030 0.07600
C 	C 	0.70490 0.50210 0.61360 0.27700
