data_crystal

_cell_length_a 18.75700
_cell_length_b 18.75700
_cell_length_c 36.09200
_cell_angle_alpha 90.00000
_cell_angle_beta  90.00000
_cell_angle_gamma 90.00000

_symmetry_space_group_name_	'P 1'
_symmetry_space_group_name_H-M	'P 1'

loop_
_symmetry_equiv_pos_as_xyz
  x,y,z

loop_
_atom_site_label
_atom_site_type_symbol
_atom_site_fract_x
_atom_site_fract_y
_atom_site_fract_z
_atom_site_charge
O 	O 	0.29616 0.80305 0.20531 -0.40800
O 	O 	0.35305 0.75031 0.25339 -0.39600
O 	O 	0.61530 0.71982 0.24486 -0.40000
O 	O 	0.66978 0.77253 0.19638 -0.40500
C 	C 	0.48273 0.76427 0.21648 -0.00300
H 	H 	0.48490 0.75800 0.24260 0.05600
C 	C 	0.41742 0.77588 0.19931 -0.05600
C 	C 	0.41419 0.78502 0.16113 -0.08300
H 	H 	0.36960 0.79300 0.14940 0.07000
C 	C 	0.47625 0.78255 0.14012 0.08300
C 	C 	0.54155 0.77094 0.15730 -0.07900
H 	H 	0.58400 0.76930 0.14290 0.06500
C 	C 	0.54479 0.76180 0.19548 -0.05900
C 	C 	0.35035 0.77848 0.22116 0.33500
C 	C 	0.61517 0.75215 0.21357 0.33300
C 	C 	0.47210 0.78201 0.09829 -0.20100
C 	C 	0.46460 0.84633 0.07957 0.22000
C 	C 	0.46210 0.84724 0.04108 -0.22600
H 	H 	0.45690 0.89120 0.02830 0.09500
C 	C 	0.46710 0.78380 0.02132 0.09800
C 	C 	0.47470 0.71953 0.04004 -0.23700
H 	H 	0.47820 0.67620 0.02650 0.09400
C 	C 	0.47720 0.71861 0.07853 0.24700
C 	C 	0.44540 0.91830 0.10045 -0.53800
H 	H 	0.44890 0.91090 0.12730 0.18400
H 	H 	0.39670 0.93260 0.09410 0.17600
H 	H 	0.47870 0.95580 0.09290 0.16500
C 	C 	0.49890 0.65080 0.09884 -0.57800
H 	H 	0.50100 0.61110 0.08120 0.17300
H 	H 	0.46380 0.64010 0.11820 0.18800
H 	H 	0.54590 0.65760 0.11020 0.18900
O 	O 	0.70384 0.19695 0.20531 -0.40900
O 	O 	0.64695 0.24969 0.25339 -0.39700
O 	O 	0.38470 0.28018 0.24486 -0.40100
O 	O 	0.33022 0.22747 0.19638 -0.40600
C 	C 	0.51727 0.23573 0.21648 -0.00300
H 	H 	0.51510 0.24200 0.24260 0.05600
C 	C 	0.58258 0.22412 0.19931 -0.05600
C 	C 	0.58581 0.21498 0.16113 -0.08300
H 	H 	0.63040 0.20700 0.14940 0.07000
C 	C 	0.52375 0.21745 0.14012 0.08300
C 	C 	0.45845 0.22906 0.15730 -0.07900
H 	H 	0.41600 0.23070 0.14290 0.06500
C 	C 	0.45521 0.23820 0.19548 -0.05900
C 	C 	0.64965 0.22152 0.22116 0.33500
C 	C 	0.38483 0.24785 0.21357 0.33300
C 	C 	0.52790 0.21799 0.09829 -0.20100
C 	C 	0.53540 0.15367 0.07957 0.22000
C 	C 	0.53790 0.15276 0.04108 -0.22600
H 	H 	0.54310 0.10880 0.02830 0.09500
C 	C 	0.53290 0.21620 0.02132 0.09800
C 	C 	0.52530 0.28047 0.04004 -0.23700
H 	H 	0.52180 0.32380 0.02650 0.09400
C 	C 	0.52280 0.28139 0.07853 0.24700
C 	C 	0.55460 0.08170 0.10045 -0.53800
H 	H 	0.55110 0.08910 0.12730 0.18400
H 	H 	0.60330 0.06740 0.09410 0.17600
H 	H 	0.52130 0.04420 0.09290 0.16500
C 	C 	0.50110 0.34920 0.09884 -0.57800
H 	H 	0.49900 0.38890 0.08120 0.17300
H 	H 	0.53620 0.35990 0.11820 0.18800
H 	H 	0.45410 0.34240 0.11020 0.18900
O 	O 	0.69695 0.79616 0.70531 -0.40900
O 	O 	0.74969 0.85305 0.75339 -0.39700
O 	O 	0.78018 0.11530 0.74486 -0.40100
O 	O 	0.72747 0.16978 0.69638 -0.40600
C 	C 	0.73573 0.98273 0.71648 -0.00100
H 	H 	0.74200 0.98490 0.74260 0.05500
C 	C 	0.72412 0.91742 0.69931 -0.05700
C 	C 	0.71498 0.91419 0.66113 -0.08200
H 	H 	0.70700 0.86960 0.64940 0.07000
C 	C 	0.71745 0.97625 0.64012 0.08300
C 	C 	0.72906 0.04155 0.65730 -0.08000
H 	H 	0.73070 0.08400 0.64290 0.06500
C 	C 	0.73820 0.04479 0.69548 -0.06000
C 	C 	0.72152 0.85035 0.72116 0.33500
C 	C 	0.74785 0.11517 0.71357 0.33400
C 	C 	0.71799 0.97210 0.59829 -0.19900
C 	C 	0.65367 0.96460 0.57957 0.21900
C 	C 	0.65276 0.96210 0.54108 -0.22500
H 	H 	0.60880 0.95690 0.52830 0.09400
C 	C 	0.71620 0.96710 0.52132 0.09700
C 	C 	0.78047 0.97470 0.54004 -0.23500
H 	H 	0.82380 0.97820 0.52650 0.09300
C 	C 	0.78139 0.97720 0.57853 0.24300
C 	C 	0.58170 0.94540 0.60045 -0.53700
H 	H 	0.58910 0.94890 0.62730 0.18400
H 	H 	0.56740 0.89670 0.59410 0.17600
H 	H 	0.54420 0.97870 0.59290 0.16400
C 	C 	0.84920 0.99890 0.59884 -0.56300
H 	H 	0.88890 0.00100 0.58120 0.16800
H 	H 	0.85990 0.96380 0.61820 0.18500
H 	H 	0.84240 0.04590 0.61020 0.18300
O 	O 	0.30305 0.20384 0.70531 -0.40900
O 	O 	0.25031 0.14695 0.75339 -0.39700
O 	O 	0.21982 0.88470 0.74486 -0.40100
O 	O 	0.27253 0.83022 0.69638 -0.40600
C 	C 	0.26427 0.01727 0.71648 -0.00100
H 	H 	0.25800 0.01510 0.74260 0.05500
C 	C 	0.27588 0.08258 0.69931 -0.05700
C 	C 	0.28502 0.08581 0.66113 -0.08200
H 	H 	0.29300 0.13040 0.64940 0.07000
C 	C 	0.28255 0.02375 0.64012 0.08300
C 	C 	0.27094 0.95845 0.65730 -0.08000
H 	H 	0.26930 0.91600 0.64290 0.06500
C 	C 	0.26180 0.95521 0.69548 -0.06000
C 	C 	0.27848 0.14965 0.72116 0.33500
C 	C 	0.25215 0.88483 0.71357 0.33400
C 	C 	0.28201 0.02790 0.59829 -0.19900
C 	C 	0.34633 0.03540 0.57957 0.21900
C 	C 	0.34724 0.03790 0.54108 -0.22500
H 	H 	0.39120 0.04310 0.52830 0.09400
C 	C 	0.28380 0.03290 0.52132 0.09700
C 	C 	0.21953 0.02530 0.54004 -0.23500
H 	H 	0.17620 0.02180 0.52650 0.09300
C 	C 	0.21861 0.02280 0.57853 0.24300
C 	C 	0.41830 0.05460 0.60045 -0.53700
H 	H 	0.41090 0.05110 0.62730 0.18400
H 	H 	0.43260 0.10330 0.59410 0.17600
H 	H 	0.45580 0.02130 0.59290 0.16400
C 	C 	0.15080 0.00110 0.59884 -0.56300
H 	H 	0.11110 0.99900 0.58120 0.16800
H 	H 	0.14010 0.03620 0.61820 0.18500
H 	H 	0.15760 0.95410 0.61020 0.18300
O 	O 	0.20384 0.30305 0.29469 -0.40900
O 	O 	0.14695 0.25031 0.24661 -0.39700
O 	O 	0.88470 0.21982 0.25514 -0.40100
O 	O 	0.83022 0.27253 0.30362 -0.40600
C 	C 	0.01727 0.26427 0.28352 -0.00100
H 	H 	0.01510 0.25800 0.25740 0.05500
C 	C 	0.08258 0.27588 0.30069 -0.05700
C 	C 	0.08581 0.28502 0.33887 -0.08200
H 	H 	0.13040 0.29300 0.35060 0.07000
C 	C 	0.02375 0.28255 0.35988 0.08300
C 	C 	0.95845 0.27094 0.34270 -0.08000
H 	H 	0.91600 0.26930 0.35710 0.06500
C 	C 	0.95521 0.26180 0.30452 -0.06000
C 	C 	0.14965 0.27848 0.27884 0.33500
C 	C 	0.88483 0.25215 0.28643 0.33400
C 	C 	0.02790 0.28201 0.40171 -0.19900
C 	C 	0.03540 0.34633 0.42043 0.21900
C 	C 	0.03790 0.34724 0.45892 -0.22500
H 	H 	0.04310 0.39120 0.47170 0.09400
C 	C 	0.03290 0.28380 0.47868 0.09700
C 	C 	0.02530 0.21953 0.45996 -0.23500
H 	H 	0.02180 0.17620 0.47350 0.09300
C 	C 	0.02280 0.21861 0.42147 0.24300
C 	C 	0.05460 0.41830 0.39955 -0.53700
H 	H 	0.05110 0.41090 0.37270 0.18400
H 	H 	0.10330 0.43260 0.40590 0.17600
H 	H 	0.02130 0.45580 0.40710 0.16400
C 	C 	0.00110 0.15080 0.40116 -0.56300
H 	H 	0.99900 0.11110 0.41880 0.16800
H 	H 	0.03620 0.14010 0.38180 0.18500
H 	H 	0.95410 0.15760 0.38980 0.18300
O 	O 	0.79616 0.69695 0.29469 -0.40900
O 	O 	0.85305 0.74969 0.24661 -0.39700
O 	O 	0.11530 0.78018 0.25514 -0.40100
O 	O 	0.16978 0.72747 0.30362 -0.40600
C 	C 	0.98273 0.73573 0.28352 -0.00100
H 	H 	0.98490 0.74200 0.25740 0.05500
C 	C 	0.91742 0.72412 0.30069 -0.05700
C 	C 	0.91419 0.71498 0.33887 -0.08200
H 	H 	0.86960 0.70700 0.35060 0.07000
C 	C 	0.97625 0.71745 0.35988 0.08300
C 	C 	0.04155 0.72906 0.34270 -0.08000
H 	H 	0.08400 0.73070 0.35710 0.06500
C 	C 	0.04479 0.73820 0.30452 -0.06000
C 	C 	0.85035 0.72152 0.27884 0.33500
C 	C 	0.11517 0.74785 0.28643 0.33400
C 	C 	0.97210 0.71799 0.40171 -0.19900
C 	C 	0.96460 0.65367 0.42043 0.21900
C 	C 	0.96210 0.65276 0.45892 -0.22500
H 	H 	0.95690 0.60880 0.47170 0.09400
C 	C 	0.96710 0.71620 0.47868 0.09700
C 	C 	0.97470 0.78047 0.45996 -0.23500
H 	H 	0.97820 0.82380 0.47350 0.09300
C 	C 	0.97720 0.78139 0.42147 0.24300
C 	C 	0.94540 0.58170 0.39955 -0.53700
H 	H 	0.94890 0.58910 0.37270 0.18400
H 	H 	0.89670 0.56740 0.40590 0.17600
H 	H 	0.97870 0.54420 0.40710 0.16400
C 	C 	0.99890 0.84920 0.40116 -0.56300
H 	H 	0.00100 0.88890 0.41880 0.16800
H 	H 	0.96380 0.85990 0.38180 0.18500
H 	H 	0.04590 0.84240 0.38980 0.18300
O 	O 	0.80305 0.29616 0.79469 -0.40900
O 	O 	0.75031 0.35305 0.74661 -0.39700
O 	O 	0.71982 0.61530 0.75514 -0.40100
O 	O 	0.77253 0.66978 0.80362 -0.40600
C 	C 	0.76427 0.48273 0.78352 -0.00300
H 	H 	0.75800 0.48490 0.75740 0.05600
C 	C 	0.77588 0.41742 0.80069 -0.05600
C 	C 	0.78502 0.41419 0.83887 -0.08300
H 	H 	0.79300 0.36960 0.85060 0.07000
C 	C 	0.78255 0.47625 0.85988 0.08300
C 	C 	0.77094 0.54155 0.84270 -0.07900
H 	H 	0.76930 0.58400 0.85710 0.06500
C 	C 	0.76180 0.54479 0.80452 -0.05900
C 	C 	0.77848 0.35035 0.77884 0.33500
C 	C 	0.75215 0.61517 0.78643 0.33300
C 	C 	0.78201 0.47210 0.90171 -0.20100
C 	C 	0.84633 0.46460 0.92043 0.22000
C 	C 	0.84724 0.46210 0.95892 -0.22600
H 	H 	0.89120 0.45690 0.97170 0.09500
C 	C 	0.78380 0.46710 0.97868 0.09800
C 	C 	0.71953 0.47470 0.95996 -0.23700
H 	H 	0.67620 0.47820 0.97350 0.09400
C 	C 	0.71861 0.47720 0.92147 0.24700
C 	C 	0.91830 0.44540 0.89955 -0.53800
H 	H 	0.91090 0.44890 0.87270 0.18400
H 	H 	0.93260 0.39670 0.90590 0.17600
H 	H 	0.95580 0.47870 0.90710 0.16500
C 	C 	0.65080 0.49890 0.90116 -0.57800
H 	H 	0.61110 0.50100 0.91880 0.17300
H 	H 	0.64010 0.46380 0.88180 0.18800
H 	H 	0.65760 0.54590 0.88980 0.18900
O 	O 	0.19695 0.70384 0.79469 -0.40900
O 	O 	0.24969 0.64695 0.74661 -0.39700
O 	O 	0.28018 0.38470 0.75514 -0.40100
O 	O 	0.22747 0.33022 0.80362 -0.40600
C 	C 	0.23573 0.51727 0.78352 -0.00300
H 	H 	0.24200 0.51510 0.75740 0.05600
C 	C 	0.22412 0.58258 0.80069 -0.05600
C 	C 	0.21498 0.58581 0.83887 -0.08300
H 	H 	0.20700 0.63040 0.85060 0.07000
C 	C 	0.21745 0.52375 0.85988 0.08300
C 	C 	0.22906 0.45845 0.84270 -0.07900
H 	H 	0.23070 0.41600 0.85710 0.06500
C 	C 	0.23820 0.45521 0.80452 -0.05900
C 	C 	0.22152 0.64965 0.77884 0.33500
C 	C 	0.24785 0.38483 0.78643 0.33300
C 	C 	0.21799 0.52790 0.90171 -0.20100
C 	C 	0.15367 0.53540 0.92043 0.22000
C 	C 	0.15276 0.53790 0.95892 -0.22600
H 	H 	0.10880 0.54310 0.97170 0.09500
C 	C 	0.21620 0.53290 0.97868 0.09800
C 	C 	0.28047 0.52530 0.95996 -0.23700
H 	H 	0.32380 0.52180 0.97350 0.09400
C 	C 	0.28139 0.52280 0.92147 0.24700
C 	C 	0.08170 0.55460 0.89955 -0.53800
H 	H 	0.08910 0.55110 0.87270 0.18400
H 	H 	0.06740 0.60330 0.90590 0.17600
H 	H 	0.04420 0.52130 0.90710 0.16500
C 	C 	0.34920 0.50110 0.90116 -0.57800
H 	H 	0.38890 0.49900 0.91880 0.17300
H 	H 	0.35990 0.53620 0.88180 0.18800
H 	H 	0.34240 0.45410 0.88980 0.18900
O 	O 	0.70384 0.19695 0.79469 -0.40900
O 	O 	0.64695 0.24969 0.74661 -0.39700
O 	O 	0.38470 0.28018 0.75514 -0.40100
O 	O 	0.33022 0.22747 0.80362 -0.40600
C 	C 	0.51727 0.23573 0.78352 -0.00300
H 	H 	0.51510 0.24200 0.75740 0.05600
C 	C 	0.58258 0.22412 0.80069 -0.05600
C 	C 	0.58581 0.21498 0.83887 -0.08300
H 	H 	0.63040 0.20700 0.85060 0.07000
C 	C 	0.52375 0.21745 0.85988 0.08300
C 	C 	0.45845 0.22906 0.84270 -0.07900
H 	H 	0.41600 0.23070 0.85710 0.06500
C 	C 	0.45521 0.23820 0.80452 -0.05900
C 	C 	0.64965 0.22152 0.77884 0.33500
C 	C 	0.38483 0.24785 0.78643 0.33300
C 	C 	0.52790 0.21799 0.90171 -0.20100
C 	C 	0.53540 0.15367 0.92043 0.22000
C 	C 	0.53790 0.15276 0.95892 -0.22600
H 	H 	0.54310 0.10880 0.97170 0.09500
C 	C 	0.53290 0.21620 0.97868 0.09800
C 	C 	0.52530 0.28047 0.95996 -0.23700
H 	H 	0.52180 0.32380 0.97350 0.09400
C 	C 	0.52280 0.28139 0.92147 0.24700
C 	C 	0.55460 0.08170 0.89955 -0.53800
H 	H 	0.55110 0.08910 0.87270 0.18400
H 	H 	0.60330 0.06740 0.90590 0.17600
H 	H 	0.52130 0.04420 0.90710 0.16500
C 	C 	0.50110 0.34920 0.90116 -0.57800
H 	H 	0.49900 0.38890 0.91880 0.17300
H 	H 	0.53620 0.35990 0.88180 0.18800
H 	H 	0.45410 0.34240 0.88980 0.18900
O 	O 	0.29616 0.80305 0.79469 -0.40900
O 	O 	0.35305 0.75031 0.74661 -0.39700
O 	O 	0.61530 0.71982 0.75514 -0.40100
O 	O 	0.66978 0.77253 0.80362 -0.40600
C 	C 	0.48273 0.76427 0.78352 -0.00300
H 	H 	0.48490 0.75800 0.75740 0.05600
C 	C 	0.41742 0.77588 0.80069 -0.05600
C 	C 	0.41419 0.78502 0.83887 -0.08300
H 	H 	0.36960 0.79300 0.85060 0.07000
C 	C 	0.47625 0.78255 0.85988 0.08300
C 	C 	0.54155 0.77094 0.84270 -0.07900
H 	H 	0.58400 0.76930 0.85710 0.06500
C 	C 	0.54479 0.76180 0.80452 -0.05900
C 	C 	0.35035 0.77848 0.77884 0.33500
C 	C 	0.61517 0.75215 0.78643 0.33300
C 	C 	0.47210 0.78201 0.90171 -0.20100
C 	C 	0.46460 0.84633 0.92043 0.22000
C 	C 	0.46210 0.84724 0.95892 -0.22600
H 	H 	0.45690 0.89120 0.97170 0.09500
C 	C 	0.46710 0.78380 0.97868 0.09800
C 	C 	0.47470 0.71953 0.95996 -0.23700
H 	H 	0.47820 0.67620 0.97350 0.09400
C 	C 	0.47720 0.71861 0.92147 0.24700
C 	C 	0.44540 0.91830 0.89955 -0.53800
H 	H 	0.44890 0.91090 0.87270 0.18400
H 	H 	0.39670 0.93260 0.90590 0.17600
H 	H 	0.47870 0.95580 0.90710 0.16500
C 	C 	0.49890 0.65080 0.90116 -0.57800
H 	H 	0.50100 0.61110 0.91880 0.17300
H 	H 	0.46380 0.64010 0.88180 0.18800
H 	H 	0.54590 0.65760 0.88980 0.18900
O 	O 	0.30305 0.20384 0.29469 -0.40900
O 	O 	0.25031 0.14695 0.24661 -0.39700
O 	O 	0.21982 0.88470 0.25514 -0.40100
O 	O 	0.27253 0.83022 0.30362 -0.40600
C 	C 	0.26427 0.01727 0.28352 -0.00100
H 	H 	0.25800 0.01510 0.25740 0.05500
C 	C 	0.27588 0.08258 0.30069 -0.05700
C 	C 	0.28502 0.08581 0.33887 -0.08200
H 	H 	0.29300 0.13040 0.35060 0.07000
C 	C 	0.28255 0.02375 0.35988 0.08300
C 	C 	0.27094 0.95845 0.34270 -0.08000
H 	H 	0.26930 0.91600 0.35710 0.06500
C 	C 	0.26180 0.95521 0.30452 -0.06000
C 	C 	0.27848 0.14965 0.27884 0.33500
C 	C 	0.25215 0.88483 0.28643 0.33400
C 	C 	0.28201 0.02790 0.40171 -0.19900
C 	C 	0.34633 0.03540 0.42043 0.21900
C 	C 	0.34724 0.03790 0.45892 -0.22500
H 	H 	0.39120 0.04310 0.47170 0.09400
C 	C 	0.28380 0.03290 0.47868 0.09700
C 	C 	0.21953 0.02530 0.45996 -0.23500
H 	H 	0.17620 0.02180 0.47350 0.09300
C 	C 	0.21861 0.02280 0.42147 0.24300
C 	C 	0.41830 0.05460 0.39955 -0.53700
H 	H 	0.41090 0.05110 0.37270 0.18400
H 	H 	0.43260 0.10330 0.40590 0.17600
H 	H 	0.45580 0.02130 0.40710 0.16400
C 	C 	0.15080 0.00110 0.40116 -0.56300
H 	H 	0.11110 0.99900 0.41880 0.16800
H 	H 	0.14010 0.03620 0.38180 0.18500
H 	H 	0.15760 0.95410 0.38980 0.18300
O 	O 	0.69695 0.79616 0.29469 -0.40900
O 	O 	0.74969 0.85305 0.24661 -0.39700
O 	O 	0.78018 0.11530 0.25514 -0.40100
O 	O 	0.72747 0.16978 0.30362 -0.40600
C 	C 	0.73573 0.98273 0.28352 -0.00100
H 	H 	0.74200 0.98490 0.25740 0.05500
C 	C 	0.72412 0.91742 0.30069 -0.05700
C 	C 	0.71498 0.91419 0.33887 -0.08200
H 	H 	0.70700 0.86960 0.35060 0.07000
C 	C 	0.71745 0.97625 0.35988 0.08300
C 	C 	0.72906 0.04155 0.34270 -0.08000
H 	H 	0.73070 0.08400 0.35710 0.06500
C 	C 	0.73820 0.04479 0.30452 -0.06000
C 	C 	0.72152 0.85035 0.27884 0.33500
C 	C 	0.74785 0.11517 0.28643 0.33400
C 	C 	0.71799 0.97210 0.40171 -0.19900
C 	C 	0.65367 0.96460 0.42043 0.21900
C 	C 	0.65276 0.96210 0.45892 -0.22500
H 	H 	0.60880 0.95690 0.47170 0.09400
C 	C 	0.71620 0.96710 0.47868 0.09700
C 	C 	0.78047 0.97470 0.45996 -0.23500
H 	H 	0.82380 0.97820 0.47350 0.09300
C 	C 	0.78139 0.97720 0.42147 0.24300
C 	C 	0.58170 0.94540 0.39955 -0.53700
H 	H 	0.58910 0.94890 0.37270 0.18400
H 	H 	0.56740 0.89670 0.40590 0.17600
H 	H 	0.54420 0.97870 0.40710 0.16400
C 	C 	0.84920 0.99890 0.40116 -0.56300
H 	H 	0.88890 0.00100 0.41880 0.16800
H 	H 	0.85990 0.96380 0.38180 0.18500
H 	H 	0.84240 0.04590 0.38980 0.18300
O 	O 	0.79616 0.69695 0.70531 -0.40900
O 	O 	0.85305 0.74969 0.75339 -0.39700
O 	O 	0.11530 0.78018 0.74486 -0.40100
O 	O 	0.16978 0.72747 0.69638 -0.40600
C 	C 	0.98273 0.73573 0.71648 -0.00100
H 	H 	0.98490 0.74200 0.74260 0.05500
C 	C 	0.91742 0.72412 0.69931 -0.05700
C 	C 	0.91419 0.71498 0.66113 -0.08200
H 	H 	0.86960 0.70700 0.64940 0.07000
C 	C 	0.97625 0.71745 0.64012 0.08300
C 	C 	0.04155 0.72906 0.65730 -0.08000
H 	H 	0.08400 0.73070 0.64290 0.06500
C 	C 	0.04479 0.73820 0.69548 -0.06000
C 	C 	0.85035 0.72152 0.72116 0.33500
C 	C 	0.11517 0.74785 0.71357 0.33400
C 	C 	0.97210 0.71799 0.59829 -0.19900
C 	C 	0.96460 0.65367 0.57957 0.21900
C 	C 	0.96210 0.65276 0.54108 -0.22500
H 	H 	0.95690 0.60880 0.52830 0.09400
C 	C 	0.96710 0.71620 0.52132 0.09700
C 	C 	0.97470 0.78047 0.54004 -0.23500
H 	H 	0.97820 0.82380 0.52650 0.09300
C 	C 	0.97720 0.78139 0.57853 0.24300
C 	C 	0.94540 0.58170 0.60045 -0.53700
H 	H 	0.94890 0.58910 0.62730 0.18400
H 	H 	0.89670 0.56740 0.59410 0.17600
H 	H 	0.97870 0.54420 0.59290 0.16400
C 	C 	0.99890 0.84920 0.59884 -0.56300
H 	H 	0.00100 0.88890 0.58120 0.16800
H 	H 	0.96380 0.85990 0.61820 0.18500
H 	H 	0.04590 0.84240 0.61020 0.18300
O 	O 	0.20384 0.30305 0.70531 -0.40900
O 	O 	0.14695 0.25031 0.75339 -0.39700
O 	O 	0.88470 0.21982 0.74486 -0.40100
O 	O 	0.83022 0.27253 0.69638 -0.40600
C 	C 	0.01727 0.26427 0.71648 -0.00100
H 	H 	0.01510 0.25800 0.74260 0.05500
C 	C 	0.08258 0.27588 0.69931 -0.05700
C 	C 	0.08581 0.28502 0.66113 -0.08200
H 	H 	0.13040 0.29300 0.64940 0.07000
C 	C 	0.02375 0.28255 0.64012 0.08300
C 	C 	0.95845 0.27094 0.65730 -0.08000
H 	H 	0.91600 0.26930 0.64290 0.06500
C 	C 	0.95521 0.26180 0.69548 -0.06000
C 	C 	0.14965 0.27848 0.72116 0.33500
C 	C 	0.88483 0.25215 0.71357 0.33400
C 	C 	0.02790 0.28201 0.59829 -0.19900
C 	C 	0.03540 0.34633 0.57957 0.21900
C 	C 	0.03790 0.34724 0.54108 -0.22500
H 	H 	0.04310 0.39120 0.52830 0.09400
C 	C 	0.03290 0.28380 0.52132 0.09700
C 	C 	0.02530 0.21953 0.54004 -0.23500
H 	H 	0.02180 0.17620 0.52650 0.09300
C 	C 	0.02280 0.21861 0.57853 0.24300
C 	C 	0.05460 0.41830 0.60045 -0.53700
H 	H 	0.05110 0.41090 0.62730 0.18400
H 	H 	0.10330 0.43260 0.59410 0.17600
H 	H 	0.02130 0.45580 0.59290 0.16400
C 	C 	0.00110 0.15080 0.59884 -0.56300
H 	H 	0.99900 0.11110 0.58120 0.16800
H 	H 	0.03620 0.14010 0.61820 0.18500
H 	H 	0.95410 0.15760 0.61020 0.18300
O 	O 	0.19695 0.70384 0.20531 -0.40900
O 	O 	0.24969 0.64695 0.25339 -0.39700
O 	O 	0.28018 0.38470 0.24486 -0.40100
O 	O 	0.22747 0.33022 0.19638 -0.40600
C 	C 	0.23573 0.51727 0.21648 -0.00300
H 	H 	0.24200 0.51510 0.24260 0.05600
C 	C 	0.22412 0.58258 0.19931 -0.05600
C 	C 	0.21498 0.58581 0.16113 -0.08300
H 	H 	0.20700 0.63040 0.14940 0.07000
C 	C 	0.21745 0.52375 0.14012 0.08300
C 	C 	0.22906 0.45845 0.15730 -0.07900
H 	H 	0.23070 0.41600 0.14290 0.06500
C 	C 	0.23820 0.45521 0.19548 -0.05900
C 	C 	0.22152 0.64965 0.22116 0.33500
C 	C 	0.24785 0.38483 0.21357 0.33300
C 	C 	0.21799 0.52790 0.09829 -0.20100
C 	C 	0.15367 0.53540 0.07957 0.22000
C 	C 	0.15276 0.53790 0.04108 -0.22600
H 	H 	0.10880 0.54310 0.02830 0.09500
C 	C 	0.21620 0.53290 0.02132 0.09800
C 	C 	0.28047 0.52530 0.04004 -0.23700
H 	H 	0.32380 0.52180 0.02650 0.09400
C 	C 	0.28139 0.52280 0.07853 0.24700
C 	C 	0.08170 0.55460 0.10045 -0.53800
H 	H 	0.08910 0.55110 0.12730 0.18400
H 	H 	0.06740 0.60330 0.09410 0.17600
H 	H 	0.04420 0.52130 0.09290 0.16500
C 	C 	0.34920 0.50110 0.09884 -0.57800
H 	H 	0.38890 0.49900 0.08120 0.17300
H 	H 	0.35990 0.53620 0.11820 0.18800
H 	H 	0.34240 0.45410 0.11020 0.18900
O 	O 	0.80305 0.29616 0.20531 -0.40900
O 	O 	0.75031 0.35305 0.25339 -0.39700
O 	O 	0.71982 0.61530 0.24486 -0.40100
O 	O 	0.77253 0.66978 0.19638 -0.40600
C 	C 	0.76427 0.48273 0.21648 -0.00300
H 	H 	0.75800 0.48490 0.24260 0.05600
C 	C 	0.77588 0.41742 0.19931 -0.05600
C 	C 	0.78502 0.41419 0.16113 -0.08300
H 	H 	0.79300 0.36960 0.14940 0.07000
C 	C 	0.78255 0.47625 0.14012 0.08300
C 	C 	0.77094 0.54155 0.15730 -0.07900
H 	H 	0.76930 0.58400 0.14290 0.06500
C 	C 	0.76180 0.54479 0.19548 -0.05900
C 	C 	0.77848 0.35035 0.22116 0.33500
C 	C 	0.75215 0.61517 0.21357 0.33300
C 	C 	0.78201 0.47210 0.09829 -0.20100
C 	C 	0.84633 0.46460 0.07957 0.22000
C 	C 	0.84724 0.46210 0.04108 -0.22600
H 	H 	0.89120 0.45690 0.02830 0.09500
C 	C 	0.78380 0.46710 0.02132 0.09800
C 	C 	0.71953 0.47470 0.04004 -0.23700
H 	H 	0.67620 0.47820 0.02650 0.09400
C 	C 	0.71861 0.47720 0.07853 0.24700
C 	C 	0.91830 0.44540 0.10045 -0.53800
H 	H 	0.91090 0.44890 0.12730 0.18400
H 	H 	0.93260 0.39670 0.09410 0.17600
H 	H 	0.95580 0.47870 0.09290 0.16500
C 	C 	0.65080 0.49890 0.09884 -0.57800
H 	H 	0.61110 0.50100 0.08120 0.17300
H 	H 	0.64010 0.46380 0.11820 0.18800
H 	H 	0.65760 0.54590 0.11020 0.18900
Cu	Cu	0.20137 0.79863 0.22637 0.90500
Cu	Cu	0.26578 0.73422 0.28279 0.90000
Cu	Cu	0.79863 0.20137 0.22637 0.90500
Cu	Cu	0.73422 0.26578 0.28279 0.90000
Cu	Cu	0.70137 0.70137 0.72637 0.90500
Cu	Cu	0.76578 0.76578 0.78279 0.90100
Cu	Cu	0.29863 0.29863 0.72637 0.90500
Cu	Cu	0.23422 0.23422 0.78279 0.90100
Cu	Cu	0.29863 0.29863 0.27363 0.90500
Cu	Cu	0.23422 0.23422 0.21721 0.90100
Cu	Cu	0.70137 0.70137 0.27363 0.90500
Cu	Cu	0.76578 0.76578 0.21721 0.90100
Cu	Cu	0.79863 0.20137 0.77363 0.90500
Cu	Cu	0.73422 0.26578 0.71721 0.90000
Cu	Cu	0.20137 0.79863 0.77363 0.90500
Cu	Cu	0.26578 0.73422 0.71721 0.90000
