data_crystal

_cell_length_a 9.80500
_cell_length_b 17.74700
_cell_length_c 21.35900
_cell_angle_alpha 103.13000
_cell_angle_beta  90.00000
_cell_angle_gamma 90.00000

_symmetry_space_group_name_	'P 1'
_symmetry_space_group_name_H-M	'P 1'

loop_
_symmetry_equiv_pos_as_xyz
  x,y,z

loop_
_atom_site_label
_atom_site_type_symbol
_atom_site_fract_x
_atom_site_fract_y
_atom_site_fract_z
_atom_site_charge
Mg	Mg	0.09839 0.22181 0.70888 1.47600
Mg	Mg	0.76911 0.78468 0.93839 1.46900
Mg	Mg	0.11229 0.30221 0.87833 1.45500
Mg	Mg	0.59839 0.77819 0.79112 1.47600
Mg	Mg	0.26911 0.21532 0.56161 1.46900
Mg	Mg	0.61229 0.69779 0.62167 1.45500
Mg	Mg	0.90161 0.77819 0.29112 1.47600
Mg	Mg	0.23089 0.21532 0.06161 1.46900
Mg	Mg	0.88771 0.69779 0.12167 1.45500
Mg	Mg	0.40161 0.22181 0.20888 1.47600
Mg	Mg	0.73089 0.78468 0.43839 1.46900
Mg	Mg	0.38771 0.30221 0.37833 1.45500
H 	H 	0.00860 0.99260 0.92950 0.02700
H 	H 	0.08860 0.11140 0.90160 0.01300
H 	H 	0.76660 0.55940 0.69320 0.00100
H 	H 	0.84060 0.42430 0.67610 0.04100
H 	H 	0.55800 0.22650 0.60670 0.02300
H 	H 	0.78860 0.22110 0.64820 0.04600
H 	H 	0.50860 0.00740 0.57050 0.03100
H 	H 	0.58860 0.88860 0.59840 0.00600
H 	H 	0.26660 0.44060 0.80680 0.00100
H 	H 	0.34060 0.57570 0.82390 0.04100
H 	H 	0.05800 0.77350 0.89330 0.02400
H 	H 	0.28860 0.77890 0.85180 0.04500
H 	H 	0.99140 0.00740 0.07050 0.02600
H 	H 	0.91140 0.88860 0.09840 0.01200
H 	H 	0.23340 0.44060 0.30680 0.00100
H 	H 	0.15940 0.57570 0.32390 0.04100
H 	H 	0.44200 0.77350 0.39330 0.02300
H 	H 	0.21140 0.77890 0.35180 0.04600
H 	H 	0.49140 0.99260 0.42950 0.03100
H 	H 	0.41140 0.11140 0.40160 0.00600
H 	H 	0.73340 0.55940 0.19320 0.00100
H 	H 	0.65940 0.42430 0.17610 0.04100
H 	H 	0.94200 0.22650 0.10670 0.02400
H 	H 	0.71140 0.22110 0.14820 0.04500
C 	C 	0.01560 0.24280 0.57242 0.38100
C 	C 	0.51750 0.25578 0.48192 0.44200
C 	C 	0.98030 0.00860 0.89301 0.01200
C 	C 	0.81960 0.89377 0.85088 0.43800
C 	C 	0.00120 0.14777 0.78516 0.37300
C 	C 	0.80370 0.66301 0.81370 0.43800
C 	C 	0.86590 0.24538 0.56711 -0.11700
C 	C 	0.84250 0.58146 0.78406 -0.13200
C 	C 	0.97480 0.37095 0.77520 0.45300
C 	C 	0.88960 0.96825 0.84965 -0.13200
C 	C 	0.91740 0.44546 0.76677 -0.12200
C 	C 	0.97020 0.08752 0.82094 -0.10800
C 	C 	0.63440 0.24918 0.52433 -0.14800
C 	C 	0.02680 0.07725 0.87697 -0.01500
C 	C 	0.81120 0.53920 0.72415 0.01300
C 	C 	0.85420 0.46099 0.71427 -0.01100
C 	C 	0.63620 0.23411 0.58425 0.01100
C 	C 	0.76920 0.23137 0.60835 -0.01000
C 	C 	0.51560 0.75720 0.92758 0.38300
C 	C 	0.01750 0.74422 0.01808 0.44400
C 	C 	0.48030 0.99140 0.60699 -0.00600
C 	C 	0.31960 0.10623 0.64912 0.43500
C 	C 	0.50120 0.85223 0.71484 0.38300
C 	C 	0.30370 0.33699 0.68630 0.43800
C 	C 	0.36590 0.75462 0.93289 -0.12000
C 	C 	0.34250 0.41854 0.71594 -0.13200
C 	C 	0.47480 0.62905 0.72480 0.45100
C 	C 	0.38960 0.03175 0.65035 -0.12300
C 	C 	0.41740 0.55454 0.73323 -0.12200
C 	C 	0.47020 0.91248 0.67906 -0.11900
C 	C 	0.13440 0.75082 0.97567 -0.14900
C 	C 	0.52680 0.92275 0.62303 0.00300
C 	C 	0.31120 0.46080 0.77585 0.01300
C 	C 	0.35420 0.53901 0.78573 -0.01200
C 	C 	0.13620 0.76589 0.91575 0.01100
C 	C 	0.26920 0.76863 0.89165 -0.00900
C 	C 	0.98440 0.75720 0.42758 0.38100
C 	C 	0.48250 0.74422 0.51808 0.44200
C 	C 	0.01970 0.99140 0.10699 0.01200
C 	C 	0.18040 0.10623 0.14912 0.43800
C 	C 	0.99880 0.85223 0.21484 0.37300
C 	C 	0.19630 0.33699 0.18630 0.43800
C 	C 	0.13410 0.75462 0.43289 -0.11700
C 	C 	0.15750 0.41854 0.21594 -0.13200
C 	C 	0.02520 0.62905 0.22480 0.45300
C 	C 	0.11040 0.03175 0.15035 -0.13200
C 	C 	0.08260 0.55454 0.23323 -0.12200
C 	C 	0.02980 0.91248 0.17906 -0.10800
C 	C 	0.36560 0.75082 0.47567 -0.14800
C 	C 	0.97320 0.92275 0.12303 -0.01500
C 	C 	0.18880 0.46080 0.27585 0.01300
C 	C 	0.14580 0.53901 0.28573 -0.01100
C 	C 	0.36380 0.76589 0.41575 0.01100
C 	C 	0.23080 0.76863 0.39165 -0.01000
C 	C 	0.48440 0.24280 0.07242 0.38300
C 	C 	0.98250 0.25578 0.98192 0.44400
C 	C 	0.51970 0.00860 0.39301 -0.00600
C 	C 	0.68040 0.89377 0.35088 0.43500
C 	C 	0.49880 0.14777 0.28516 0.38300
C 	C 	0.69630 0.66301 0.31370 0.43800
C 	C 	0.63410 0.24538 0.06711 -0.12000
C 	C 	0.65750 0.58146 0.28406 -0.13200
C 	C 	0.52520 0.37095 0.27520 0.45100
C 	C 	0.61040 0.96825 0.34965 -0.12300
C 	C 	0.58260 0.44546 0.26677 -0.12200
C 	C 	0.52980 0.08752 0.32094 -0.11900
C 	C 	0.86560 0.24918 0.02433 -0.14900
C 	C 	0.47320 0.07725 0.37697 0.00300
C 	C 	0.68880 0.53920 0.22415 0.01300
C 	C 	0.64580 0.46099 0.21427 -0.01200
C 	C 	0.86380 0.23411 0.08425 0.01100
C 	C 	0.73080 0.23137 0.10835 -0.00900
S 	S 	0.85970 0.01373 0.78801 0.08500
S 	S 	0.92600 0.52667 0.82895 0.05600
S 	S 	0.79557 0.26170 0.49790 0.06500
S 	S 	0.35970 0.98627 0.71199 0.08300
S 	S 	0.42600 0.47333 0.67105 0.05500
S 	S 	0.29557 0.73830 0.00210 0.06600
S 	S 	0.14030 0.98627 0.21199 0.08500
S 	S 	0.07400 0.47333 0.17105 0.05600
S 	S 	0.20443 0.73830 0.50210 0.06500
S 	S 	0.64030 0.01373 0.28801 0.08300
S 	S 	0.57400 0.52667 0.32895 0.05500
S 	S 	0.70443 0.26170 0.99790 0.06600
O 	O 	0.08721 0.20085 0.80823 -0.63400
O 	O 	0.85678 0.86036 0.89385 -0.54600
O 	O 	0.96810 0.31409 0.72811 -0.50400
O 	O 	0.75361 0.70163 0.77657 -0.55100
O 	O 	0.02590 0.37106 0.82926 -0.59200
O 	O 	0.94947 0.14286 0.73077 -0.42400
O 	O 	0.72974 0.87166 0.80898 -0.49600
O 	O 	0.82100 0.68613 0.87335 -0.51500
O 	O 	0.39911 0.24046 0.49776 -0.60700
O 	O 	0.54388 0.27643 0.43060 -0.54000
O 	O 	0.06944 0.20985 0.61344 -0.62500
O 	O 	0.08746 0.26717 0.53306 -0.48600
O 	O 	0.58721 0.79915 0.69177 -0.63600
O 	O 	0.35678 0.13964 0.60615 -0.54500
O 	O 	0.46810 0.68591 0.77189 -0.50400
O 	O 	0.25361 0.29837 0.72343 -0.55100
O 	O 	0.52590 0.62894 0.67074 -0.59000
O 	O 	0.44947 0.85714 0.76923 -0.42800
O 	O 	0.22974 0.12834 0.69102 -0.49500
O 	O 	0.32100 0.31387 0.62665 -0.51500
O 	O 	0.89911 0.75954 0.00224 -0.60900
O 	O 	0.04388 0.72357 0.06940 -0.53900
O 	O 	0.56944 0.79015 0.88656 -0.62500
O 	O 	0.58746 0.73283 0.96694 -0.48600
O 	O 	0.91279 0.79915 0.19177 -0.63400
O 	O 	0.14322 0.13964 0.10615 -0.54600
O 	O 	0.03190 0.68591 0.27189 -0.50400
O 	O 	0.24639 0.29837 0.22343 -0.55100
O 	O 	0.97410 0.62894 0.17074 -0.59200
O 	O 	0.05053 0.85714 0.26923 -0.42400
O 	O 	0.27026 0.12834 0.19102 -0.49600
O 	O 	0.17900 0.31387 0.12665 -0.51500
O 	O 	0.60089 0.75954 0.50224 -0.60700
O 	O 	0.45612 0.72357 0.56940 -0.54000
O 	O 	0.93056 0.79015 0.38656 -0.62500
O 	O 	0.91254 0.73283 0.46694 -0.48600
O 	O 	0.41279 0.20085 0.30823 -0.63600
O 	O 	0.64322 0.86036 0.39385 -0.54500
O 	O 	0.53190 0.31409 0.22811 -0.50400
O 	O 	0.74639 0.70163 0.27657 -0.55100
O 	O 	0.47410 0.37106 0.32926 -0.59000
O 	O 	0.55053 0.14286 0.23077 -0.42800
O 	O 	0.77026 0.87166 0.30898 -0.49500
O 	O 	0.67900 0.68613 0.37335 -0.51500
O 	O 	0.10089 0.24046 0.99776 -0.60900
O 	O 	0.95612 0.27643 0.93060 -0.53900
O 	O 	0.43056 0.20985 0.11344 -0.62500
O 	O 	0.41254 0.26717 0.03306 -0.48600
