data_crystal

_cell_length_a 11.06440
_cell_length_b 13.98900
_cell_length_c 18.38660
_cell_angle_alpha 90.00000
_cell_angle_beta  103.38100
_cell_angle_gamma 90.00000

_symmetry_space_group_name_	'P 1'
_symmetry_space_group_name_H-M	'P 1'

loop_
_symmetry_equiv_pos_as_xyz
  x,y,z

loop_
_atom_site_label
_atom_site_type_symbol
_atom_site_fract_x
_atom_site_fract_y
_atom_site_fract_z
_atom_site_charge
V 	V 	0.97910 0.22070 0.27505 1.44600
V 	V 	0.21977 0.46372 0.22693 1.46100
P 	P 	0.25030 0.31043 0.35998 0.53900
P 	P 	0.74095 0.16729 0.14219 0.55100
P 	P 	0.03491 0.43901 0.33747 0.37600
P 	P 	0.95681 0.03978 0.16414 0.56400
F 	F 	0.60990 0.25260 0.43305 -0.63000
F 	F 	0.38600 0.22641 0.06401 -0.65200
O 	O 	0.35290 0.25610 0.41243 -0.47600
O 	O 	0.30330 0.37962 0.31007 -0.66600
O 	O 	0.09940 0.49788 0.28622 -0.66500
O 	O 	0.95760 0.50130 0.37574 -0.13600
O 	O 	0.95790 0.35838 0.29108 -0.56700
O 	O 	0.16220 0.23777 0.31203 -0.68700
O 	O 	0.03150 0.11850 0.21339 -0.70000
O 	O 	0.82710 0.23723 0.19486 -0.61300
O 	O 	0.03700 0.98019 0.12610 -0.25400
O 	O 	0.88960 0.97760 0.21187 -0.47000
O 	O 	0.68300 0.09522 0.18737 -0.68000
O 	O 	0.64220 0.22510 0.08990 -0.48300
O 	O 	0.14740 0.39420 0.16281 -0.52300
C 	C 	0.15880 0.38290 0.40670 -0.55400
H 	H 	0.21060 0.43160 0.43610 0.15100
H 	H 	0.12370 0.34380 0.44020 0.14900
C 	C 	0.83780 0.09920 0.09490 -0.55600
H 	H 	0.87570 0.14130 0.06460 0.19000
H 	H 	0.78800 0.05230 0.06220 0.14200
O 	O 	0.39600 0.57860 0.28020 -0.73900
O 	O 	0.06700 0.31100 0.16030 -0.50400
V 	V 	0.01550 0.25700 0.22730 1.40300
V 	V 	0.27380 0.51440 0.27350 1.45100
V 	V 	0.47910 0.72070 0.27505 1.40400
V 	V 	0.71977 0.96372 0.22693 1.49000
P 	P 	0.75030 0.81043 0.35998 0.55200
P 	P 	0.24095 0.66729 0.14219 0.54800
P 	P 	0.53491 0.93901 0.33747 0.58300
P 	P 	0.45681 0.53978 0.16414 0.54900
F 	F 	0.10990 0.75260 0.43305 -0.64800
F 	F 	0.88600 0.72641 0.06401 -0.58900
O 	O 	0.85290 0.75610 0.41243 -0.42400
O 	O 	0.80330 0.87962 0.31007 -0.63100
O 	O 	0.59940 0.99788 0.28622 -0.62200
O 	O 	0.45760 0.00130 0.37574 -0.31400
O 	O 	0.45790 0.85838 0.29108 -0.65800
O 	O 	0.66220 0.73777 0.31203 -0.65300
O 	O 	0.53150 0.61850 0.21339 -0.60600
O 	O 	0.32710 0.73723 0.19486 -0.63400
O 	O 	0.53700 0.48019 0.12610 -0.23900
O 	O 	0.38960 0.47760 0.21187 -0.56500
O 	O 	0.18300 0.59522 0.18737 -0.66000
O 	O 	0.14220 0.72510 0.08990 -0.49900
O 	O 	0.64740 0.89420 0.16281 -0.48700
C 	C 	0.65880 0.88290 0.40670 -0.60100
H 	H 	0.71060 0.93160 0.43610 0.20400
H 	H 	0.62370 0.84380 0.44020 0.20100
C 	C 	0.33780 0.59920 0.09490 -0.55300
H 	H 	0.37570 0.64130 0.06460 0.17300
H 	H 	0.28800 0.55230 0.06220 0.15300
O 	O 	0.89600 0.07860 0.28020 -0.74400
O 	O 	0.56700 0.81100 0.16030 -0.46400
V 	V 	0.51550 0.75700 0.22730 1.44200
V 	V 	0.77380 0.01440 0.27350 1.40800
V 	V 	0.02090 0.22070 0.72495 1.36100
V 	V 	0.78023 0.46372 0.77307 1.46700
P 	P 	0.74970 0.31043 0.64002 0.55300
P 	P 	0.25905 0.16729 0.85781 0.55800
P 	P 	0.96509 0.43901 0.66253 0.65500
P 	P 	0.04319 0.03978 0.83586 0.31700
F 	F 	0.39010 0.25260 0.56695 -0.63900
F 	F 	0.61400 0.22641 0.93599 -0.52800
O 	O 	0.64710 0.25610 0.58757 -0.47000
O 	O 	0.69670 0.37962 0.68993 -0.66600
O 	O 	0.90060 0.49788 0.71378 -0.64400
O 	O 	0.04240 0.50130 0.62426 -0.31800
O 	O 	0.04210 0.35838 0.70892 -0.74300
O 	O 	0.83780 0.23777 0.68797 -0.64100
O 	O 	0.96850 0.11850 0.78661 -0.51300
O 	O 	0.17290 0.23723 0.80514 -0.64300
O 	O 	0.96300 0.98019 0.87390 -0.01000
O 	O 	0.11040 0.97760 0.78813 -0.48000
O 	O 	0.31700 0.09522 0.81263 -0.66000
O 	O 	0.35780 0.22510 0.91010 -0.39800
O 	O 	0.85260 0.39420 0.83719 -0.46100
C 	C 	0.84120 0.38290 0.59330 -0.60700
H 	H 	0.78940 0.43160 0.56390 0.18100
H 	H 	0.87630 0.34380 0.55980 0.21000
C 	C 	0.16220 0.09920 0.90510 -0.54300
H 	H 	0.12430 0.14130 0.93540 0.21100
H 	H 	0.21200 0.05230 0.93780 0.19500
O 	O 	0.60400 0.57860 0.71980 -0.73700
O 	O 	0.93300 0.31100 0.83970 -0.40400
V 	V 	0.98450 0.25700 0.77270 1.48100
V 	V 	0.72620 0.51440 0.72650 1.45300
V 	V 	0.52090 0.72070 0.72495 1.40500
V 	V 	0.28023 0.96372 0.77307 1.48900
P 	P 	0.24970 0.81043 0.64002 0.54800
P 	P 	0.75905 0.66729 0.85781 0.57300
P 	P 	0.46509 0.93901 0.66253 0.58100
P 	P 	0.54319 0.53978 0.83586 0.56800
F 	F 	0.89010 0.75260 0.56695 -0.57400
F 	F 	0.11400 0.72641 0.93599 -0.54700
O 	O 	0.14710 0.75610 0.58757 -0.48400
O 	O 	0.19670 0.87962 0.68993 -0.66400
O 	O 	0.40060 0.99788 0.71378 -0.61800
O 	O 	0.54240 0.00130 0.62426 -0.30200
O 	O 	0.54210 0.85838 0.70892 -0.64200
O 	O 	0.33780 0.73777 0.68797 -0.65900
O 	O 	0.46850 0.61850 0.78661 -0.60400
O 	O 	0.67290 0.73723 0.80514 -0.61000
O 	O 	0.46300 0.48019 0.87390 -0.18300
O 	O 	0.61040 0.47760 0.78813 -0.55800
O 	O 	0.81700 0.59522 0.81263 -0.61000
O 	O 	0.85780 0.72510 0.91010 -0.35000
O 	O 	0.35260 0.89420 0.83719 -0.45900
C 	C 	0.34120 0.88290 0.59330 -0.59600
H 	H 	0.28940 0.93160 0.56390 0.18400
H 	H 	0.37630 0.84380 0.55980 0.19600
C 	C 	0.66220 0.59920 0.90510 -0.59600
H 	H 	0.62430 0.64130 0.93540 0.26200
H 	H 	0.71200 0.55230 0.93780 0.25100
O 	O 	0.10400 0.07860 0.71980 -0.80000
O 	O 	0.43300 0.81100 0.83970 -0.42700
V 	V 	0.48450 0.75700 0.77270 1.44500
V 	V 	0.22620 0.01440 0.72650 1.40800
V 	V 	0.50000 0.27460 0.50000 1.75400
V 	V 	0.00000 0.77460 0.50000 1.72200
V 	V 	0.50000 0.20429 -0.00000 1.70300
V 	V 	-0.00000 0.70429 -0.00000 1.67300
