data_crystal

_cell_length_a 10.11080
_cell_length_b 10.81100
_cell_length_c 13.74090
_cell_angle_alpha 79.13900
_cell_angle_beta  78.74500
_cell_angle_gamma 86.21900

_symmetry_space_group_name_	'P 1'
_symmetry_space_group_name_H-M	'P 1'

loop_
_symmetry_equiv_pos_as_xyz
  x,y,z

loop_
_atom_site_label
_atom_site_type_symbol
_atom_site_fract_x
_atom_site_fract_y
_atom_site_fract_z
_atom_site_charge
Dy	Dy	0.18189 0.07745 0.20323 1.68300
Dy	Dy	0.81811 0.92255 0.79677 1.75900
Co	Co	0.50000 0.50000 -0.00000 1.07600
H 	H 	0.17250 0.32970 0.34660 0.06600
H 	H 	0.15340 0.67170 0.42400 0.09700
H 	H 	0.21790 0.64060 0.13180 0.01100
H 	H 	0.14430 0.54550 0.75800 0.08300
H 	H 	0.13450 0.42770 0.91570 0.04400
H 	H 	0.14500 0.11830 0.81120 0.02300
H 	H 	0.15480 0.22520 0.64980 0.06300
H 	H 	0.80610 0.14690 0.46250 0.11200
H 	H 	0.41090 0.16000 0.45970 0.10500
H 	H 	0.67630 0.08650 0.21770 0.04800
H 	H 	0.49120 0.52270 0.62990 0.10800
H 	H 	0.48770 0.59290 0.77750 -0.01000
H 	H 	0.46660 0.25090 0.92930 -0.00300
H 	H 	0.48080 0.16960 0.78450 0.07000
H 	H 	0.12090 0.35360 0.51840 0.13900
H 	H 	0.61880 0.15710 0.61840 0.15700
H 	H 	0.82750 0.67030 0.65340 0.07100
H 	H 	0.84660 0.32830 0.57600 0.10200
H 	H 	0.78210 0.35940 0.86820 0.04200
H 	H 	0.85570 0.45450 0.24200 0.08000
H 	H 	0.86550 0.57230 0.08430 -0.00300
H 	H 	0.85500 0.88170 0.18880 0.01000
H 	H 	0.84520 0.77480 0.35020 0.06700
H 	H 	0.19390 0.85310 0.53750 0.11500
H 	H 	0.58910 0.84000 0.54030 0.10900
H 	H 	0.32370 0.91350 0.78230 0.07000
H 	H 	0.50880 0.47730 0.37010 0.11000
H 	H 	0.51230 0.40710 0.22250 -0.02300
H 	H 	0.53340 0.74910 0.07070 -0.05100
H 	H 	0.51920 0.83040 0.21550 0.06600
H 	H 	0.87910 0.64640 0.48160 0.14000
H 	H 	0.38120 0.84290 0.38160 0.15800
C 	C 	0.20080 0.47270 0.22700 -0.12300
C 	C 	0.17800 0.41680 0.32850 -0.06000
C 	C 	0.16350 0.49010 0.40300 0.12600
C 	C 	0.16500 0.62130 0.37490 -0.09000
C 	C 	0.18370 0.67530 0.27450 -0.06000
C 	C 	0.20330 0.60270 0.19950 0.02600
C 	C 	0.18720 0.81460 0.24720 0.31600
C 	C 	0.23240 0.39290 0.14660 0.44800
C 	C 	0.16520 0.48270 0.58190 0.22500
C 	C 	0.15170 0.39970 0.68440 0.00800
C 	C 	0.14500 0.45810 0.76670 -0.08600
C 	C 	0.13920 0.38650 0.86150 0.05800
C 	C 	0.14530 0.20590 0.79990 0.05900
C 	C 	0.15120 0.26910 0.70240 -0.08900
C 	C 	0.76340 0.11360 0.33160 -0.02000
C 	C 	0.73560 0.14160 0.42900 -0.12100
C 	C 	0.60470 0.16130 0.47550 0.16600
C 	C 	0.49960 0.14890 0.42760 -0.12400
C 	C 	0.52660 0.11970 0.33100 -0.02400
C 	C 	0.65840 0.10380 0.28280 -0.04200
C 	C 	0.90860 0.09830 0.28350 0.30900
C 	C 	0.40880 0.10870 0.28270 0.29000
C 	C 	0.49580 0.29450 0.59130 0.20800
C 	C 	0.49020 0.33820 0.69040 0.02900
C 	C 	0.48930 0.46530 0.68980 -0.11500
C 	C 	0.48560 0.50670 0.77910 0.08000
C 	C 	0.47470 0.30610 0.86790 0.07800
C 	C 	0.48170 0.25620 0.78140 -0.11100
C 	C 	0.79920 0.52730 0.77300 -0.10000
C 	C 	0.82200 0.58320 0.67150 -0.07300
C 	C 	0.83650 0.50990 0.59700 0.13600
C 	C 	0.83500 0.37870 0.62510 -0.10200
C 	C 	0.81630 0.32470 0.72550 -0.04100
C 	C 	0.79670 0.39730 0.80050 0.00600
C 	C 	0.81280 0.18540 0.75280 0.30600
C 	C 	0.76760 0.60710 0.85340 0.43800
C 	C 	0.83480 0.51730 0.41810 0.22400
C 	C 	0.84830 0.60030 0.31560 0.01400
C 	C 	0.85500 0.54190 0.23330 -0.09900
C 	C 	0.86080 0.61350 0.13850 0.06500
C 	C 	0.85470 0.79410 0.20010 0.06200
C 	C 	0.84880 0.73090 0.29760 -0.09500
C 	C 	0.23660 0.88640 0.66840 -0.00500
C 	C 	0.26440 0.85840 0.57100 -0.13000
C 	C 	0.39530 0.83870 0.52450 0.17400
C 	C 	0.50040 0.85110 0.57240 -0.13300
C 	C 	0.47340 0.88030 0.66900 -0.00800
C 	C 	0.34160 0.89620 0.71720 -0.05500
C 	C 	0.09140 0.90170 0.71650 0.30100
C 	C 	0.59120 0.89130 0.71730 0.28200
C 	C 	0.50420 0.70550 0.40870 0.20600
C 	C 	0.50980 0.66180 0.30960 0.03500
C 	C 	0.51070 0.53470 0.31020 -0.12200
C 	C 	0.51440 0.49330 0.22090 0.08300
C 	C 	0.52530 0.69390 0.13210 0.08200
C 	C 	0.51830 0.74380 0.21860 -0.12500
N 	N 	0.14610 0.43040 0.50450 -0.23700
N 	N 	0.14000 0.26170 0.87910 -0.11900
N 	N 	0.57920 0.19820 0.57160 -0.24800
N 	N 	0.47900 0.42910 0.86790 -0.22700
N 	N 	0.85390 0.56960 0.49550 -0.23800
N 	N 	0.86000 0.73830 0.12090 -0.15000
N 	N 	0.42080 0.80180 0.42840 -0.24900
N 	N 	0.52100 0.57090 0.13210 -0.25700
O 	O 	0.30690 0.43510 0.06510 -0.51000
O 	O 	0.18010 0.28650 0.16540 -0.52200
O 	O 	0.17080 0.87170 0.16180 -0.43300
O 	O 	0.20720 0.87820 0.31070 -0.39600
O 	O 	0.19210 0.59180 0.57440 -0.22900
O 	O 	0.94270 0.09880 0.19060 -0.40500
O 	O 	0.99760 0.08420 0.33640 -0.38500
O 	O 	0.42650 0.09330 0.19080 -0.42300
O 	O 	0.29170 0.11510 0.33220 -0.38900
O 	O 	0.42400 0.35110 0.53310 -0.22000
O 	O 	0.69310 0.56490 0.93490 -0.43400
O 	O 	0.81990 0.71350 0.83460 -0.49800
O 	O 	0.82920 0.12830 0.83820 -0.40500
O 	O 	0.79280 0.12180 0.68930 -0.39800
O 	O 	0.80790 0.40820 0.42560 -0.22900
O 	O 	0.05730 0.90120 0.80940 -0.38200
O 	O 	0.00240 0.91580 0.66360 -0.39200
O 	O 	0.57350 0.90670 0.80920 -0.39500
O 	O 	0.70830 0.88490 0.66780 -0.39100
O 	O 	0.57600 0.64890 0.46690 -0.22000
