data_crystal

_cell_length_a 10.06810
_cell_length_b 10.74540
_cell_length_c 13.70730
_cell_angle_alpha 79.16100
_cell_angle_beta  78.81200
_cell_angle_gamma 86.56800

_symmetry_space_group_name_	'P 1'
_symmetry_space_group_name_H-M	'P 1'

loop_
_symmetry_equiv_pos_as_xyz
  x,y,z

loop_
_atom_site_label
_atom_site_type_symbol
_atom_site_fract_x
_atom_site_fract_y
_atom_site_fract_z
_atom_site_charge
Yb	Yb	0.31943 0.92217 0.79567 1.53600
Yb	Yb	0.68057 0.07783 0.20433 1.51600
Co	Co	1.00000 0.50000 -0.00000 1.06300
H 	H 	0.28090 0.35960 0.86870 0.05400
H 	H 	0.34730 0.32680 0.57540 0.10800
H 	H 	0.32880 0.67050 0.65150 0.08700
H 	H 	0.35610 0.45040 0.24040 0.08100
H 	H 	0.36520 0.56830 0.08260 -0.00100
H 	H 	0.35430 0.88030 0.18520 0.01900
H 	H 	0.34660 0.77320 0.34820 0.07000
H 	H 	0.82240 0.91410 0.78420 0.04700
H 	H 	0.69340 0.85700 0.53730 0.10000
H 	H 	0.09090 0.84070 0.54310 0.07100
H 	H 	0.00720 0.47630 0.37070 0.11800
H 	H 	0.01510 0.40720 0.22170 -0.01500
H 	H 	0.03370 0.75180 0.07060 -0.03600
H 	H 	0.01750 0.83220 0.21520 0.07700
H 	H 	0.38080 0.64600 0.48030 0.14400
H 	H 	0.88070 0.84620 0.38180 0.15300
H 	H 	0.71910 0.64040 0.13130 0.01800
H 	H 	0.65270 0.67320 0.42460 0.10400
H 	H 	0.67120 0.32950 0.34850 0.07900
H 	H 	0.64390 0.54960 0.75960 0.08400
H 	H 	0.63480 0.43170 0.91740 0.04700
H 	H 	0.64570 0.11970 0.81480 0.03300
H 	H 	0.65340 0.22680 0.65180 0.06400
H 	H 	0.17760 0.08590 0.21580 0.08400
H 	H 	0.30660 0.14300 0.46270 0.13700
H 	H 	0.90910 0.15930 0.45690 0.15400
H 	H 	0.99280 0.52370 0.62930 0.10100
H 	H 	0.98490 0.59280 0.77830 -0.01600
H 	H 	0.96630 0.24820 0.92940 -0.00100
H 	H 	0.98250 0.16780 0.78480 0.06800
H 	H 	0.61920 0.35400 0.51970 0.14100
H 	H 	0.11930 0.15380 0.61820 0.16500
C 	C 	0.30030 0.52770 0.77210 -0.06300
C 	C 	0.29640 0.39720 0.80080 -0.01200
C 	C 	0.31640 0.32310 0.72530 -0.02200
C 	C 	0.33520 0.37780 0.62440 -0.11800
C 	C 	0.33610 0.50870 0.59590 0.15700
C 	C 	0.32270 0.58290 0.67010 -0.09900
C 	C 	0.31210 0.18220 0.75230 0.29200
C 	C 	0.26900 0.60910 0.85200 0.38800
C 	C 	0.33180 0.51600 0.41680 0.22400
C 	C 	0.34850 0.59880 0.31450 0.01200
C 	C 	0.35550 0.53840 0.23140 -0.09700
C 	C 	0.36130 0.61010 0.13670 0.06400
C 	C 	0.35520 0.79220 0.19690 0.05700
C 	C 	0.34960 0.72860 0.29590 -0.09000
C 	C 	0.09370 0.89150 0.71910 0.32900
C 	C 	0.97370 0.88090 0.67060 -0.11700
C 	C 	0.84060 0.89690 0.71880 0.01300
C 	C 	0.73690 0.88750 0.67020 -0.04900
C 	C 	0.76410 0.86050 0.57130 -0.07900
C 	C 	0.89480 0.83940 0.52570 0.09500
C 	C 	0.00170 0.85190 0.57480 0.00200
C 	C 	0.59080 0.90310 0.71670 0.29800
C 	C 	0.00570 0.70680 0.40890 0.22800
C 	C 	0.00860 0.66450 0.31020 0.03600
C 	C 	0.00990 0.53430 0.31080 -0.11900
C 	C 	0.01530 0.49400 0.22070 0.09400
C 	C 	0.02500 0.69620 0.13210 0.08200
C 	C 	0.01710 0.74500 0.21850 -0.11800
C 	C 	0.69970 0.47230 0.22790 -0.09500
C 	C 	0.70360 0.60280 0.19920 0.00400
C 	C 	0.68360 0.67690 0.27470 -0.04700
C 	C 	0.66480 0.62220 0.37560 -0.10900
C 	C 	0.66390 0.49130 0.40410 0.14100
C 	C 	0.67730 0.41710 0.32990 -0.08700
C 	C 	0.68790 0.81780 0.24770 0.29700
C 	C 	0.73100 0.39090 0.14800 0.40000
C 	C 	0.66820 0.48400 0.58320 0.22300
C 	C 	0.65150 0.40120 0.68550 0.00700
C 	C 	0.64450 0.46160 0.76860 -0.08300
C 	C 	0.63870 0.38990 0.86330 0.05800
C 	C 	0.64480 0.20780 0.80310 0.05500
C 	C 	0.65040 0.27140 0.70410 -0.08300
C 	C 	0.90630 0.10850 0.28090 0.21700
C 	C 	0.02630 0.11910 0.32940 0.11000
C 	C 	0.15940 0.10310 0.28120 -0.12600
C 	C 	0.26310 0.11250 0.32980 0.04100
C 	C 	0.23590 0.13950 0.42870 -0.19100
C 	C 	0.10520 0.16060 0.47430 0.26000
C 	C 	0.99830 0.14810 0.42520 -0.27800
C 	C 	0.40920 0.09690 0.28330 0.27000
C 	C 	0.99430 0.29320 0.59110 0.18500
C 	C 	0.99140 0.33550 0.68980 0.02500
C 	C 	0.99010 0.46570 0.68920 -0.11900
C 	C 	0.98470 0.50600 0.77930 0.08100
C 	C 	0.97500 0.30380 0.86790 0.06900
C 	C 	0.98290 0.25500 0.78150 -0.11400
N 	N 	0.35380 0.56910 0.49450 -0.24000
N 	N 	0.36170 0.73550 0.11830 -0.14400
N 	N 	0.92030 0.80450 0.42860 -0.24900
N 	N 	0.02070 0.57080 0.13270 -0.24900
N 	N 	0.64620 0.43090 0.50550 -0.23900
N 	N 	0.63830 0.26450 0.88170 -0.11300
N 	N 	0.07970 0.19550 0.57140 -0.24500
N 	N 	0.97930 0.42920 0.86730 -0.23000
O 	O 	0.19360 0.56840 0.93320 -0.41000
O 	O 	0.32450 0.71660 0.83040 -0.44000
O 	O 	0.29350 0.11790 0.68940 -0.37700
O 	O 	0.32920 0.12540 0.83840 -0.37400
O 	O 	0.30570 0.40570 0.42520 -0.22700
O 	O 	0.20960 0.88370 0.66940 -0.37800
O 	O 	0.07640 0.90800 0.81070 -0.37400
O 	O 	0.55620 0.90330 0.81100 -0.35600
O 	O 	0.50110 0.91670 0.66470 -0.36900
O 	O 	0.07730 0.65150 0.46720 -0.21600
O 	O 	0.80640 0.43160 0.06680 -0.49900
O 	O 	0.67550 0.28340 0.16960 -0.47300
O 	O 	0.70650 0.88210 0.31060 -0.38100
O 	O 	0.67080 0.87460 0.16160 -0.41000
O 	O 	0.69430 0.59430 0.57480 -0.23000
O 	O 	0.79040 0.11630 0.33060 -0.35600
O 	O 	0.92360 0.09200 0.18930 -0.40300
O 	O 	0.44380 0.09670 0.18900 -0.38000
O 	O 	0.49890 0.08330 0.33530 -0.36400
O 	O 	0.92270 0.34850 0.53280 -0.22700
