data_crystal

_cell_length_a 10.11600
_cell_length_b 10.81800
_cell_length_c 13.73100
_cell_angle_alpha 79.14300
_cell_angle_beta  78.79300
_cell_angle_gamma 86.29600

_symmetry_space_group_name_	'P 1'
_symmetry_space_group_name_H-M	'P 1'

loop_
_symmetry_equiv_pos_as_xyz
  x,y,z

loop_
_atom_site_label
_atom_site_type_symbol
_atom_site_fract_x
_atom_site_fract_y
_atom_site_fract_z
_atom_site_charge
Tb	Tb	0.31899 0.92252 0.29687 1.78900
Tb	Tb	0.68101 0.07748 0.70313 1.79700
Co	Co	-0.00000 0.50000 0.50000 1.09900
H 	H 	0.32740 0.66960 0.15300 0.06200
H 	H 	0.34650 0.32880 0.07660 0.09600
H 	H 	0.28150 0.36040 0.36810 0.01900
H 	H 	0.34570 0.77370 0.85090 0.06600
H 	H 	0.35340 0.88120 0.68990 0.01600
H 	H 	0.36530 0.57180 0.58510 0.01900
H 	H 	0.35690 0.45440 0.74270 0.08000
H 	H 	0.82330 0.91380 0.28140 0.09200
H 	H 	0.08950 0.83880 0.04080 0.15100
H 	H 	0.69520 0.85340 0.03640 0.13100
H 	H 	0.01710 0.82920 0.71590 0.06000
H 	H 	0.03280 0.74910 0.57130 -0.03700
H 	H 	0.01400 0.40720 0.72300 -0.02400
H 	H 	0.00840 0.47730 0.87080 0.10400
H 	H 	0.37940 0.64580 0.98220 0.14000
H 	H 	0.88130 0.84280 0.88070 0.16300
H 	H 	0.67260 0.33040 0.84700 0.07100
H 	H 	0.65350 0.67120 0.92340 0.10300
H 	H 	0.71850 0.63960 0.63190 0.02800
H 	H 	0.65430 0.22630 0.14910 0.06600
H 	H 	0.64660 0.11880 0.31010 0.01600
H 	H 	0.63470 0.42820 0.41490 0.02000
H 	H 	0.64310 0.54560 0.25730 0.08100
H 	H 	0.17670 0.08620 0.71860 0.02800
H 	H 	0.91050 0.16120 0.95920 0.06300
H 	H 	0.30480 0.14660 0.96360 0.09300
H 	H 	0.98290 0.17080 0.28410 0.07200
H 	H 	0.96720 0.25090 0.42870 -0.02500
H 	H 	0.98600 0.59280 0.27700 -0.01000
H 	H 	0.99160 0.52270 0.12920 0.11600
H 	H 	0.62060 0.35420 0.01780 0.14000
H 	H 	0.11870 0.15720 0.11930 0.14900
C 	C 	0.29840 0.52770 0.27320 -0.12700
C 	C 	0.32170 0.58260 0.17140 -0.05900
C 	C 	0.33640 0.50960 0.09750 0.11900
C 	C 	0.33480 0.37920 0.12570 -0.09200
C 	C 	0.31590 0.32490 0.22630 -0.06100
C 	C 	0.29620 0.39810 0.30040 0.02300
C 	C 	0.31270 0.18490 0.25280 0.31800
C 	C 	0.26730 0.60600 0.35380 0.45100
C 	C 	0.33390 0.51780 0.91810 0.22200
C 	C 	0.34790 0.59970 0.81610 0.01000
C 	C 	0.34860 0.73010 0.79820 -0.09200
C 	C 	0.35380 0.79370 0.70090 0.06200
C 	C 	0.36060 0.61300 0.63940 0.06000
C 	C 	0.35540 0.54180 0.73410 -0.09200
C 	C 	0.73750 0.88580 0.16810 0.04300
C 	C 	0.84140 0.89610 0.21640 -0.12900
C 	C 	0.97410 0.88000 0.16830 0.11500
C 	C 	0.00080 0.85040 0.07270 -0.28200
C 	C 	0.89580 0.83780 0.02420 0.25400
C 	C 	0.76540 0.85810 0.07020 -0.18800
C 	C 	0.59290 0.90190 0.21500 0.27900
C 	C 	0.09110 0.89060 0.21760 0.22100
C 	C 	0.00590 0.70500 0.90780 0.18100
C 	C 	0.00950 0.66170 0.80970 0.03200
C 	C 	0.01700 0.74260 0.71890 -0.12600
C 	C 	0.02460 0.69360 0.63270 0.07700
C 	C 	0.01500 0.49340 0.72140 0.07800
C 	C 	0.01060 0.53440 0.81080 -0.12500
C 	C 	0.70160 0.47230 0.72680 -0.11300
C 	C 	0.67830 0.41740 0.82860 -0.06500
C 	C 	0.66360 0.49040 0.90250 0.14200
C 	C 	0.66520 0.62080 0.87430 -0.09800
C 	C 	0.68410 0.67510 0.77370 -0.04600
C 	C 	0.70380 0.60190 0.69960 0.02200
C 	C 	0.68730 0.81510 0.74720 0.32000
C 	C 	0.73270 0.39400 0.64620 0.45000
C 	C 	0.66610 0.48220 0.08190 0.22500
C 	C 	0.65210 0.40030 0.18390 0.01000
C 	C 	0.65140 0.26990 0.20180 -0.09200
C 	C 	0.64620 0.20630 0.29910 0.06300
C 	C 	0.63940 0.38700 0.36060 0.06000
C 	C 	0.64460 0.45820 0.26590 -0.09100
C 	C 	0.26250 0.11420 0.83190 -0.06800
C 	C 	0.15860 0.10390 0.78360 0.03000
C 	C 	0.02590 0.12000 0.83170 -0.14300
C 	C 	0.99920 0.14960 0.92730 0.02400
C 	C 	0.10420 0.16220 0.97580 0.08000
C 	C 	0.23460 0.14190 0.92980 -0.06300
C 	C 	0.40710 0.09810 0.78500 0.31700
C 	C 	0.90890 0.10940 0.78240 0.35200
C 	C 	0.99410 0.29500 0.09220 0.22800
C 	C 	0.99050 0.33830 0.19030 0.03300
C 	C 	0.98300 0.25740 0.28110 -0.11400
C 	C 	0.97540 0.30640 0.36730 0.08400
C 	C 	0.98500 0.50660 0.27860 0.08700
C 	C 	0.98940 0.46560 0.18920 -0.11500
N 	N 	0.35370 0.56920 0.99600 -0.23400
N 	N 	0.35930 0.73840 0.62180 -0.13700
N 	N 	0.92110 0.80180 0.92740 -0.23800
N 	N 	0.02070 0.57040 0.63210 -0.25200
N 	N 	0.64630 0.43080 0.00400 -0.24200
N 	N 	0.64070 0.26160 0.37820 -0.13600
N 	N 	0.07890 0.19820 0.07260 -0.24900
N 	N 	0.97930 0.42960 0.36790 -0.24000
O 	O 	0.19290 0.56440 0.43510 -0.48700
O 	O 	0.32010 0.71260 0.33560 -0.51800
O 	O 	0.32930 0.12900 0.33880 -0.43500
O 	O 	0.29390 0.12280 0.18950 -0.41400
O 	O 	0.30790 0.40830 0.92600 -0.22900
O 	O 	0.55900 0.90110 0.30930 -0.39400
O 	O 	0.50370 0.91590 0.16250 -0.39300
O 	O 	0.07320 0.90520 0.30920 -0.41300
O 	O 	0.20820 0.88540 0.16740 -0.38200
O 	O 	0.07540 0.64870 0.96690 -0.22300
O 	O 	0.80710 0.43560 0.56490 -0.47200
O 	O 	0.67990 0.28740 0.66440 -0.51700
O 	O 	0.67070 0.87100 0.66120 -0.42800
O 	O 	0.70610 0.87720 0.81050 -0.40800
O 	O 	0.69210 0.59170 0.07400 -0.23000
O 	O 	0.44100 0.09890 0.69070 -0.40600
O 	O 	0.49630 0.08410 0.83750 -0.40200
O 	O 	0.92680 0.09480 0.69080 -0.41900
O 	O 	0.79180 0.11460 0.83260 -0.40800
O 	O 	0.92460 0.35130 0.03310 -0.21900
