data_crystal

_cell_length_a 10.05970
_cell_length_b 10.78240
_cell_length_c 13.72610
_cell_angle_alpha 79.14100
_cell_angle_beta  78.80100
_cell_angle_gamma 86.57800

_symmetry_space_group_name_	'P 1'
_symmetry_space_group_name_H-M	'P 1'

loop_
_symmetry_equiv_pos_as_xyz
  x,y,z

loop_
_atom_site_label
_atom_site_type_symbol
_atom_site_fract_x
_atom_site_fract_y
_atom_site_fract_z
_atom_site_charge
Ho	Ho	0.31943 0.92216 0.79566 1.77500
Ho	Ho	0.68057 0.07784 0.20434 1.72100
Co	Co	0.00000 0.50000 -0.00000 1.06200
H 	H 	0.28070 0.35930 0.86850 0.04100
H 	H 	0.34710 0.32700 0.57540 0.10300
H 	H 	0.32910 0.67040 0.65150 0.07400
H 	H 	0.35480 0.45060 0.24000 0.07900
H 	H 	0.36660 0.56900 0.08240 -0.00400
H 	H 	0.35470 0.87950 0.18500 0.01100
H 	H 	0.34640 0.77400 0.34750 0.06700
H 	H 	0.82260 0.91300 0.78460 0.10200
H 	H 	0.69300 0.85600 0.53770 0.13700
H 	H 	0.09140 0.84210 0.54320 0.15400
H 	H 	0.00800 0.47720 0.37060 0.10100
H 	H 	0.01480 0.40710 0.22200 -0.03000
H 	H 	0.03420 0.75150 0.07050 -0.05200
H 	H 	0.01690 0.83210 0.21560 0.05700
H 	H 	0.38040 0.64590 0.48040 0.14000
H 	H 	0.88100 0.84710 0.38240 0.16500
H 	H 	0.71930 0.64070 0.13150 0.01800
H 	H 	0.65290 0.67300 0.42460 0.09900
H 	H 	0.67090 0.32960 0.34850 0.07400
H 	H 	0.64520 0.54940 0.76000 0.08400
H 	H 	0.63340 0.43100 0.91760 0.04400
H 	H 	0.64530 0.12050 0.81500 0.02600
H 	H 	0.65360 0.22600 0.65250 0.06700
H 	H 	0.17740 0.08700 0.21540 0.01900
H 	H 	0.30700 0.14400 0.46230 0.09200
H 	H 	0.90860 0.15790 0.45680 0.06300
H 	H 	0.99200 0.52280 0.62940 0.11400
H 	H 	0.98520 0.59290 0.77800 -0.00400
H 	H 	0.96580 0.24850 0.92950 0.00500
H 	H 	0.98310 0.16790 0.78440 0.07300
H 	H 	0.61960 0.35410 0.51960 0.14100
H 	H 	0.11900 0.15290 0.61760 0.15100
C 	C 	0.30060 0.52810 0.77210 -0.09600
C 	C 	0.29650 0.39680 0.80070 -0.00200
C 	C 	0.31660 0.32300 0.72540 -0.03900
C 	C 	0.33530 0.37770 0.62440 -0.10900
C 	C 	0.33640 0.50870 0.59590 0.13600
C 	C 	0.32300 0.58310 0.67020 -0.07800
C 	C 	0.31250 0.18230 0.75240 0.30300
C 	C 	0.26920 0.60870 0.85190 0.42900
C 	C 	0.33200 0.51610 0.41650 0.21800
C 	C 	0.34910 0.59880 0.31440 0.01200
C 	C 	0.35520 0.53820 0.23110 -0.09900
C 	C 	0.36180 0.61020 0.13680 0.06500
C 	C 	0.35540 0.79170 0.19680 0.06400
C 	C 	0.34970 0.72920 0.29540 -0.09500
C 	C 	0.09340 0.89180 0.71890 0.22000
C 	C 	0.97400 0.88100 0.67040 0.11900
C 	C 	0.84070 0.89650 0.71910 -0.13500
C 	C 	0.73670 0.88750 0.67000 0.05300
C 	C 	0.76380 0.86000 0.57150 -0.19400
C 	C 	0.89490 0.83940 0.52560 0.26100
C 	C 	0.00210 0.85260 0.57500 -0.27900
C 	C 	0.59080 0.90290 0.71680 0.27200
C 	C 	0.00610 0.70580 0.40940 0.18200
C 	C 	0.00850 0.66430 0.31030 0.02600
C 	C 	0.01020 0.53490 0.31070 -0.12200
C 	C 	0.01530 0.49370 0.22060 0.07900
C 	C 	0.02520 0.69610 0.13200 0.06700
C 	C 	0.01690 0.74510 0.21870 -0.12100
C 	C 	0.69940 0.47190 0.22790 -0.10800
C 	C 	0.70350 0.60320 0.19930 0.02000
C 	C 	0.68340 0.67700 0.27460 -0.04800
C 	C 	0.66470 0.62230 0.37560 -0.09400
C 	C 	0.66360 0.49130 0.40410 0.13500
C 	C 	0.67700 0.41690 0.32980 -0.06400
C 	C 	0.68750 0.81770 0.24760 0.31600
C 	C 	0.73080 0.39130 0.14810 0.43900
C 	C 	0.66800 0.48390 0.58350 0.22200
C 	C 	0.65090 0.40120 0.68560 0.00800
C 	C 	0.64480 0.46180 0.76890 -0.08500
C 	C 	0.63820 0.38980 0.86320 0.05900
C 	C 	0.64460 0.20830 0.80320 0.06300
C 	C 	0.65030 0.27080 0.70460 -0.08800
C 	C 	0.90660 0.10820 0.28110 0.35100
C 	C 	0.02600 0.11900 0.32960 -0.14300
C 	C 	0.15930 0.10350 0.28090 0.03000
C 	C 	0.26330 0.11250 0.33000 -0.07000
C 	C 	0.23620 0.14000 0.42850 -0.06500
C 	C 	0.10510 0.16060 0.47440 0.08100
C 	C 	0.99790 0.14740 0.42500 0.02100
C 	C 	0.40920 0.09710 0.28320 0.31700
C 	C 	0.99390 0.29420 0.59060 0.22800
C 	C 	0.99150 0.33570 0.68970 0.02600
C 	C 	0.98980 0.46510 0.68930 -0.10900
C 	C 	0.98470 0.50630 0.77940 0.08600
C 	C 	0.97480 0.30390 0.86800 0.07100
C 	C 	0.98310 0.25490 0.78130 -0.09900
N 	N 	0.35380 0.56910 0.49450 -0.23600
N 	N 	0.36170 0.73580 0.11870 -0.15100
N 	N 	0.92010 0.80520 0.42920 -0.24400
N 	N 	0.02080 0.57040 0.13250 -0.26000
N 	N 	0.64620 0.43090 0.50550 -0.23400
N 	N 	0.63830 0.26420 0.88130 -0.11900
N 	N 	0.07990 0.19480 0.57080 -0.24500
N 	N 	0.97920 0.42960 0.86750 -0.22000
O 	O 	0.19390 0.56790 0.93340 -0.43600
O 	O 	0.32460 0.71660 0.83050 -0.50000
O 	O 	0.29360 0.11770 0.68950 -0.40800
O 	O 	0.32880 0.12540 0.83850 -0.41100
O 	O 	0.30580 0.40580 0.42510 -0.22900
O 	O 	0.20980 0.88350 0.66910 -0.38100
O 	O 	0.07620 0.90790 0.81070 -0.39700
O 	O 	0.55640 0.90330 0.81110 -0.37400
O 	O 	0.50070 0.91610 0.66450 -0.39300
O 	O 	0.07740 0.65160 0.46720 -0.22700
O 	O 	0.80610 0.43210 0.06660 -0.49600
O 	O 	0.67540 0.28340 0.16950 -0.52000
O 	O 	0.70640 0.88230 0.31050 -0.40300
O 	O 	0.67120 0.87460 0.16150 -0.43300
O 	O 	0.69420 0.59420 0.57490 -0.22500
O 	O 	0.79020 0.11650 0.33090 -0.40500
O 	O 	0.92380 0.09210 0.18930 -0.42800
O 	O 	0.44360 0.09670 0.18890 -0.41300
O 	O 	0.49930 0.08390 0.33550 -0.40100
O 	O 	0.92260 0.34840 0.53280 -0.21700
