data_crystal

_cell_length_a 8.91210
_cell_length_b 9.16970
_cell_length_c 9.16970
_cell_angle_alpha 76.34040
_cell_angle_beta  60.92490
_cell_angle_gamma 60.92490

_symmetry_space_group_name_	'P 1'
_symmetry_space_group_name_H-M	'P 1'

loop_
_symmetry_equiv_pos_as_xyz
  x,y,z

loop_
_atom_site_label
_atom_site_type_symbol
_atom_site_fract_x
_atom_site_fract_y
_atom_site_fract_z
_atom_site_charge
K 	K 	0.87500 0.25000 0.25000 0.65200
K 	K 	0.12500 0.75000 0.75000 0.65200
Lu	Lu	0.37500 0.25000 0.25000 1.24000
Lu	Lu	0.62500 0.75000 0.75000 1.24000
C 	C 	0.39580 0.02110 0.02670 0.23400
C 	C 	0.94360 0.47890 0.47330 0.23000
C 	C 	0.42250 0.97330 0.52110 0.23000
C 	C 	0.41690 0.52670 0.97890 0.23000
C 	C 	0.60420 0.97890 0.97330 0.23400
C 	C 	0.05640 0.52110 0.52670 0.23000
C 	C 	0.57750 0.02670 0.47890 0.23000
C 	C 	0.58310 0.47330 0.02110 0.23000
O 	O 	0.27334 0.12546 0.14026 -0.35900
O 	O 	0.36826 0.94384 0.95124 -0.34700
O 	O 	0.03906 0.37454 0.35974 -0.35800
O 	O 	0.76334 0.55616 0.54876 -0.34500
O 	O 	0.41360 0.85974 0.62546 -0.36000
O 	O 	0.31950 0.04876 0.44384 -0.34300
O 	O 	0.39880 0.64026 0.87454 -0.36100
O 	O 	0.31210 0.45124 0.05616 -0.34300
O 	O 	0.72666 0.87454 0.85974 -0.35900
O 	O 	0.63174 0.05616 0.04876 -0.34700
O 	O 	0.96094 0.62546 0.64026 -0.35800
O 	O 	0.23666 0.44384 0.45124 -0.34500
O 	O 	0.58640 0.14026 0.37454 -0.36000
O 	O 	0.68050 0.95124 0.55616 -0.34300
O 	O 	0.60120 0.35974 0.12546 -0.36100
O 	O 	0.68790 0.54876 0.94384 -0.34300
