data_crystal

_cell_length_a 18.54200
_cell_length_b 18.54200
_cell_length_c 37.51670
_cell_angle_alpha 90.00000
_cell_angle_beta  90.00000
_cell_angle_gamma 120.00000

_symmetry_space_group_name_	'P 1'
_symmetry_space_group_name_H-M	'P 1'

loop_
_symmetry_equiv_pos_as_xyz
  x,y,z

loop_
_atom_site_label
_atom_site_type_symbol
_atom_site_fract_x
_atom_site_fract_y
_atom_site_fract_z
_atom_site_charge
O 	O 	0.48220 0.37210 0.99599 -0.41000
O 	O 	0.44200 0.41050 0.04501 -0.41300
C 	C 	0.45300 0.36030 0.02720 0.36400
C 	C 	0.43080 0.28010 0.04451 -0.07200
C 	C 	0.39940 0.26520 0.07793 -0.05100
H 	H 	0.38860 0.30370 0.08900 0.06500
C 	C 	0.31750 0.21920 0.14711 -0.02400
H 	H 	0.25840 0.17930 0.14560 0.03200
H 	H 	0.32950 0.27030 0.13510 0.02500
C 	C 	0.37220 0.24270 0.15440 -0.02300
H 	H 	0.38100 0.29310 0.14280 0.02600
H 	H 	0.42240 0.25320 0.16690 0.02800
O 	O 	0.14887 0.70543 0.32932 -0.41000
O 	O 	0.10867 0.74383 0.37834 -0.41300
C 	C 	0.11967 0.69363 0.36053 0.36300
C 	C 	0.09747 0.61343 0.37784 -0.07300
C 	C 	0.06607 0.59853 0.41126 -0.05200
H 	H 	0.05527 0.63703 0.42233 0.06400
C 	C 	0.98417 0.55253 0.48044 -0.02500
H 	H 	0.92507 0.51263 0.47893 0.03100
H 	H 	0.99617 0.60363 0.46843 0.02400
C 	C 	0.03887 0.57603 0.48773 -0.02300
H 	H 	0.04767 0.62643 0.47613 0.02500
H 	H 	0.08907 0.58653 0.50023 0.02700
O 	O 	0.81553 0.03877 0.66266 -0.41100
O 	O 	0.77533 0.07717 0.71168 -0.41400
C 	C 	0.78633 0.02697 0.69387 0.36300
C 	C 	0.76413 0.94677 0.71118 -0.07300
C 	C 	0.73273 0.93187 0.74460 -0.05200
H 	H 	0.72193 0.97037 0.75567 0.06400
C 	C 	0.65083 0.88587 0.81378 -0.02500
H 	H 	0.59173 0.84597 0.81227 0.03100
H 	H 	0.66283 0.93697 0.80177 0.02400
C 	C 	0.70553 0.90937 0.82107 -0.02400
H 	H 	0.71433 0.95977 0.80947 0.02500
H 	H 	0.75573 0.91987 0.83357 0.02700
O 	O 	0.62790 0.11010 0.99599 -0.41100
O 	O 	0.58950 0.03150 0.04501 -0.41400
C 	C 	0.63970 0.09270 0.02720 0.36300
C 	C 	0.71990 0.15070 0.04451 -0.07300
C 	C 	0.73480 0.13420 0.07793 -0.05200
H 	H 	0.69630 0.08490 0.08900 0.06400
C 	C 	0.78080 0.09830 0.14711 -0.02500
H 	H 	0.82070 0.07910 0.14560 0.03100
H 	H 	0.72970 0.05920 0.13510 0.02400
C 	C 	0.75730 0.12950 0.15440 -0.02400
H 	H 	0.70690 0.08790 0.14280 0.02500
H 	H 	0.74680 0.16920 0.16690 0.02700
O 	O 	0.29457 0.44343 0.32932 -0.41100
O 	O 	0.25617 0.36483 0.37834 -0.41400
C 	C 	0.30637 0.42603 0.36053 0.36300
C 	C 	0.38657 0.48403 0.37784 -0.07300
C 	C 	0.40147 0.46753 0.41126 -0.05200
H 	H 	0.36297 0.41823 0.42233 0.06400
C 	C 	0.44747 0.43163 0.48044 -0.02500
H 	H 	0.48737 0.41243 0.47893 0.03100
H 	H 	0.39637 0.39253 0.46843 0.02400
C 	C 	0.42397 0.46283 0.48773 -0.02400
H 	H 	0.37357 0.42123 0.47613 0.02500
H 	H 	0.41347 0.50253 0.50023 0.02700
O 	O 	0.96123 0.77677 0.66266 -0.41100
O 	O 	0.92283 0.69817 0.71168 -0.41400
C 	C 	0.97303 0.75937 0.69387 0.36300
C 	C 	0.05323 0.81737 0.71118 -0.07300
C 	C 	0.06813 0.80087 0.74460 -0.05200
H 	H 	0.02963 0.75157 0.75567 0.06400
C 	C 	0.11413 0.76497 0.81378 -0.02500
H 	H 	0.15403 0.74577 0.81227 0.03100
H 	H 	0.06303 0.72587 0.80177 0.02400
C 	C 	0.09063 0.79617 0.82107 -0.02400
H 	H 	0.04023 0.75457 0.80947 0.02500
H 	H 	0.08013 0.83587 0.83357 0.02700
O 	O 	0.88990 0.51780 0.99599 -0.41100
O 	O 	0.96850 0.55800 0.04501 -0.41400
C 	C 	0.90730 0.54700 0.02720 0.36300
C 	C 	0.84930 0.56920 0.04451 -0.07300
C 	C 	0.86580 0.60060 0.07793 -0.05200
H 	H 	0.91510 0.61140 0.08900 0.06400
C 	C 	0.90170 0.68250 0.14711 -0.02500
H 	H 	0.92090 0.74160 0.14560 0.03100
H 	H 	0.94080 0.67050 0.13510 0.02400
C 	C 	0.87050 0.62780 0.15440 -0.02400
H 	H 	0.91210 0.61900 0.14280 0.02500
H 	H 	0.83080 0.57760 0.16690 0.02700
O 	O 	0.55657 0.85113 0.32932 -0.41100
O 	O 	0.63517 0.89133 0.37834 -0.41400
C 	C 	0.57397 0.88033 0.36053 0.36300
C 	C 	0.51597 0.90253 0.37784 -0.07300
C 	C 	0.53247 0.93393 0.41126 -0.05200
H 	H 	0.58177 0.94473 0.42233 0.06400
C 	C 	0.56837 0.01583 0.48044 -0.02500
H 	H 	0.58757 0.07493 0.47893 0.03100
H 	H 	0.60747 0.00383 0.46843 0.02400
C 	C 	0.53717 0.96113 0.48773 -0.02400
H 	H 	0.57877 0.95233 0.47613 0.02500
H 	H 	0.49747 0.91093 0.50023 0.02700
O 	O 	0.22323 0.18447 0.66266 -0.41100
O 	O 	0.30183 0.22467 0.71168 -0.41400
C 	C 	0.24063 0.21367 0.69387 0.36300
C 	C 	0.18263 0.23587 0.71118 -0.07300
C 	C 	0.19913 0.26727 0.74460 -0.05200
H 	H 	0.24843 0.27807 0.75567 0.06400
C 	C 	0.23503 0.34917 0.81378 -0.02500
H 	H 	0.25423 0.40827 0.81227 0.03100
H 	H 	0.27413 0.33717 0.80177 0.02400
C 	C 	0.20383 0.29447 0.82107 -0.02400
H 	H 	0.24543 0.28567 0.80947 0.02500
H 	H 	0.16413 0.24427 0.83357 0.02700
O 	O 	0.37210 0.48220 0.00401 -0.41100
O 	O 	0.41050 0.44200 0.95499 -0.41400
C 	C 	0.36030 0.45300 0.97280 0.36300
C 	C 	0.28010 0.43080 0.95549 -0.07300
C 	C 	0.26520 0.39940 0.92207 -0.05200
H 	H 	0.30370 0.38860 0.91100 0.06400
C 	C 	0.21920 0.31750 0.85289 -0.02500
H 	H 	0.17930 0.25840 0.85440 0.03100
H 	H 	0.27030 0.32950 0.86490 0.02400
C 	C 	0.24270 0.37220 0.84560 -0.02400
H 	H 	0.29310 0.38100 0.85720 0.02500
H 	H 	0.25320 0.42240 0.83310 0.02700
O 	O 	0.03877 0.81553 0.33734 -0.41100
O 	O 	0.07717 0.77533 0.28832 -0.41400
C 	C 	0.02697 0.78633 0.30613 0.36300
C 	C 	0.94677 0.76413 0.28882 -0.07300
C 	C 	0.93187 0.73273 0.25540 -0.05200
H 	H 	0.97037 0.72193 0.24433 0.06400
C 	C 	0.88587 0.65083 0.18622 -0.02500
H 	H 	0.84597 0.59173 0.18773 0.03100
H 	H 	0.93697 0.66283 0.19823 0.02400
C 	C 	0.90937 0.70553 0.17893 -0.02400
H 	H 	0.95977 0.71433 0.19053 0.02500
H 	H 	0.91987 0.75573 0.16643 0.02700
O 	O 	0.70543 0.14887 0.67068 -0.41100
O 	O 	0.74383 0.10867 0.62166 -0.41400
C 	C 	0.69363 0.11967 0.63947 0.36300
C 	C 	0.61343 0.09747 0.62216 -0.07300
C 	C 	0.59853 0.06607 0.58874 -0.05200
H 	H 	0.63703 0.05527 0.57767 0.06400
C 	C 	0.55253 0.98417 0.51956 -0.02500
H 	H 	0.51263 0.92507 0.52107 0.03100
H 	H 	0.60363 0.99617 0.53157 0.02400
C 	C 	0.57603 0.03887 0.51227 -0.02300
H 	H 	0.62643 0.04767 0.52387 0.02500
H 	H 	0.58653 0.08907 0.49977 0.02700
O 	O 	0.11010 0.62790 0.00401 -0.41100
O 	O 	0.03150 0.58950 0.95499 -0.41400
C 	C 	0.09270 0.63970 0.97280 0.36300
C 	C 	0.15070 0.71990 0.95549 -0.07300
C 	C 	0.13420 0.73480 0.92207 -0.05200
H 	H 	0.08490 0.69630 0.91100 0.06400
C 	C 	0.09830 0.78080 0.85289 -0.02500
H 	H 	0.07910 0.82070 0.85440 0.03100
H 	H 	0.05920 0.72970 0.86490 0.02400
C 	C 	0.12950 0.75730 0.84560 -0.02400
H 	H 	0.08790 0.70690 0.85720 0.02500
H 	H 	0.16920 0.74680 0.83310 0.02700
O 	O 	0.77677 0.96123 0.33734 -0.41100
O 	O 	0.69817 0.92283 0.28832 -0.41400
C 	C 	0.75937 0.97303 0.30613 0.36300
C 	C 	0.81737 0.05323 0.28882 -0.07300
C 	C 	0.80087 0.06813 0.25540 -0.05200
H 	H 	0.75157 0.02963 0.24433 0.06400
C 	C 	0.76497 0.11413 0.18622 -0.02500
H 	H 	0.74577 0.15403 0.18773 0.03100
H 	H 	0.72587 0.06303 0.19823 0.02400
C 	C 	0.79617 0.09063 0.17893 -0.02400
H 	H 	0.75457 0.04023 0.19053 0.02500
H 	H 	0.83587 0.08013 0.16643 0.02700
O 	O 	0.44343 0.29457 0.67068 -0.41100
O 	O 	0.36483 0.25617 0.62166 -0.41400
C 	C 	0.42603 0.30637 0.63947 0.36300
C 	C 	0.48403 0.38657 0.62216 -0.07300
C 	C 	0.46753 0.40147 0.58874 -0.05200
H 	H 	0.41823 0.36297 0.57767 0.06400
C 	C 	0.43163 0.44747 0.51956 -0.02500
H 	H 	0.41243 0.48737 0.52107 0.03100
H 	H 	0.39253 0.39637 0.53157 0.02400
C 	C 	0.46283 0.42397 0.51227 -0.02400
H 	H 	0.42123 0.37357 0.52387 0.02500
H 	H 	0.50253 0.41347 0.49977 0.02700
O 	O 	0.51780 0.88990 0.00401 -0.41100
O 	O 	0.55800 0.96850 0.95499 -0.41400
C 	C 	0.54700 0.90730 0.97280 0.36300
C 	C 	0.56920 0.84930 0.95549 -0.07300
C 	C 	0.60060 0.86580 0.92207 -0.05200
H 	H 	0.61140 0.91510 0.91100 0.06400
C 	C 	0.68250 0.90170 0.85289 -0.02500
H 	H 	0.74160 0.92090 0.85440 0.03100
H 	H 	0.67050 0.94080 0.86490 0.02400
C 	C 	0.62780 0.87050 0.84560 -0.02400
H 	H 	0.61900 0.91210 0.85720 0.02500
H 	H 	0.57760 0.83080 0.83310 0.02700
O 	O 	0.18447 0.22323 0.33734 -0.41100
O 	O 	0.22467 0.30183 0.28832 -0.41400
C 	C 	0.21367 0.24063 0.30613 0.36300
C 	C 	0.23587 0.18263 0.28882 -0.07300
C 	C 	0.26727 0.19913 0.25540 -0.05200
H 	H 	0.27807 0.24843 0.24433 0.06400
C 	C 	0.34917 0.23503 0.18622 -0.02500
H 	H 	0.40827 0.25423 0.18773 0.03100
H 	H 	0.33717 0.27413 0.19823 0.02400
C 	C 	0.29447 0.20383 0.17893 -0.02400
H 	H 	0.28567 0.24543 0.19053 0.02500
H 	H 	0.24427 0.16413 0.16643 0.02700
O 	O 	0.85113 0.55657 0.67068 -0.41100
O 	O 	0.89133 0.63517 0.62166 -0.41400
C 	C 	0.88033 0.57397 0.63947 0.36300
C 	C 	0.90253 0.51597 0.62216 -0.07300
C 	C 	0.93393 0.53247 0.58874 -0.05200
H 	H 	0.94473 0.58177 0.57767 0.06400
C 	C 	0.01583 0.56837 0.51956 -0.02500
H 	H 	0.07493 0.58757 0.52107 0.03100
H 	H 	0.00383 0.60747 0.53157 0.02400
C 	C 	0.96113 0.53717 0.51227 -0.02400
H 	H 	0.95233 0.57877 0.52387 0.02500
H 	H 	0.91093 0.49747 0.49977 0.02700
O 	O 	0.51780 0.62790 0.00401 -0.41100
O 	O 	0.55800 0.58950 0.95499 -0.41400
C 	C 	0.54700 0.63970 0.97280 0.36300
C 	C 	0.56920 0.71990 0.95549 -0.07300
C 	C 	0.60060 0.73480 0.92207 -0.05200
H 	H 	0.61140 0.69630 0.91100 0.06400
C 	C 	0.68250 0.78080 0.85289 -0.02500
H 	H 	0.74160 0.82070 0.85440 0.03100
H 	H 	0.67050 0.72970 0.86490 0.02400
C 	C 	0.62780 0.75730 0.84560 -0.02400
H 	H 	0.61900 0.70690 0.85720 0.02500
H 	H 	0.57760 0.74680 0.83310 0.02700
O 	O 	0.18447 0.96123 0.33734 -0.41100
O 	O 	0.22467 0.92283 0.28832 -0.41400
C 	C 	0.21367 0.97303 0.30613 0.36300
C 	C 	0.23587 0.05323 0.28882 -0.07300
C 	C 	0.26727 0.06813 0.25540 -0.05200
H 	H 	0.27807 0.02963 0.24433 0.06400
C 	C 	0.34917 0.11413 0.18622 -0.02500
H 	H 	0.40827 0.15403 0.18773 0.03100
H 	H 	0.33717 0.06303 0.19823 0.02400
C 	C 	0.29447 0.09063 0.17893 -0.02400
H 	H 	0.28567 0.04023 0.19053 0.02500
H 	H 	0.24427 0.08013 0.16643 0.02700
O 	O 	0.85113 0.29457 0.67068 -0.41100
O 	O 	0.89133 0.25617 0.62166 -0.41400
C 	C 	0.88033 0.30637 0.63947 0.36300
C 	C 	0.90253 0.38657 0.62216 -0.07300
C 	C 	0.93393 0.40147 0.58874 -0.05200
H 	H 	0.94473 0.36297 0.57767 0.06400
C 	C 	0.01583 0.44747 0.51956 -0.02500
H 	H 	0.07493 0.48737 0.52107 0.03100
H 	H 	0.00383 0.39637 0.53157 0.02400
C 	C 	0.96113 0.42397 0.51227 -0.02300
H 	H 	0.95233 0.37357 0.52387 0.02500
H 	H 	0.91093 0.41347 0.49977 0.02700
O 	O 	0.37210 0.88990 0.00401 -0.41100
O 	O 	0.41050 0.96850 0.95499 -0.41400
C 	C 	0.36030 0.90730 0.97280 0.36300
C 	C 	0.28010 0.84930 0.95549 -0.07300
C 	C 	0.26520 0.86580 0.92207 -0.05200
H 	H 	0.30370 0.91510 0.91100 0.06400
C 	C 	0.21920 0.90170 0.85289 -0.02500
H 	H 	0.17930 0.92090 0.85440 0.03100
H 	H 	0.27030 0.94080 0.86490 0.02400
C 	C 	0.24270 0.87050 0.84560 -0.02400
H 	H 	0.29310 0.91210 0.85720 0.02500
H 	H 	0.25320 0.83080 0.83310 0.02700
O 	O 	0.03877 0.22323 0.33734 -0.41100
O 	O 	0.07717 0.30183 0.28832 -0.41400
C 	C 	0.02697 0.24063 0.30613 0.36300
C 	C 	0.94677 0.18263 0.28882 -0.07300
C 	C 	0.93187 0.19913 0.25540 -0.05200
H 	H 	0.97037 0.24843 0.24433 0.06400
C 	C 	0.88587 0.23503 0.18622 -0.02500
H 	H 	0.84597 0.25423 0.18773 0.03100
H 	H 	0.93697 0.27413 0.19823 0.02400
C 	C 	0.90937 0.20383 0.17893 -0.02400
H 	H 	0.95977 0.24543 0.19053 0.02500
H 	H 	0.91987 0.16413 0.16643 0.02700
O 	O 	0.70543 0.55657 0.67068 -0.41100
O 	O 	0.74383 0.63517 0.62166 -0.41400
C 	C 	0.69363 0.57397 0.63947 0.36300
C 	C 	0.61343 0.51597 0.62216 -0.07300
C 	C 	0.59853 0.53247 0.58874 -0.05200
H 	H 	0.63703 0.58177 0.57767 0.06400
C 	C 	0.55253 0.56837 0.51956 -0.02500
H 	H 	0.51263 0.58757 0.52107 0.03100
H 	H 	0.60363 0.60747 0.53157 0.02400
C 	C 	0.57603 0.53717 0.51227 -0.02400
H 	H 	0.62643 0.57877 0.52387 0.02500
H 	H 	0.58653 0.49747 0.49977 0.02700
O 	O 	0.11010 0.48220 0.00401 -0.41100
O 	O 	0.03150 0.44200 0.95499 -0.41400
C 	C 	0.09270 0.45300 0.97280 0.36300
C 	C 	0.15070 0.43080 0.95549 -0.07300
C 	C 	0.13420 0.39940 0.92207 -0.05200
H 	H 	0.08490 0.38860 0.91100 0.06400
C 	C 	0.09830 0.31750 0.85289 -0.02500
H 	H 	0.07910 0.25840 0.85440 0.03100
H 	H 	0.05920 0.32950 0.86490 0.02400
C 	C 	0.12950 0.37220 0.84560 -0.02400
H 	H 	0.08790 0.38100 0.85720 0.02500
H 	H 	0.16920 0.42240 0.83310 0.02700
O 	O 	0.77677 0.81553 0.33734 -0.41100
O 	O 	0.69817 0.77533 0.28832 -0.41400
C 	C 	0.75937 0.78633 0.30613 0.36300
C 	C 	0.81737 0.76413 0.28882 -0.07300
C 	C 	0.80087 0.73273 0.25540 -0.05200
H 	H 	0.75157 0.72193 0.24433 0.06400
C 	C 	0.76497 0.65083 0.18622 -0.02500
H 	H 	0.74577 0.59173 0.18773 0.03100
H 	H 	0.72587 0.66283 0.19823 0.02400
C 	C 	0.79617 0.70553 0.17893 -0.02400
H 	H 	0.75457 0.71433 0.19053 0.02500
H 	H 	0.83587 0.75573 0.16643 0.02700
O 	O 	0.44343 0.14887 0.67068 -0.41100
O 	O 	0.36483 0.10867 0.62166 -0.41400
C 	C 	0.42603 0.11967 0.63947 0.36300
C 	C 	0.48403 0.09747 0.62216 -0.07300
C 	C 	0.46753 0.06607 0.58874 -0.05200
H 	H 	0.41823 0.05527 0.57767 0.06400
C 	C 	0.43163 0.98417 0.51956 -0.02500
H 	H 	0.41243 0.92507 0.52107 0.03100
H 	H 	0.39253 0.99617 0.53157 0.02400
C 	C 	0.46283 0.03887 0.51227 -0.02400
H 	H 	0.42123 0.04767 0.52387 0.02500
H 	H 	0.50253 0.08907 0.49977 0.02700
O 	O 	0.62790 0.51780 0.99599 -0.41100
O 	O 	0.58950 0.55800 0.04501 -0.41400
C 	C 	0.63970 0.54700 0.02720 0.36300
C 	C 	0.71990 0.56920 0.04451 -0.07300
C 	C 	0.73480 0.60060 0.07793 -0.05200
H 	H 	0.69630 0.61140 0.08900 0.06400
C 	C 	0.78080 0.68250 0.14711 -0.02500
H 	H 	0.82070 0.74160 0.14560 0.03100
H 	H 	0.72970 0.67050 0.13510 0.02400
C 	C 	0.75730 0.62780 0.15440 -0.02400
H 	H 	0.70690 0.61900 0.14280 0.02500
H 	H 	0.74680 0.57760 0.16690 0.02700
O 	O 	0.29457 0.85113 0.32932 -0.41100
O 	O 	0.25617 0.89133 0.37834 -0.41400
C 	C 	0.30637 0.88033 0.36053 0.36300
C 	C 	0.38657 0.90253 0.37784 -0.07300
C 	C 	0.40147 0.93393 0.41126 -0.05200
H 	H 	0.36297 0.94473 0.42233 0.06400
C 	C 	0.44747 0.01583 0.48044 -0.02500
H 	H 	0.48737 0.07493 0.47893 0.03100
H 	H 	0.39637 0.00383 0.46843 0.02400
C 	C 	0.42397 0.96113 0.48773 -0.02300
H 	H 	0.37357 0.95233 0.47613 0.02500
H 	H 	0.41347 0.91093 0.50023 0.02700
O 	O 	0.96123 0.18447 0.66266 -0.41100
O 	O 	0.92283 0.22467 0.71168 -0.41400
C 	C 	0.97303 0.21367 0.69387 0.36300
C 	C 	0.05323 0.23587 0.71118 -0.07300
C 	C 	0.06813 0.26727 0.74460 -0.05200
H 	H 	0.02963 0.27807 0.75567 0.06400
C 	C 	0.11413 0.34917 0.81378 -0.02500
H 	H 	0.15403 0.40827 0.81227 0.03100
H 	H 	0.06303 0.33717 0.80177 0.02400
C 	C 	0.09063 0.29447 0.82107 -0.02400
H 	H 	0.04023 0.28567 0.80947 0.02500
H 	H 	0.08013 0.24427 0.83357 0.02700
O 	O 	0.88990 0.37210 0.99599 -0.41100
O 	O 	0.96850 0.41050 0.04501 -0.41400
C 	C 	0.90730 0.36030 0.02720 0.36300
C 	C 	0.84930 0.28010 0.04451 -0.07300
C 	C 	0.86580 0.26520 0.07793 -0.05200
H 	H 	0.91510 0.30370 0.08900 0.06400
C 	C 	0.90170 0.21920 0.14711 -0.02500
H 	H 	0.92090 0.17930 0.14560 0.03100
H 	H 	0.94080 0.27030 0.13510 0.02400
C 	C 	0.87050 0.24270 0.15440 -0.02400
H 	H 	0.91210 0.29310 0.14280 0.02500
H 	H 	0.83080 0.25320 0.16690 0.02700
O 	O 	0.55657 0.70543 0.32932 -0.41100
O 	O 	0.63517 0.74383 0.37834 -0.41400
C 	C 	0.57397 0.69363 0.36053 0.36300
C 	C 	0.51597 0.61343 0.37784 -0.07300
C 	C 	0.53247 0.59853 0.41126 -0.05200
H 	H 	0.58177 0.63703 0.42233 0.06400
C 	C 	0.56837 0.55253 0.48044 -0.02500
H 	H 	0.58757 0.51263 0.47893 0.03100
H 	H 	0.60747 0.60363 0.46843 0.02400
C 	C 	0.53717 0.57603 0.48773 -0.02400
H 	H 	0.57877 0.62643 0.47613 0.02500
H 	H 	0.49747 0.58653 0.50023 0.02700
O 	O 	0.22323 0.03877 0.66266 -0.41100
O 	O 	0.30183 0.07717 0.71168 -0.41400
C 	C 	0.24063 0.02697 0.69387 0.36300
C 	C 	0.18263 0.94677 0.71118 -0.07300
C 	C 	0.19913 0.93187 0.74460 -0.05200
H 	H 	0.24843 0.97037 0.75567 0.06400
C 	C 	0.23503 0.88587 0.81378 -0.02500
H 	H 	0.25423 0.84597 0.81227 0.03100
H 	H 	0.27413 0.93697 0.80177 0.02400
C 	C 	0.20383 0.90937 0.82107 -0.02400
H 	H 	0.24543 0.95977 0.80947 0.02500
H 	H 	0.16413 0.91987 0.83357 0.02700
O 	O 	0.48220 0.11010 0.99599 -0.41100
O 	O 	0.44200 0.03150 0.04501 -0.41400
C 	C 	0.45300 0.09270 0.02720 0.36300
C 	C 	0.43080 0.15070 0.04451 -0.07300
C 	C 	0.39940 0.13420 0.07793 -0.05200
H 	H 	0.38860 0.08490 0.08900 0.06400
C 	C 	0.31750 0.09830 0.14711 -0.02500
H 	H 	0.25840 0.07910 0.14560 0.03100
H 	H 	0.32950 0.05920 0.13510 0.02400
C 	C 	0.37220 0.12950 0.15440 -0.02400
H 	H 	0.38100 0.08790 0.14280 0.02500
H 	H 	0.42240 0.16920 0.16690 0.02700
O 	O 	0.14887 0.44343 0.32932 -0.41100
O 	O 	0.10867 0.36483 0.37834 -0.41400
C 	C 	0.11967 0.42603 0.36053 0.36300
C 	C 	0.09747 0.48403 0.37784 -0.07300
C 	C 	0.06607 0.46753 0.41126 -0.05200
H 	H 	0.05527 0.41823 0.42233 0.06400
C 	C 	0.98417 0.43163 0.48044 -0.02500
H 	H 	0.92507 0.41243 0.47893 0.03100
H 	H 	0.99617 0.39253 0.46843 0.02400
C 	C 	0.03887 0.46283 0.48773 -0.02400
H 	H 	0.04767 0.42123 0.47613 0.02500
H 	H 	0.08907 0.50253 0.50023 0.02700
O 	O 	0.81553 0.77677 0.66266 -0.41100
O 	O 	0.77533 0.69817 0.71168 -0.41400
C 	C 	0.78633 0.75937 0.69387 0.36300
C 	C 	0.76413 0.81737 0.71118 -0.07300
C 	C 	0.73273 0.80087 0.74460 -0.05200
H 	H 	0.72193 0.75157 0.75567 0.06400
C 	C 	0.65083 0.76497 0.81378 -0.02500
H 	H 	0.59173 0.74577 0.81227 0.03100
H 	H 	0.66283 0.72587 0.80177 0.02400
C 	C 	0.70553 0.79617 0.82107 -0.02400
H 	H 	0.71433 0.75457 0.80947 0.02500
H 	H 	0.75573 0.83587 0.83357 0.02700
Cu	Cu	0.52371 0.47629 0.97095 0.90900
Cu	Cu	0.19038 0.80962 0.30428 0.90900
Cu	Cu	0.85704 0.14296 0.63762 0.90900
Cu	Cu	0.52371 0.04742 0.97095 0.90900
Cu	Cu	0.19038 0.38075 0.30428 0.90900
Cu	Cu	0.85704 0.71409 0.63762 0.90900
Cu	Cu	0.95258 0.47629 0.97095 0.90900
Cu	Cu	0.61925 0.80962 0.30428 0.90900
Cu	Cu	0.28591 0.14296 0.63762 0.90900
Cu	Cu	0.47629 0.52371 0.02905 0.90900
Cu	Cu	0.14296 0.85704 0.36238 0.90900
Cu	Cu	0.80962 0.19038 0.69572 0.90900
Cu	Cu	0.04742 0.52371 0.02905 0.90900
Cu	Cu	0.71409 0.85704 0.36238 0.90900
Cu	Cu	0.38075 0.19038 0.69572 0.90900
Cu	Cu	0.47629 0.95258 0.02905 0.90900
Cu	Cu	0.14296 0.28591 0.36238 0.90900
Cu	Cu	0.80962 0.61925 0.69572 0.90900
N 	N 	0.36900 0.18450 0.13320 -0.03500
C 	C 	0.44690 0.22345 0.02730 0.01400
H 	H 	0.46850 0.23425 0.00430 0.05500
C 	C 	0.38280 0.19140 0.09640 0.06700
N 	N 	0.34140 0.17070 0.12940 -0.08100
N 	N 	0.03567 0.51783 0.46653 -0.03500
C 	C 	0.11357 0.55678 0.36063 0.01400
H 	H 	0.13517 0.56758 0.33763 0.05500
C 	C 	0.04947 0.52473 0.42973 0.06700
N 	N 	0.00807 0.50403 0.46273 -0.08100
N 	N 	0.70233 0.85117 0.79987 -0.03500
C 	C 	0.78023 0.89012 0.69397 0.01400
H 	H 	0.80183 0.90092 0.67097 0.05500
C 	C 	0.71613 0.85807 0.76307 0.06700
N 	N 	0.67473 0.83737 0.79607 -0.08100
N 	N 	0.81550 0.18450 0.13320 -0.03500
C 	C 	0.77655 0.22345 0.02730 0.01400
H 	H 	0.76575 0.23425 0.00430 0.05500
C 	C 	0.80860 0.19140 0.09640 0.06700
N 	N 	0.82930 0.17070 0.12940 -0.08100
N 	N 	0.48217 0.51783 0.46653 -0.03500
C 	C 	0.44322 0.55678 0.36063 0.01400
H 	H 	0.43242 0.56758 0.33763 0.05500
C 	C 	0.47527 0.52473 0.42973 0.06700
N 	N 	0.49597 0.50403 0.46273 -0.08100
N 	N 	0.14883 0.85117 0.79987 -0.03500
C 	C 	0.10988 0.89012 0.69397 0.01400
H 	H 	0.09908 0.90092 0.67097 0.05500
C 	C 	0.14193 0.85807 0.76307 0.06700
N 	N 	0.16263 0.83737 0.79607 -0.08100
N 	N 	0.81550 0.63100 0.13320 -0.03500
C 	C 	0.77655 0.55310 0.02730 0.01400
H 	H 	0.76575 0.53150 0.00430 0.05500
C 	C 	0.80860 0.61720 0.09640 0.06700
N 	N 	0.82930 0.65860 0.12940 -0.08100
N 	N 	0.48217 0.96433 0.46653 -0.03500
C 	C 	0.44322 0.88643 0.36063 0.01400
H 	H 	0.43242 0.86483 0.33763 0.05500
C 	C 	0.47527 0.95053 0.42973 0.06700
N 	N 	0.49597 0.99193 0.46273 -0.08100
N 	N 	0.14883 0.29767 0.79987 -0.03500
C 	C 	0.10988 0.21977 0.69397 0.01400
H 	H 	0.09908 0.19817 0.67097 0.05500
C 	C 	0.14193 0.28387 0.76307 0.06700
N 	N 	0.16263 0.32527 0.79607 -0.08100
N 	N 	0.18450 0.36900 0.86680 -0.03500
C 	C 	0.22345 0.44690 0.97270 0.01400
H 	H 	0.23425 0.46850 0.99570 0.05500
C 	C 	0.19140 0.38280 0.90360 0.06700
N 	N 	0.17070 0.34140 0.87060 -0.08100
N 	N 	0.85117 0.70233 0.20013 -0.03500
C 	C 	0.89012 0.78023 0.30603 0.01400
H 	H 	0.90092 0.80183 0.32903 0.05500
C 	C 	0.85807 0.71613 0.23693 0.06700
N 	N 	0.83737 0.67473 0.20393 -0.08100
N 	N 	0.51783 0.03567 0.53347 -0.03500
C 	C 	0.55678 0.11357 0.63937 0.01400
H 	H 	0.56758 0.13517 0.66237 0.05500
C 	C 	0.52473 0.04947 0.57027 0.06700
N 	N 	0.50403 0.00807 0.53727 -0.08100
N 	N 	0.18450 0.81550 0.86680 -0.03500
C 	C 	0.22345 0.77655 0.97270 0.01400
H 	H 	0.23425 0.76575 0.99570 0.05500
C 	C 	0.19140 0.80860 0.90360 0.06700
N 	N 	0.17070 0.82930 0.87060 -0.08100
N 	N 	0.85117 0.14883 0.20013 -0.03500
C 	C 	0.89012 0.10988 0.30603 0.01400
H 	H 	0.90092 0.09908 0.32903 0.05500
C 	C 	0.85807 0.14193 0.23693 0.06700
N 	N 	0.83737 0.16263 0.20393 -0.08100
N 	N 	0.51783 0.48217 0.53347 -0.03500
C 	C 	0.55678 0.44322 0.63937 0.01400
H 	H 	0.56758 0.43242 0.66237 0.05500
C 	C 	0.52473 0.47527 0.57027 0.06700
N 	N 	0.50403 0.49597 0.53727 -0.08100
N 	N 	0.63100 0.81550 0.86680 -0.03500
C 	C 	0.55310 0.77655 0.97270 0.01400
H 	H 	0.53150 0.76575 0.99570 0.05500
C 	C 	0.61720 0.80860 0.90360 0.06700
N 	N 	0.65860 0.82930 0.87060 -0.08100
N 	N 	0.29767 0.14883 0.20013 -0.03500
C 	C 	0.21977 0.10988 0.30603 0.01400
H 	H 	0.19817 0.09908 0.32903 0.05500
C 	C 	0.28387 0.14193 0.23693 0.06700
N 	N 	0.32527 0.16263 0.20393 -0.08100
N 	N 	0.96433 0.48217 0.53347 -0.03500
C 	C 	0.88643 0.44322 0.63937 0.01400
H 	H 	0.86483 0.43242 0.66237 0.05500
C 	C 	0.95053 0.47527 0.57027 0.06700
N 	N 	0.99193 0.49597 0.53727 -0.08100
