data_crystal

_cell_length_a 18.77930
_cell_length_b 18.77930
_cell_length_c 32.79600
_cell_angle_alpha 90.00000
_cell_angle_beta  90.00000
_cell_angle_gamma 120.00000

_symmetry_space_group_name_	'P 1'
_symmetry_space_group_name_H-M	'P 1'

loop_
_symmetry_equiv_pos_as_xyz
  x,y,z

loop_
_atom_site_label
_atom_site_type_symbol
_atom_site_fract_x
_atom_site_fract_y
_atom_site_fract_z
_atom_site_charge
O 	O 	0.37210 0.48280 0.00469 -0.37300
O 	O 	0.41050 0.44260 0.94859 -0.37600
C 	C 	0.28010 0.43220 0.94961 -0.04400
C 	C 	0.26340 0.39770 0.90997 -0.05100
H 	H 	0.30060 0.38620 0.89710 0.08200
C 	C 	0.36020 0.45350 0.96908 0.33500
O 	O 	0.03877 0.81613 0.33802 -0.37300
O 	O 	0.07717 0.77593 0.28192 -0.37600
C 	C 	0.94677 0.76553 0.28294 -0.04400
C 	C 	0.93007 0.73103 0.24330 -0.05100
H 	H 	0.96727 0.71953 0.23043 0.08200
C 	C 	0.02687 0.78683 0.30241 0.33500
O 	O 	0.70543 0.14947 0.67136 -0.37300
O 	O 	0.74383 0.10927 0.61526 -0.37600
C 	C 	0.61343 0.09887 0.61628 -0.04400
C 	C 	0.59673 0.06437 0.57664 -0.05100
H 	H 	0.63393 0.05287 0.56377 0.08200
C 	C 	0.69353 0.12017 0.63575 0.33500
O 	O 	0.51720 0.88930 0.00469 -0.37300
O 	O 	0.55740 0.96790 0.94859 -0.37600
C 	C 	0.56780 0.84790 0.94961 -0.04400
C 	C 	0.60230 0.86570 0.90997 -0.05100
H 	H 	0.61380 0.91440 0.89710 0.08200
C 	C 	0.54650 0.90670 0.96908 0.33500
O 	O 	0.18387 0.22263 0.33802 -0.37300
O 	O 	0.22407 0.30123 0.28192 -0.37600
C 	C 	0.23447 0.18123 0.28294 -0.04400
C 	C 	0.26897 0.19903 0.24330 -0.05100
H 	H 	0.28047 0.24773 0.23043 0.08200
C 	C 	0.21317 0.24003 0.30241 0.33500
O 	O 	0.85053 0.55597 0.67136 -0.37300
O 	O 	0.89073 0.63457 0.61526 -0.37600
C 	C 	0.90113 0.51457 0.61628 -0.04400
C 	C 	0.93563 0.53237 0.57664 -0.05100
H 	H 	0.94713 0.58107 0.56377 0.08200
C 	C 	0.87983 0.57337 0.63575 0.33500
O 	O 	0.11070 0.62790 0.00469 -0.37300
O 	O 	0.03210 0.58950 0.94859 -0.37600
C 	C 	0.15210 0.71990 0.94961 -0.04400
C 	C 	0.13430 0.73660 0.90997 -0.05100
H 	H 	0.08560 0.69940 0.89710 0.08200
C 	C 	0.09330 0.63980 0.96908 0.33500
O 	O 	0.77737 0.96123 0.33802 -0.37300
O 	O 	0.69877 0.92283 0.28192 -0.37600
C 	C 	0.81877 0.05323 0.28294 -0.04400
C 	C 	0.80097 0.06993 0.24330 -0.05100
H 	H 	0.75227 0.03273 0.23043 0.08200
C 	C 	0.75997 0.97313 0.30241 0.33500
O 	O 	0.44403 0.29457 0.67136 -0.37300
O 	O 	0.36543 0.25617 0.61526 -0.37600
C 	C 	0.48543 0.38657 0.61628 -0.04400
C 	C 	0.46763 0.40327 0.57664 -0.05100
H 	H 	0.41893 0.36607 0.56377 0.08200
C 	C 	0.42663 0.30647 0.63575 0.33500
O 	O 	0.48280 0.37210 0.99531 -0.37300
O 	O 	0.44260 0.41050 0.05141 -0.37600
C 	C 	0.43220 0.28010 0.05039 -0.04400
C 	C 	0.39770 0.26340 0.09003 -0.05100
H 	H 	0.38620 0.30060 0.10290 0.08200
C 	C 	0.45350 0.36020 0.03092 0.33500
O 	O 	0.14947 0.70543 0.32864 -0.37300
O 	O 	0.10927 0.74383 0.38474 -0.37600
C 	C 	0.09887 0.61343 0.38372 -0.04400
C 	C 	0.06437 0.59673 0.42336 -0.05100
H 	H 	0.05287 0.63393 0.43623 0.08200
C 	C 	0.12017 0.69353 0.36425 0.33500
O 	O 	0.81613 0.03877 0.66198 -0.37300
O 	O 	0.77593 0.07717 0.71808 -0.37600
C 	C 	0.76553 0.94677 0.71706 -0.04400
C 	C 	0.73103 0.93007 0.75670 -0.05100
H 	H 	0.71953 0.96727 0.76957 0.08200
C 	C 	0.78683 0.02687 0.69759 0.33500
O 	O 	0.88930 0.51720 0.99531 -0.37300
O 	O 	0.96790 0.55740 0.05141 -0.37600
C 	C 	0.84790 0.56780 0.05039 -0.04400
C 	C 	0.86570 0.60230 0.09003 -0.05100
H 	H 	0.91440 0.61380 0.10290 0.08200
C 	C 	0.90670 0.54650 0.03092 0.33500
O 	O 	0.55597 0.85053 0.32864 -0.37300
O 	O 	0.63457 0.89073 0.38474 -0.37600
C 	C 	0.51457 0.90113 0.38372 -0.04400
C 	C 	0.53237 0.93563 0.42336 -0.05100
H 	H 	0.58107 0.94713 0.43623 0.08200
C 	C 	0.57337 0.87983 0.36425 0.33500
O 	O 	0.22263 0.18387 0.66198 -0.37300
O 	O 	0.30123 0.22407 0.71808 -0.37600
C 	C 	0.18123 0.23447 0.71706 -0.04400
C 	C 	0.19903 0.26897 0.75670 -0.05100
H 	H 	0.24773 0.28047 0.76957 0.08200
C 	C 	0.24003 0.21317 0.69759 0.33500
O 	O 	0.62790 0.11070 0.99531 -0.37300
O 	O 	0.58950 0.03210 0.05141 -0.37600
C 	C 	0.71990 0.15210 0.05039 -0.04400
C 	C 	0.73660 0.13430 0.09003 -0.05100
H 	H 	0.69940 0.08560 0.10290 0.08200
C 	C 	0.63980 0.09330 0.03092 0.33500
O 	O 	0.29457 0.44403 0.32864 -0.37300
O 	O 	0.25617 0.36543 0.38474 -0.37600
C 	C 	0.38657 0.48543 0.38372 -0.04400
C 	C 	0.40327 0.46763 0.42336 -0.05100
H 	H 	0.36607 0.41893 0.43623 0.08200
C 	C 	0.30647 0.42663 0.36425 0.33500
O 	O 	0.96123 0.77737 0.66198 -0.37300
O 	O 	0.92283 0.69877 0.71808 -0.37600
C 	C 	0.05323 0.81877 0.71706 -0.04400
C 	C 	0.06993 0.80097 0.75670 -0.05100
H 	H 	0.03273 0.75227 0.76957 0.08200
C 	C 	0.97313 0.75997 0.69759 0.33500
O 	O 	0.62790 0.51720 0.99531 -0.37300
O 	O 	0.58950 0.55740 0.05141 -0.37600
C 	C 	0.71990 0.56780 0.05039 -0.04400
C 	C 	0.73660 0.60230 0.09003 -0.05100
H 	H 	0.69940 0.61380 0.10290 0.08200
C 	C 	0.63980 0.54650 0.03092 0.33500
O 	O 	0.29457 0.85053 0.32864 -0.37300
O 	O 	0.25617 0.89073 0.38474 -0.37600
C 	C 	0.38657 0.90113 0.38372 -0.04400
C 	C 	0.40327 0.93563 0.42336 -0.05100
H 	H 	0.36607 0.94713 0.43623 0.08200
C 	C 	0.30647 0.87983 0.36425 0.33500
O 	O 	0.96123 0.18387 0.66198 -0.37300
O 	O 	0.92283 0.22407 0.71808 -0.37600
C 	C 	0.05323 0.23447 0.71706 -0.04400
C 	C 	0.06993 0.26897 0.75670 -0.05100
H 	H 	0.03273 0.28047 0.76957 0.08200
C 	C 	0.97313 0.21317 0.69759 0.33500
O 	O 	0.48280 0.11070 0.99531 -0.37300
O 	O 	0.44260 0.03210 0.05141 -0.37600
C 	C 	0.43220 0.15210 0.05039 -0.04400
C 	C 	0.39770 0.13430 0.09003 -0.05100
H 	H 	0.38620 0.08560 0.10290 0.08200
C 	C 	0.45350 0.09330 0.03092 0.33500
O 	O 	0.14947 0.44403 0.32864 -0.37300
O 	O 	0.10927 0.36543 0.38474 -0.37600
C 	C 	0.09887 0.48543 0.38372 -0.04400
C 	C 	0.06437 0.46763 0.42336 -0.05100
H 	H 	0.05287 0.41893 0.43623 0.08200
C 	C 	0.12017 0.42663 0.36425 0.33500
O 	O 	0.81613 0.77737 0.66198 -0.37300
O 	O 	0.77593 0.69877 0.71808 -0.37600
C 	C 	0.76553 0.81877 0.71706 -0.04400
C 	C 	0.73103 0.80097 0.75670 -0.05100
H 	H 	0.71953 0.75227 0.76957 0.08200
C 	C 	0.78683 0.75997 0.69759 0.33500
O 	O 	0.88930 0.37210 0.99531 -0.37300
O 	O 	0.96790 0.41050 0.05141 -0.37600
C 	C 	0.84790 0.28010 0.05039 -0.04400
C 	C 	0.86570 0.26340 0.09003 -0.05100
H 	H 	0.91440 0.30060 0.10290 0.08200
C 	C 	0.90670 0.36020 0.03092 0.33500
O 	O 	0.55597 0.70543 0.32864 -0.37300
O 	O 	0.63457 0.74383 0.38474 -0.37600
C 	C 	0.51457 0.61343 0.38372 -0.04400
C 	C 	0.53237 0.59673 0.42336 -0.05100
H 	H 	0.58107 0.63393 0.43623 0.08200
C 	C 	0.57337 0.69353 0.36425 0.33500
O 	O 	0.22263 0.03877 0.66198 -0.37300
O 	O 	0.30123 0.07717 0.71808 -0.37600
C 	C 	0.18123 0.94677 0.71706 -0.04400
C 	C 	0.19903 0.93007 0.75670 -0.05100
H 	H 	0.24773 0.96727 0.76957 0.08200
C 	C 	0.24003 0.02687 0.69759 0.33500
O 	O 	0.51720 0.62790 0.00469 -0.37300
O 	O 	0.55740 0.58950 0.94859 -0.37600
C 	C 	0.56780 0.71990 0.94961 -0.04400
C 	C 	0.60230 0.73660 0.90997 -0.05100
H 	H 	0.61380 0.69940 0.89710 0.08200
C 	C 	0.54650 0.63980 0.96908 0.33500
O 	O 	0.18387 0.96123 0.33802 -0.37300
O 	O 	0.22407 0.92283 0.28192 -0.37600
C 	C 	0.23447 0.05323 0.28294 -0.04400
C 	C 	0.26897 0.06993 0.24330 -0.05100
H 	H 	0.28047 0.03273 0.23043 0.08200
C 	C 	0.21317 0.97313 0.30241 0.33500
O 	O 	0.85053 0.29457 0.67136 -0.37300
O 	O 	0.89073 0.25617 0.61526 -0.37600
C 	C 	0.90113 0.38657 0.61628 -0.04400
C 	C 	0.93563 0.40327 0.57664 -0.05100
H 	H 	0.94713 0.36607 0.56377 0.08200
C 	C 	0.87983 0.30647 0.63575 0.33500
O 	O 	0.11070 0.48280 0.00469 -0.37300
O 	O 	0.03210 0.44260 0.94859 -0.37600
C 	C 	0.15210 0.43220 0.94961 -0.04400
C 	C 	0.13430 0.39770 0.90997 -0.05100
H 	H 	0.08560 0.38620 0.89710 0.08200
C 	C 	0.09330 0.45350 0.96908 0.33500
O 	O 	0.77737 0.81613 0.33802 -0.37300
O 	O 	0.69877 0.77593 0.28192 -0.37600
C 	C 	0.81877 0.76553 0.28294 -0.04400
C 	C 	0.80097 0.73103 0.24330 -0.05100
H 	H 	0.75227 0.71953 0.23043 0.08200
C 	C 	0.75997 0.78683 0.30241 0.33500
O 	O 	0.44403 0.14947 0.67136 -0.37300
O 	O 	0.36543 0.10927 0.61526 -0.37600
C 	C 	0.48543 0.09887 0.61628 -0.04400
C 	C 	0.46763 0.06437 0.57664 -0.05100
H 	H 	0.41893 0.05287 0.56377 0.08200
C 	C 	0.42663 0.12017 0.63575 0.33500
O 	O 	0.37210 0.88930 0.00469 -0.37300
O 	O 	0.41050 0.96790 0.94859 -0.37600
C 	C 	0.28010 0.84790 0.94961 -0.04400
C 	C 	0.26340 0.86570 0.90997 -0.05100
H 	H 	0.30060 0.91440 0.89710 0.08200
C 	C 	0.36020 0.90670 0.96908 0.33500
O 	O 	0.03877 0.22263 0.33802 -0.37300
O 	O 	0.07717 0.30123 0.28192 -0.37600
C 	C 	0.94677 0.18123 0.28294 -0.04400
C 	C 	0.93007 0.19903 0.24330 -0.05100
H 	H 	0.96727 0.24773 0.23043 0.08200
C 	C 	0.02687 0.24003 0.30241 0.33500
O 	O 	0.70543 0.55597 0.67136 -0.37300
O 	O 	0.74383 0.63457 0.61526 -0.37600
C 	C 	0.61343 0.51457 0.61628 -0.04400
C 	C 	0.59673 0.53237 0.57664 -0.05100
H 	H 	0.63393 0.58107 0.56377 0.08200
C 	C 	0.69353 0.57337 0.63575 0.33500
Cu	Cu	0.47692 0.52308 0.03342 0.92900
O 	O 	0.45000 0.55000 0.09330 -0.12100
O 	O 	0.43340 0.56660 0.08370 -0.06600
Cu	Cu	0.14359 0.85641 0.36675 0.92900
O 	O 	0.11667 0.88333 0.42663 -0.12100
O 	O 	0.10007 0.89993 0.41703 -0.06600
Cu	Cu	0.81025 0.18975 0.70009 0.92900
O 	O 	0.78333 0.21667 0.75997 -0.12100
O 	O 	0.76673 0.23327 0.75037 -0.06600
Cu	Cu	0.47692 0.95384 0.03342 0.92900
O 	O 	0.45000 0.90000 0.09330 -0.12100
O 	O 	0.43340 0.86680 0.08370 -0.06600
Cu	Cu	0.14359 0.28717 0.36675 0.92900
O 	O 	0.11667 0.23333 0.42663 -0.12100
O 	O 	0.10007 0.20013 0.41703 -0.06600
Cu	Cu	0.81025 0.62051 0.70009 0.92900
O 	O 	0.78333 0.56667 0.75997 -0.12100
O 	O 	0.76673 0.53347 0.75037 -0.06600
Cu	Cu	0.04616 0.52308 0.03342 0.92900
O 	O 	0.10000 0.55000 0.09330 -0.12100
O 	O 	0.13320 0.56660 0.08370 -0.06600
Cu	Cu	0.71283 0.85641 0.36675 0.92900
O 	O 	0.76667 0.88333 0.42663 -0.12100
O 	O 	0.79987 0.89993 0.41703 -0.06600
Cu	Cu	0.37949 0.18975 0.70009 0.92900
O 	O 	0.43333 0.21667 0.75997 -0.12100
O 	O 	0.46653 0.23327 0.75037 -0.06600
Cu	Cu	0.52308 0.47692 0.96658 0.92900
O 	O 	0.55000 0.45000 0.90670 -0.12100
O 	O 	0.56660 0.43340 0.91630 -0.06600
Cu	Cu	0.18975 0.81025 0.29991 0.92900
O 	O 	0.21667 0.78333 0.24003 -0.12100
O 	O 	0.23327 0.76673 0.24963 -0.06600
Cu	Cu	0.85641 0.14359 0.63325 0.92900
O 	O 	0.88333 0.11667 0.57337 -0.12100
O 	O 	0.89993 0.10007 0.58297 -0.06600
Cu	Cu	0.95384 0.47692 0.96658 0.92900
O 	O 	0.90000 0.45000 0.90670 -0.12100
O 	O 	0.86680 0.43340 0.91630 -0.06600
Cu	Cu	0.62051 0.81025 0.29991 0.92900
O 	O 	0.56667 0.78333 0.24003 -0.12100
O 	O 	0.53347 0.76673 0.24963 -0.06600
Cu	Cu	0.28717 0.14359 0.63325 0.92900
O 	O 	0.23333 0.11667 0.57337 -0.12100
O 	O 	0.20013 0.10007 0.58297 -0.06600
Cu	Cu	0.52308 0.04616 0.96658 0.92900
O 	O 	0.55000 0.10000 0.90670 -0.12100
O 	O 	0.56660 0.13320 0.91630 -0.06600
Cu	Cu	0.18975 0.37949 0.29991 0.92900
O 	O 	0.21667 0.43333 0.24003 -0.12100
O 	O 	0.23327 0.46653 0.24963 -0.06600
Cu	Cu	0.85641 0.71283 0.63325 0.92900
O 	O 	0.88333 0.76667 0.57337 -0.12100
O 	O 	0.89993 0.79987 0.58297 -0.06600
C 	C 	0.22455 0.44910 0.96860 -0.00300
H 	H 	0.23605 0.47210 0.99460 0.07800
C 	C 	0.19055 0.38110 0.89020 0.04300
C 	C 	0.17285 0.34570 0.84970 -0.00600
C 	C 	0.89122 0.78243 0.30193 -0.00300
H 	H 	0.90272 0.80543 0.32793 0.07800
C 	C 	0.85722 0.71443 0.22353 0.04300
C 	C 	0.83952 0.67903 0.18303 -0.00600
C 	C 	0.55788 0.11577 0.63527 -0.00300
H 	H 	0.56938 0.13877 0.66127 0.07800
C 	C 	0.52388 0.04777 0.55687 0.04300
C 	C 	0.50618 0.01237 0.51637 -0.00600
C 	C 	0.55090 0.77545 0.96860 -0.00300
H 	H 	0.52790 0.76395 0.99460 0.07800
C 	C 	0.61890 0.80945 0.89020 0.04300
C 	C 	0.65430 0.82715 0.84970 -0.00600
C 	C 	0.21757 0.10878 0.30193 -0.00300
H 	H 	0.19457 0.09728 0.32793 0.07800
C 	C 	0.28557 0.14278 0.22353 0.04300
C 	C 	0.32097 0.16048 0.18303 -0.00600
C 	C 	0.88423 0.44212 0.63527 -0.00300
H 	H 	0.86123 0.43062 0.66127 0.07800
C 	C 	0.95223 0.47612 0.55687 0.04300
C 	C 	0.98763 0.49382 0.51637 -0.00600
C 	C 	0.22455 0.77545 0.96860 -0.00300
H 	H 	0.23605 0.76395 0.99460 0.07800
C 	C 	0.19055 0.80945 0.89020 0.04300
C 	C 	0.17285 0.82715 0.84970 -0.00600
C 	C 	0.89122 0.10878 0.30193 -0.00300
H 	H 	0.90272 0.09728 0.32793 0.07800
C 	C 	0.85722 0.14278 0.22353 0.04300
C 	C 	0.83952 0.16048 0.18303 -0.00600
C 	C 	0.55788 0.44212 0.63527 -0.00300
H 	H 	0.56938 0.43062 0.66127 0.07800
C 	C 	0.52388 0.47612 0.55687 0.04300
C 	C 	0.50618 0.49382 0.51637 -0.00600
C 	C 	0.44910 0.22455 0.03140 -0.00300
H 	H 	0.47210 0.23605 0.00540 0.07800
C 	C 	0.38110 0.19055 0.10980 0.04300
C 	C 	0.34570 0.17285 0.15030 -0.00600
C 	C 	0.11577 0.55788 0.36473 -0.00300
H 	H 	0.13877 0.56938 0.33873 0.07800
C 	C 	0.04777 0.52388 0.44313 0.04300
C 	C 	0.01237 0.50618 0.48363 -0.00600
C 	C 	0.78243 0.89122 0.69807 -0.00300
H 	H 	0.80543 0.90272 0.67207 0.07800
C 	C 	0.71443 0.85722 0.77647 0.04300
C 	C 	0.67903 0.83952 0.81697 -0.00600
C 	C 	0.77545 0.55090 0.03140 -0.00300
H 	H 	0.76395 0.52790 0.00540 0.07800
C 	C 	0.80945 0.61890 0.10980 0.04300
C 	C 	0.82715 0.65430 0.15030 -0.00600
C 	C 	0.44212 0.88423 0.36473 -0.00300
H 	H 	0.43062 0.86123 0.33873 0.07800
C 	C 	0.47612 0.95223 0.44313 0.04300
C 	C 	0.49382 0.98763 0.48363 -0.00600
C 	C 	0.10878 0.21757 0.69807 -0.00300
H 	H 	0.09728 0.19457 0.67207 0.07800
C 	C 	0.14278 0.28557 0.77647 0.04300
C 	C 	0.16048 0.32097 0.81697 -0.00600
C 	C 	0.77545 0.22455 0.03140 -0.00300
H 	H 	0.76395 0.23605 0.00540 0.07800
C 	C 	0.80945 0.19055 0.10980 0.04300
C 	C 	0.82715 0.17285 0.15030 -0.00600
C 	C 	0.44212 0.55788 0.36473 -0.00300
H 	H 	0.43062 0.56938 0.33873 0.07800
C 	C 	0.47612 0.52388 0.44313 0.04300
C 	C 	0.49382 0.50618 0.48363 -0.00600
C 	C 	0.10878 0.89122 0.69807 -0.00300
H 	H 	0.09728 0.90272 0.67207 0.07800
C 	C 	0.14278 0.85722 0.77647 0.04300
C 	C 	0.16048 0.83952 0.81697 -0.00600
