data_crystal

_cell_length_a 11.67140
_cell_length_b 11.91860
_cell_length_c 12.10940
_cell_angle_alpha 65.09600
_cell_angle_beta  79.89700
_cell_angle_gamma 72.27500

_symmetry_space_group_name_	'P 1'
_symmetry_space_group_name_H-M	'P 1'

loop_
_symmetry_equiv_pos_as_xyz
  x,y,z

loop_
_atom_site_label
_atom_site_type_symbol
_atom_site_fract_x
_atom_site_fract_y
_atom_site_fract_z
_atom_site_charge
O 	O 	0.94760 0.09590 0.12550 -0.34100
O 	O 	0.95800 0.07240 0.31440 -0.33900
O 	O 	0.94950 0.64310 0.58060 -0.31300
O 	O 	0.91320 0.84890 0.54490 -0.30400
N 	N 	0.01060 0.84510 0.18010 -0.29300
N 	N 	0.02430 0.72010 0.22740 -0.09600
N 	N 	0.00350 0.68080 0.34690 -0.30800
N 	N 	0.19490 0.99960 0.00710 -0.12500
N 	N 	0.79710 0.54110 0.48120 -0.20000
N 	N 	0.18050 0.86780 0.47050 -0.24200
C 	C 	0.97900 0.88800 0.27310 0.13600
C 	C 	0.97410 0.78280 0.37730 0.08600
C 	C 	0.95970 0.02920 0.23780 0.25700
C 	C 	0.94430 0.75780 0.51160 0.31500
C 	C 	0.28370 0.89500 0.02700 -0.17900
H 	H 	0.26480 0.81890 0.04330 0.07100
C 	C 	0.40160 0.89200 0.02500 0.36300
H 	H 	0.45990 0.81490 0.03950 -0.10400
C 	C 	0.43630 0.00070 0.00220 -0.60800
C 	C 	0.34340 0.10840 0.98440 0.32800
H 	H 	0.35920 0.18500 0.97170 -0.09900
C 	C 	0.22690 0.10400 0.98510 -0.21700
H 	H 	0.16660 0.18000 0.96900 0.05300
C 	C 	0.72510 0.52540 0.58050 0.09000
H 	H 	0.75940 0.47510 0.65540 0.01100
C 	C 	0.60310 0.57830 0.58070 -0.12900
H 	H 	0.55730 0.56370 0.65410 0.08400
C 	C 	0.54850 0.65310 0.47180 0.06000
C 	C 	0.62370 0.66630 0.36680 -0.13100
H 	H 	0.59210 0.71400 0.29040 0.07900
C 	C 	0.74540 0.60830 0.37670 0.08900
H 	H 	0.79370 0.61720 0.30530 0.03000
C 	C 	0.41910 0.72320 0.46740 0.06700
C 	C 	0.33790 0.68030 0.56340 -0.13600
H 	H 	0.36230 0.60230 0.62830 0.07800
C 	C 	0.22130 0.75350 0.56230 0.07200
H 	H 	0.16810 0.72330 0.62760 -0.02000
C 	C 	0.25700 0.90540 0.37880 0.09500
H 	H 	0.23000 0.98250 0.31380 -0.00400
C 	C 	0.37590 0.83720 0.37300 -0.14300
H 	H 	0.42630 0.86850 0.30520 0.09300
O 	O 	0.05240 0.90410 0.87450 -0.45200
O 	O 	0.04200 0.92760 0.68560 -0.46500
O 	O 	0.05050 0.35690 0.41940 -0.48600
O 	O 	0.08680 0.15110 0.45510 -0.47900
N 	N 	0.98940 0.15490 0.81990 -0.03500
N 	N 	0.97570 0.27990 0.77260 -0.01600
N 	N 	0.99650 0.31920 0.65310 -0.04700
N 	N 	0.80510 0.00040 0.99290 -0.31400
N 	N 	0.20290 0.45890 0.51880 -0.26500
N 	N 	0.81950 0.13220 0.52950 -0.18600
C 	C 	0.02100 0.11200 0.72690 -0.28300
C 	C 	0.02590 0.21720 0.62270 -0.16500
C 	C 	0.04030 0.97080 0.76220 0.46100
C 	C 	0.05570 0.24220 0.48840 0.33000
C 	C 	0.71630 0.10500 0.97300 0.33800
H 	H 	0.73520 0.18110 0.95670 -0.07800
C 	C 	0.59840 0.10800 0.97500 -0.60300
H 	H 	0.54010 0.18510 0.96050 0.24500
C 	C 	0.56370 0.99930 0.99780 0.67700
C 	C 	0.65660 0.89160 0.01560 -0.56500
H 	H 	0.64080 0.81500 0.02830 0.24100
C 	C 	0.77310 0.89600 0.01490 0.36600
H 	H 	0.83340 0.82000 0.03100 -0.05000
C 	C 	0.27490 0.47460 0.41950 0.09300
H 	H 	0.24060 0.52490 0.34460 -0.02600
C 	C 	0.39690 0.42170 0.41930 -0.15500
H 	H 	0.44270 0.43630 0.34590 0.07900
C 	C 	0.45150 0.34690 0.52820 0.07000
C 	C 	0.37630 0.33370 0.63320 -0.15900
H 	H 	0.40790 0.28600 0.70960 0.08000
C 	C 	0.25460 0.39170 0.62330 0.09300
H 	H 	0.20630 0.38280 0.69470 -0.04800
C 	C 	0.58090 0.27680 0.53260 0.04600
C 	C 	0.66210 0.31970 0.43660 -0.11500
H 	H 	0.63770 0.39770 0.37170 0.07500
C 	C 	0.77870 0.24650 0.43770 0.06600
H 	H 	0.83190 0.27670 0.37240 0.04900
C 	C 	0.74300 0.09460 0.62120 0.08500
H 	H 	0.77000 0.01750 0.68620 0.01200
C 	C 	0.62410 0.16280 0.62700 -0.12900
H 	H 	0.57370 0.13150 0.69480 0.07200
Mn	Mn	-0.00000 0.00000 -0.00000 1.13800
Mn	Mn	0.00000 0.50000 0.50000 1.19100
Mn	Mn	0.00000 0.00000 0.50000 1.18800
