data_crystal

_cell_length_a 17.98300
_cell_length_b 9.85900
_cell_length_c 19.84000
_cell_angle_alpha 90.00000
_cell_angle_beta  106.24000
_cell_angle_gamma 90.00000

_symmetry_space_group_name_	'P 1'
_symmetry_space_group_name_H-M	'P 1'

loop_
_symmetry_equiv_pos_as_xyz
  x,y,z

loop_
_atom_site_label
_atom_site_type_symbol
_atom_site_fract_x
_atom_site_fract_y
_atom_site_fract_z
_atom_site_charge
Ga	Ga	0.07520 0.07190 0.50110 2.10100
Ga	Ga	0.19060 0.57910 0.66120 2.09900
Ga	Ga	0.19030 0.81750 0.75940 2.10200
P 	P 	0.08120 0.82770 0.60490 0.64500
P 	P 	0.14090 0.27200 0.63160 0.60600
P 	P 	0.16560 0.01960 0.38490 0.59400
F 	F 	0.00830 0.92270 0.44990 -0.76500
F 	F 	0.14580 0.63770 0.73970 -0.75200
F 	F 	0.24440 0.75350 0.69090 -0.77200
O 	O 	0.11310 0.68580 0.59940 -0.49700
O 	O 	0.11850 0.93020 0.56660 -0.49900
O 	O 	0.99240 0.81840 0.57170 -0.46600
O 	O 	0.09800 0.87070 0.68310 -0.45100
O 	O 	0.15240 0.05800 0.45380 -0.49800
O 	O 	0.12140 0.22760 0.55510 -0.48700
O 	O 	0.14550 0.13960 0.33280 -0.51000
O 	O 	0.22270 0.23310 0.67110 -0.49700
O 	O 	0.08310 0.19700 0.66750 -0.12800
O 	O 	0.12480 0.42270 0.63840 -0.49400
O 	O 	0.24860 0.96160 0.40070 -0.51900
O 	O 	0.10970 0.90070 0.35020 -0.15200
O 	O 	0.26350 0.49110 0.73850 -0.73800
H 	H 	0.28000 0.46000 0.21000 0.07300
Ga	Ga	0.57520 0.57190 0.50110 2.10200
Ga	Ga	0.69060 0.07910 0.66120 2.09900
Ga	Ga	0.69030 0.31750 0.75940 2.10200
P 	P 	0.58120 0.32770 0.60490 0.64400
P 	P 	0.64090 0.77200 0.63160 0.60600
P 	P 	0.66560 0.51960 0.38490 0.59100
F 	F 	0.50830 0.42270 0.44990 -0.76400
F 	F 	0.64580 0.13770 0.73970 -0.75300
F 	F 	0.74440 0.25350 0.69090 -0.77200
O 	O 	0.61310 0.18580 0.59940 -0.49700
O 	O 	0.61850 0.43020 0.56660 -0.50000
O 	O 	0.49240 0.31840 0.57170 -0.46400
O 	O 	0.59800 0.37070 0.68310 -0.45200
O 	O 	0.65240 0.55800 0.45380 -0.49700
O 	O 	0.62140 0.72760 0.55510 -0.48700
O 	O 	0.64550 0.63960 0.33280 -0.50900
O 	O 	0.72270 0.73310 0.67110 -0.49600
O 	O 	0.58310 0.69700 0.66750 -0.12700
O 	O 	0.62480 0.92270 0.63840 -0.49300
O 	O 	0.74860 0.46160 0.40070 -0.51800
O 	O 	0.60970 0.40070 0.35020 -0.14900
O 	O 	0.76350 0.99110 0.73850 -0.73400
H 	H 	0.78000 0.96000 0.21000 0.06800
Ga	Ga	0.92480 0.07190 0.99890 2.09900
Ga	Ga	0.80940 0.57910 0.83880 2.10000
Ga	Ga	0.80970 0.81750 0.74060 2.10200
P 	P 	0.91880 0.82770 0.89510 0.63800
P 	P 	0.85910 0.27200 0.86840 0.60600
P 	P 	0.83440 0.01960 0.11510 0.59900
F 	F 	0.99170 0.92270 0.05010 -0.76200
F 	F 	0.85420 0.63770 0.76030 -0.75300
F 	F 	0.75560 0.75350 0.80910 -0.77100
O 	O 	0.88690 0.68580 0.90060 -0.49700
O 	O 	0.88150 0.93020 0.93340 -0.49900
O 	O 	0.00760 0.81840 0.92830 -0.45500
O 	O 	0.90200 0.87070 0.81690 -0.45300
O 	O 	0.84760 0.05800 0.04620 -0.49200
O 	O 	0.87860 0.22760 0.94490 -0.49200
O 	O 	0.85450 0.13960 0.16720 -0.50800
O 	O 	0.77730 0.23310 0.82890 -0.49800
O 	O 	0.91690 0.19700 0.83250 -0.13100
O 	O 	0.87520 0.42270 0.86160 -0.49600
O 	O 	0.75140 0.96160 0.09930 -0.52200
O 	O 	0.89030 0.90070 0.14980 -0.15200
O 	O 	0.73650 0.49110 0.76150 -0.73900
H 	H 	0.72000 0.46000 0.29000 0.07300
Ga	Ga	0.42480 0.57190 0.99890 2.10200
Ga	Ga	0.30940 0.07910 0.83880 2.09900
Ga	Ga	0.30970 0.31750 0.74060 2.10200
P 	P 	0.41880 0.32770 0.89510 0.64400
P 	P 	0.35910 0.77200 0.86840 0.60600
P 	P 	0.33440 0.51960 0.11510 0.59200
F 	F 	0.49170 0.42270 0.05010 -0.76300
F 	F 	0.35420 0.13770 0.76030 -0.75300
F 	F 	0.25560 0.25350 0.80910 -0.77100
O 	O 	0.38690 0.18580 0.90060 -0.49700
O 	O 	0.38150 0.43020 0.93340 -0.49900
O 	O 	0.50760 0.31840 0.92830 -0.46500
O 	O 	0.40200 0.37070 0.81690 -0.45200
O 	O 	0.34760 0.55800 0.04620 -0.49900
O 	O 	0.37860 0.72760 0.94490 -0.48400
O 	O 	0.35450 0.63960 0.16720 -0.51000
O 	O 	0.27730 0.73310 0.82890 -0.49600
O 	O 	0.41690 0.69700 0.83250 -0.12700
O 	O 	0.37520 0.92270 0.86160 -0.49100
O 	O 	0.25140 0.46160 0.09930 -0.51900
O 	O 	0.39030 0.40070 0.14980 -0.14900
O 	O 	0.23650 0.99110 0.76150 -0.73200
H 	H 	0.22000 0.96000 0.29000 0.06900
Ga	Ga	0.92480 0.92810 0.49890 2.10200
Ga	Ga	0.80940 0.42090 0.33880 2.10000
Ga	Ga	0.80970 0.18250 0.24060 2.10200
P 	P 	0.91880 0.17230 0.39510 0.64500
P 	P 	0.85910 0.72800 0.36840 0.60600
P 	P 	0.83440 0.98040 0.61510 0.59400
F 	F 	0.99170 0.07730 0.55010 -0.76500
F 	F 	0.85420 0.36230 0.26030 -0.75200
F 	F 	0.75560 0.24650 0.30910 -0.77200
O 	O 	0.88690 0.31420 0.40060 -0.49700
O 	O 	0.88150 0.06980 0.43340 -0.49900
O 	O 	0.00760 0.18160 0.42830 -0.46600
O 	O 	0.90200 0.12930 0.31690 -0.45100
O 	O 	0.84760 0.94200 0.54620 -0.49800
O 	O 	0.87860 0.77240 0.44490 -0.48700
O 	O 	0.85450 0.86040 0.66720 -0.51000
O 	O 	0.77730 0.76690 0.32890 -0.49700
O 	O 	0.91690 0.80300 0.33250 -0.12800
O 	O 	0.87520 0.57730 0.36160 -0.49400
O 	O 	0.75140 0.03840 0.59930 -0.51900
O 	O 	0.89030 0.09930 0.64980 -0.15200
O 	O 	0.73650 0.50890 0.26150 -0.73800
H 	H 	0.72000 0.54000 0.79000 0.07300
Ga	Ga	0.42480 0.42810 0.49890 2.10200
Ga	Ga	0.30940 0.92090 0.33880 2.09900
Ga	Ga	0.30970 0.68250 0.24060 2.10200
P 	P 	0.41880 0.67230 0.39510 0.64400
P 	P 	0.35910 0.22800 0.36840 0.60600
P 	P 	0.33440 0.48040 0.61510 0.59100
F 	F 	0.49170 0.57730 0.55010 -0.76400
F 	F 	0.35420 0.86230 0.26030 -0.75300
F 	F 	0.25560 0.74650 0.30910 -0.77200
O 	O 	0.38690 0.81420 0.40060 -0.49700
O 	O 	0.38150 0.56980 0.43340 -0.50000
O 	O 	0.50760 0.68160 0.42830 -0.46400
O 	O 	0.40200 0.62930 0.31690 -0.45200
O 	O 	0.34760 0.44200 0.54620 -0.49700
O 	O 	0.37860 0.27240 0.44490 -0.48700
O 	O 	0.35450 0.36040 0.66720 -0.50900
O 	O 	0.27730 0.26690 0.32890 -0.49600
O 	O 	0.41690 0.30300 0.33250 -0.12700
O 	O 	0.37520 0.07730 0.36160 -0.49300
O 	O 	0.25140 0.53840 0.59930 -0.51800
O 	O 	0.39030 0.59930 0.64980 -0.14900
O 	O 	0.23650 0.00890 0.26150 -0.73400
H 	H 	0.22000 0.04000 0.79000 0.06800
Ga	Ga	0.07520 0.92810 0.00110 2.09900
Ga	Ga	0.19060 0.42090 0.16120 2.10000
Ga	Ga	0.19030 0.18250 0.25940 2.10200
P 	P 	0.08120 0.17230 0.10490 0.63800
P 	P 	0.14090 0.72800 0.13160 0.60600
P 	P 	0.16560 0.98040 0.88490 0.59900
F 	F 	0.00830 0.07730 0.94990 -0.76200
F 	F 	0.14580 0.36230 0.23970 -0.75300
F 	F 	0.24440 0.24650 0.19090 -0.77100
O 	O 	0.11310 0.31420 0.09940 -0.49700
O 	O 	0.11850 0.06980 0.06660 -0.49900
O 	O 	0.99240 0.18160 0.07170 -0.45500
O 	O 	0.09800 0.12930 0.18310 -0.45300
O 	O 	0.15240 0.94200 0.95380 -0.49200
O 	O 	0.12140 0.77240 0.05510 -0.49200
O 	O 	0.14550 0.86040 0.83280 -0.50800
O 	O 	0.22270 0.76690 0.17110 -0.49800
O 	O 	0.08310 0.80300 0.16750 -0.13100
O 	O 	0.12480 0.57730 0.13840 -0.49600
O 	O 	0.24860 0.03840 0.90070 -0.52200
O 	O 	0.10970 0.09930 0.85020 -0.15200
O 	O 	0.26350 0.50890 0.23850 -0.73900
H 	H 	0.28000 0.54000 0.71000 0.07300
Ga	Ga	0.57520 0.42810 0.00110 2.10200
Ga	Ga	0.69060 0.92090 0.16120 2.09900
Ga	Ga	0.69030 0.68250 0.25940 2.10200
P 	P 	0.58120 0.67230 0.10490 0.64400
P 	P 	0.64090 0.22800 0.13160 0.60600
P 	P 	0.66560 0.48040 0.88490 0.59200
F 	F 	0.50830 0.57730 0.94990 -0.76300
F 	F 	0.64580 0.86230 0.23970 -0.75300
F 	F 	0.74440 0.74650 0.19090 -0.77100
O 	O 	0.61310 0.81420 0.09940 -0.49700
O 	O 	0.61850 0.56980 0.06660 -0.49900
O 	O 	0.49240 0.68160 0.07170 -0.46500
O 	O 	0.59800 0.62930 0.18310 -0.45200
O 	O 	0.65240 0.44200 0.95380 -0.49900
O 	O 	0.62140 0.27240 0.05510 -0.48400
O 	O 	0.64550 0.36040 0.83280 -0.51000
O 	O 	0.72270 0.26690 0.17110 -0.49600
O 	O 	0.58310 0.30300 0.16750 -0.12700
O 	O 	0.62480 0.07730 0.13840 -0.49100
O 	O 	0.74860 0.53840 0.90070 -0.51900
O 	O 	0.60970 0.59930 0.85020 -0.14900
O 	O 	0.76350 0.00890 0.23850 -0.73200
H 	H 	0.78000 0.04000 0.71000 0.06900
