data_crystal

_cell_length_a 11.24800
_cell_length_b 14.94500
_cell_length_c 16.80100
_cell_angle_alpha 90.00000
_cell_angle_beta  90.00000
_cell_angle_gamma 103.73200

_symmetry_space_group_name_	'P 1'
_symmetry_space_group_name_H-M	'P 1'

loop_
_symmetry_equiv_pos_as_xyz
  x,y,z

loop_
_atom_site_label
_atom_site_type_symbol
_atom_site_fract_x
_atom_site_fract_y
_atom_site_fract_z
_atom_site_charge
Ni	Ni	0.01458 0.86709 0.04010 1.10100
Ni	Ni	0.98542 0.63291 0.54010 1.11900
Ni	Ni	0.98542 0.13291 0.95990 1.11600
Ni	Ni	0.01458 0.36709 0.45990 1.10500
H 	H 	0.96920 0.34040 0.04120 0.28900
H 	H 	0.82720 0.92280 0.14590 0.01300
H 	H 	0.78840 0.79000 0.94230 0.02300
H 	H 	0.62570 0.93270 0.14410 0.07500
H 	H 	0.58380 0.79660 0.93510 0.07400
H 	H 	0.44840 0.93800 0.14180 0.07500
H 	H 	0.40650 0.81120 0.92940 0.07400
H 	H 	0.24380 0.94030 0.13710 0.01400
H 	H 	0.20070 0.81400 0.93350 0.00700
H 	H 	0.00910 0.56290 0.07220 0.06700
H 	H 	0.00130 0.69690 0.28120 0.05900
H 	H 	0.05040 0.43670 0.28130 0.04600
H 	H 	0.03080 0.15960 0.54120 0.28900
H 	H 	0.17280 0.57720 0.64590 -0.00500
H 	H 	0.21160 0.71000 0.44230 0.01700
H 	H 	0.37430 0.56730 0.64410 0.07400
H 	H 	0.41620 0.70340 0.43510 0.07600
H 	H 	0.55160 0.56200 0.64180 0.07400
H 	H 	0.59350 0.68880 0.42940 0.07600
H 	H 	0.75620 0.55970 0.63710 0.01400
H 	H 	0.79930 0.68600 0.43350 0.01500
H 	H 	0.99090 0.93710 0.57220 0.08200
H 	H 	0.99870 0.80310 0.78120 0.06700
H 	H 	0.94960 0.06330 0.78130 0.04200
H 	H 	0.03080 0.65960 0.95880 0.28900
H 	H 	0.17280 0.07720 0.85410 -0.00400
H 	H 	0.21160 0.21000 0.05770 0.01700
H 	H 	0.37430 0.06730 0.85590 0.07400
H 	H 	0.41620 0.20340 0.06490 0.07600
H 	H 	0.55160 0.06200 0.85820 0.07400
H 	H 	0.59350 0.18880 0.07060 0.07600
H 	H 	0.75620 0.05970 0.86290 0.01400
H 	H 	0.79930 0.18600 0.06650 0.01500
H 	H 	0.99090 0.43710 0.92780 0.07800
H 	H 	0.99870 0.30310 0.71880 0.06600
H 	H 	0.94960 0.56330 0.71870 0.04100
H 	H 	0.96920 0.84040 0.45880 0.29000
H 	H 	0.82720 0.42280 0.35410 0.01300
H 	H 	0.78840 0.29000 0.55770 0.02300
H 	H 	0.62570 0.43270 0.35590 0.07600
H 	H 	0.58380 0.29660 0.56490 0.07400
H 	H 	0.44840 0.43800 0.35820 0.07600
H 	H 	0.40650 0.31120 0.57060 0.07400
H 	H 	0.24380 0.44030 0.36290 0.01400
H 	H 	0.20070 0.31400 0.56650 0.00800
H 	H 	0.00910 0.06290 0.42780 0.06900
H 	H 	0.00130 0.19690 0.21880 0.05800
H 	H 	0.05040 0.93670 0.21870 0.04600
C 	C 	0.77730 0.89740 0.10200 0.07700
C 	C 	0.75510 0.82010 0.98360 0.07000
C 	C 	0.65730 0.90370 0.10140 -0.11800
C 	C 	0.63260 0.82390 0.97880 -0.11400
C 	C 	0.58300 0.86720 0.03780 0.05500
C 	C 	0.45120 0.87140 0.03720 0.05500
C 	C 	0.39990 0.91110 0.09770 -0.12100
C 	C 	0.37520 0.83680 0.97420 -0.12000
C 	C 	0.27650 0.91190 0.09450 0.08000
C 	C 	0.25150 0.83960 0.97690 0.08400
C 	C 	0.02200 0.56210 0.38400 0.34900
C 	C 	0.00790 0.64330 0.16910 -0.07800
C 	C 	0.01440 0.56420 0.12870 0.02200
C 	C 	0.00950 0.64380 0.25270 0.02700
C 	C 	0.02860 0.48610 0.16960 -0.09200
C 	C 	0.02310 0.56590 0.29310 -0.10300
C 	C 	0.03630 0.48810 0.25290 0.02900
C 	C 	0.03780 0.40170 0.12660 0.35200
C 	C 	-0.00000 0.72700 0.12350 0.26800
C 	C 	0.22270 0.60260 0.60200 0.07800
C 	C 	0.24490 0.67990 0.48360 0.07500
C 	C 	0.34270 0.59630 0.60140 -0.12300
C 	C 	0.36740 0.67610 0.47880 -0.11800
C 	C 	0.41700 0.63280 0.53780 0.05700
C 	C 	0.54880 0.62860 0.53720 0.05600
C 	C 	0.60010 0.58890 0.59770 -0.12000
C 	C 	0.62480 0.66320 0.47420 -0.11900
C 	C 	0.72350 0.58810 0.59450 0.08100
C 	C 	0.74850 0.66040 0.47690 0.07800
C 	C 	0.97800 0.93790 0.88400 0.40500
C 	C 	0.99210 0.85670 0.66910 -0.05700
C 	C 	0.98560 0.93580 0.62870 0.02800
C 	C 	0.99050 0.85620 0.75270 0.03300
C 	C 	0.97140 0.01390 0.66960 -0.10200
C 	C 	0.97690 0.93410 0.79310 -0.11600
C 	C 	0.96370 0.01190 0.75290 0.05100
C 	C 	0.96220 0.09830 0.62660 0.41800
C 	C 	-0.00000 0.77300 0.62350 0.25800
C 	C 	0.22270 0.10260 0.89800 0.07900
C 	C 	0.24490 0.17990 0.01640 0.07100
C 	C 	0.34270 0.09630 0.89860 -0.12300
C 	C 	0.36740 0.17610 0.02120 -0.11700
C 	C 	0.41700 0.13280 0.96220 0.05900
C 	C 	0.54880 0.12860 0.96280 0.05400
C 	C 	0.60010 0.08890 0.90230 -0.12000
C 	C 	0.62480 0.16320 0.02580 -0.11800
C 	C 	0.72350 0.08810 0.90550 0.08100
C 	C 	0.74850 0.16040 0.02310 0.08400
C 	C 	0.97800 0.43790 0.61600 0.41600
C 	C 	0.99210 0.35670 0.83090 -0.06400
C 	C 	0.98560 0.43580 0.87130 0.03500
C 	C 	0.99050 0.35620 0.74730 0.03800
C 	C 	0.97140 0.51390 0.83040 -0.10600
C 	C 	0.97690 0.43410 0.70690 -0.11700
C 	C 	0.96370 0.51190 0.74710 0.05100
C 	C 	0.96220 0.59830 0.87340 0.41100
C 	C 	0.00000 0.27300 0.87650 0.26400
C 	C 	0.77730 0.39740 0.39800 0.07700
C 	C 	0.75510 0.32010 0.51640 0.07500
C 	C 	0.65730 0.40370 0.39860 -0.11800
C 	C 	0.63260 0.32390 0.52120 -0.11400
C 	C 	0.58300 0.36720 0.46220 0.05500
C 	C 	0.45120 0.37140 0.46280 0.05800
C 	C 	0.39990 0.41110 0.40230 -0.12100
C 	C 	0.37520 0.33680 0.52580 -0.12100
C 	C 	0.27650 0.41190 0.40550 0.08100
C 	C 	0.25150 0.33960 0.52310 0.07800
C 	C 	0.02200 0.06210 0.11600 0.34500
C 	C 	0.00790 0.14330 0.33090 -0.08000
C 	C 	0.01440 0.06420 0.37130 0.02800
C 	C 	0.00950 0.14380 0.24730 0.02700
C 	C 	0.02860 0.98610 0.33040 -0.09600
C 	C 	0.02310 0.06590 0.20690 -0.10000
C 	C 	0.03630 0.98810 0.24710 0.02700
C 	C 	0.03780 0.90170 0.37340 0.36000
C 	C 	-0.00000 0.22700 0.37650 0.27500
N 	N 	0.82740 0.85730 0.04400 -0.21300
N 	N 	0.20150 0.87550 0.03580 -0.22600
N 	N 	0.17260 0.64270 0.54400 -0.22900
N 	N 	0.79850 0.62450 0.53580 -0.21900
N 	N 	0.17260 0.14270 0.95600 -0.22600
N 	N 	0.79850 0.12450 0.96420 -0.22300
N 	N 	0.82740 0.35730 0.45600 -0.21600
N 	N 	0.20150 0.37550 0.46420 -0.22200
O 	O 	0.00910 0.80210 0.15730 -0.35200
O 	O 	0.98720 0.72250 0.04730 -0.33300
O 	O 	0.98520 0.62370 0.42030 -0.38700
O 	O 	0.05660 0.49660 0.41530 -0.44000
O 	O 	0.09180 0.34720 0.15060 -0.27200
O 	O 	0.97690 0.39380 0.05940 -0.42200
O 	O 	0.99090 0.69790 0.65730 -0.32800
O 	O 	0.01280 0.77750 0.54730 -0.38000
O 	O 	0.01480 0.87630 0.92030 -0.43900
O 	O 	0.94340 0.00340 0.91530 -0.44300
O 	O 	0.90820 0.15280 0.65060 -0.28100
O 	O 	0.02310 0.10620 0.55940 -0.48400
O 	O 	0.99090 0.19790 0.84270 -0.33100
O 	O 	0.01280 0.27750 0.95270 -0.37800
O 	O 	0.01480 0.37630 0.57970 -0.44800
O 	O 	0.94340 0.50340 0.58470 -0.44500
O 	O 	0.90820 0.65280 0.84940 -0.28100
O 	O 	0.02310 0.60620 0.94060 -0.47800
O 	O 	0.00910 0.30210 0.34270 -0.35300
O 	O 	0.98720 0.22250 0.45270 -0.33800
O 	O 	0.98520 0.12370 0.07970 -0.38000
O 	O 	0.05660 0.99660 0.08470 -0.44300
O 	O 	0.09180 0.84720 0.34940 -0.27400
O 	O 	0.97690 0.89380 0.44060 -0.43000
