data_crystal

_cell_length_a 17.49350
_cell_length_b 26.01160
_cell_length_c 15.80810
_cell_angle_alpha 90.00000
_cell_angle_beta  114.99500
_cell_angle_gamma 90.00000

_symmetry_space_group_name_	'P 1'
_symmetry_space_group_name_H-M	'P 1'

loop_
_symmetry_equiv_pos_as_xyz
  x,y,z

loop_
_atom_site_label
_atom_site_type_symbol
_atom_site_fract_x
_atom_site_fract_y
_atom_site_fract_z
_atom_site_charge
U 	U 	0.64677 0.73470 0.57713 0.01400
Cu	Cu	0.75966 0.47113 0.48597 0.89700
C 	C 	0.93210 0.61960 0.60050 0.04500
H 	H 	0.96710 0.64830 0.61740 0.04500
N 	N 	0.69510 0.40690 0.43210 -0.21500
C 	C 	0.96520 0.57080 0.61370 -0.11400
H 	H 	0.02340 0.56610 0.64310 0.08600
N 	N 	0.71690 0.45470 0.58570 -0.21700
C 	C 	0.79650 0.58170 0.53400 0.07300
H 	H 	0.73810 0.58540 0.50730 0.02700
N 	N 	0.88300 0.43990 0.54830 -0.21100
C 	C 	0.02880 0.46100 0.62800 -0.14200
H 	H 	0.07060 0.48540 0.65660 0.09900
N 	N 	0.82950 0.53420 0.54430 -0.21500
C 	C 	0.63900 0.34270 0.31620 -0.08800
C 	C 	0.80320 0.67670 0.54510 0.30800
C 	C 	0.67280 0.40980 0.57030 0.06600
C 	C 	0.73980 0.47950 0.66610 0.07800
H 	H 	0.77150 0.50950 0.67630 0.01400
C 	C 	0.84550 0.62470 0.56140 -0.08700
C 	C 	0.68770 0.38690 0.35260 0.07400
H 	H 	0.71520 0.40230 0.32010 0.02700
C 	C 	0.98680 0.37570 0.58350 -0.11600
C 	C 	0.59650 0.32080 0.36340 0.04000
H 	H 	0.56240 0.29210 0.33900 0.06200
C 	C 	0.90600 0.39140 0.54720 0.09200
H 	H 	0.86400 0.36690 0.51970 0.01700
C 	C 	0.67230 0.41950 0.71910 0.06200
H 	H 	0.65480 0.40820 0.76390 0.03900
C 	C 	0.91240 0.52840 0.58340 0.06300
C 	C 	0.60520 0.34170 0.44690 -0.09600
H 	H 	0.57720 0.32730 0.47970 0.09400
C 	C 	0.04820 0.41130 0.62360 0.07600
H 	H 	0.10440 0.40120 0.64850 0.02900
C 	C 	0.65650 0.38480 0.48200 0.05600
C 	C 	0.94370 0.47440 0.58800 0.07400
C 	C 	0.00600 0.31880 0.57430 0.31800
O 	O 	0.84590 0.71460 0.54340 -0.18300
O 	O 	0.72840 0.67720 0.53410 -0.18700
O 	O 	0.67620 0.33920 0.18630 -0.19400
O 	O 	0.59970 0.27600 0.20240 -0.19100
O 	O 	0.08020 0.30950 0.58560 -0.19500
C 	C 	0.63840 0.31810 0.22990 0.28700
O 	O 	0.94980 0.28650 0.55560 -0.22100
C 	C 	0.64880 0.39010 0.63560 -0.11700
H 	H 	0.61900 0.35940 0.62620 0.09200
C 	C 	0.74730 0.49540 0.82690 0.36200
C 	C 	0.71740 0.46160 0.73550 -0.11200
O 	O 	0.70230 0.48880 0.86850 -0.39300
O 	O 	0.80560 0.52350 0.84330 -0.32800
U 	U 	0.14677 0.23470 0.57713 0.01400
Cu	Cu	0.25966 0.97113 0.48597 0.89800
C 	C 	0.43210 0.11960 0.60050 0.04600
H 	H 	0.46710 0.14830 0.61740 0.04700
N 	N 	0.19510 0.90690 0.43210 -0.21500
C 	C 	0.46520 0.07080 0.61370 -0.11200
H 	H 	0.52340 0.06610 0.64310 0.08500
N 	N 	0.21690 0.95470 0.58570 -0.21700
C 	C 	0.29650 0.08170 0.53400 0.07300
H 	H 	0.23810 0.08540 0.50730 0.02700
N 	N 	0.38300 0.93990 0.54830 -0.21100
C 	C 	0.52880 0.96100 0.62800 -0.14200
H 	H 	0.57060 0.98540 0.65660 0.09900
N 	N 	0.32950 0.03420 0.54430 -0.21400
C 	C 	0.13900 0.84270 0.31620 -0.08800
C 	C 	0.30320 0.17670 0.54510 0.30800
C 	C 	0.17280 0.90980 0.57030 0.06600
C 	C 	0.23980 0.97950 0.66610 0.07900
H 	H 	0.27150 0.00950 0.67630 0.01300
C 	C 	0.34550 0.12470 0.56140 -0.08600
C 	C 	0.18770 0.88690 0.35260 0.07400
H 	H 	0.21520 0.90230 0.32010 0.02700
C 	C 	0.48680 0.87570 0.58350 -0.11500
C 	C 	0.09650 0.82080 0.36340 0.04000
H 	H 	0.06240 0.79210 0.33900 0.06200
C 	C 	0.40600 0.89140 0.54720 0.09200
H 	H 	0.36400 0.86690 0.51970 0.01700
C 	C 	0.17230 0.91950 0.71910 0.06200
H 	H 	0.15480 0.90820 0.76390 0.04000
C 	C 	0.41240 0.02840 0.58340 0.06200
C 	C 	0.10520 0.84170 0.44690 -0.09600
H 	H 	0.07720 0.82730 0.47970 0.09400
C 	C 	0.54820 0.91130 0.62360 0.07600
H 	H 	0.60440 0.90120 0.64850 0.02900
C 	C 	0.15650 0.88480 0.48200 0.05600
C 	C 	0.44370 0.97440 0.58800 0.07500
C 	C 	0.50600 0.81880 0.57430 0.31800
O 	O 	0.34590 0.21460 0.54340 -0.18300
O 	O 	0.22840 0.17720 0.53410 -0.18700
O 	O 	0.17620 0.83920 0.18630 -0.19400
O 	O 	0.09970 0.77600 0.20240 -0.19100
O 	O 	0.58020 0.80950 0.58560 -0.19500
C 	C 	0.13840 0.81810 0.22990 0.28700
O 	O 	0.44980 0.78650 0.55560 -0.22100
C 	C 	0.14880 0.89010 0.63560 -0.11700
H 	H 	0.11900 0.85940 0.62620 0.09200
C 	C 	0.24730 0.99540 0.82690 0.36300
C 	C 	0.21740 0.96160 0.73550 -0.11300
O 	O 	0.20230 0.98880 0.86850 -0.39200
O 	O 	0.30560 0.02350 0.84330 -0.32800
U 	U 	0.35323 0.73470 0.92287 0.01500
Cu	Cu	0.24034 0.47113 0.01403 0.89700
C 	C 	0.06790 0.61960 0.89950 0.04400
H 	H 	0.03290 0.64830 0.88260 0.04700
N 	N 	0.30490 0.40690 0.06790 -0.21500
C 	C 	0.03480 0.57080 0.88630 -0.11000
H 	H 	0.97660 0.56610 0.85690 0.08300
N 	N 	0.28310 0.45470 0.91430 -0.21700
C 	C 	0.20350 0.58170 0.96600 0.07200
H 	H 	0.26190 0.58540 0.99270 0.02700
N 	N 	0.11700 0.43990 0.95170 -0.21100
C 	C 	0.97120 0.46100 0.87200 -0.14300
H 	H 	0.92940 0.48540 0.84340 0.09900
N 	N 	0.17050 0.53420 0.95570 -0.21400
C 	C 	0.36100 0.34270 0.18380 -0.08800
C 	C 	0.19680 0.67670 0.95490 0.30700
C 	C 	0.32720 0.40980 0.92970 0.06600
C 	C 	0.26020 0.47950 0.83390 0.07800
H 	H 	0.22850 0.50950 0.82370 0.01400
C 	C 	0.15450 0.62470 0.93860 -0.08500
C 	C 	0.31230 0.38690 0.14740 0.07400
H 	H 	0.28480 0.40230 0.17990 0.02700
C 	C 	0.01320 0.37570 0.91650 -0.11200
C 	C 	0.40350 0.32080 0.13660 0.04000
H 	H 	0.43760 0.29210 0.16100 0.06200
C 	C 	0.09400 0.39140 0.95280 0.09100
H 	H 	0.13600 0.36690 0.98030 0.01700
C 	C 	0.32770 0.41950 0.78090 0.06200
H 	H 	0.34520 0.40820 0.73610 0.04000
C 	C 	0.08760 0.52840 0.91660 0.06100
C 	C 	0.39480 0.34170 0.05310 -0.09600
H 	H 	0.42280 0.32730 0.02030 0.09400
C 	C 	0.95180 0.41130 0.87640 0.07300
H 	H 	0.89560 0.40120 0.85150 0.02900
C 	C 	0.34350 0.38480 0.01800 0.05600
C 	C 	0.05630 0.47440 0.91200 0.07600
C 	C 	0.99400 0.31880 0.92570 0.31500
O 	O 	0.15410 0.71460 0.95660 -0.18200
O 	O 	0.27160 0.67720 0.96590 -0.18600
O 	O 	0.32380 0.33920 0.31370 -0.19400
O 	O 	0.40030 0.27600 0.29760 -0.19100
O 	O 	0.91980 0.30950 0.91440 -0.19500
C 	C 	0.36160 0.31810 0.27010 0.28700
O 	O 	0.05020 0.28650 0.94440 -0.22000
C 	C 	0.35120 0.39010 0.86440 -0.11700
H 	H 	0.38100 0.35940 0.87380 0.09200
C 	C 	0.25270 0.49540 0.67310 0.36200
C 	C 	0.28260 0.46160 0.76450 -0.11200
O 	O 	0.29770 0.48880 0.63150 -0.39200
O 	O 	0.19440 0.52350 0.65670 -0.32800
U 	U 	0.85323 0.23470 0.92287 0.01400
Cu	Cu	0.74034 0.97113 0.01403 0.89800
C 	C 	0.56790 0.11960 0.89950 0.04500
H 	H 	0.53290 0.14830 0.88260 0.04700
N 	N 	0.80490 0.90690 0.06790 -0.21500
C 	C 	0.53480 0.07080 0.88630 -0.11200
H 	H 	0.47660 0.06610 0.85690 0.08500
N 	N 	0.78310 0.95470 0.91430 -0.21700
C 	C 	0.70350 0.08170 0.96600 0.07300
H 	H 	0.76190 0.08540 0.99270 0.02700
N 	N 	0.61700 0.93990 0.95170 -0.21100
C 	C 	0.47120 0.96100 0.87200 -0.14300
H 	H 	0.42940 0.98540 0.84340 0.10000
N 	N 	0.67050 0.03420 0.95570 -0.21400
C 	C 	0.86100 0.84270 0.18380 -0.08800
C 	C 	0.69680 0.17670 0.95490 0.30800
C 	C 	0.82720 0.90980 0.92970 0.06600
C 	C 	0.76020 0.97950 0.83390 0.07900
H 	H 	0.72850 0.00950 0.82370 0.01300
C 	C 	0.65450 0.12470 0.93860 -0.08600
C 	C 	0.81230 0.88690 0.14740 0.07400
H 	H 	0.78480 0.90230 0.17990 0.02700
C 	C 	0.51320 0.87570 0.91650 -0.11500
C 	C 	0.90350 0.82080 0.13660 0.04000
H 	H 	0.93760 0.79210 0.16100 0.06200
C 	C 	0.59400 0.89140 0.95280 0.09200
H 	H 	0.63600 0.86690 0.98030 0.01700
C 	C 	0.82770 0.91950 0.78090 0.06200
H 	H 	0.84520 0.90820 0.73610 0.03900
C 	C 	0.58760 0.02840 0.91660 0.06100
C 	C 	0.89480 0.84170 0.05310 -0.09600
H 	H 	0.92280 0.82730 0.02030 0.09500
C 	C 	0.45180 0.91130 0.87640 0.07600
H 	H 	0.39560 0.90120 0.85150 0.02900
C 	C 	0.84350 0.88480 0.01800 0.05600
C 	C 	0.55630 0.97440 0.91200 0.07600
C 	C 	0.49400 0.81880 0.92570 0.31800
O 	O 	0.65410 0.21460 0.95660 -0.18300
O 	O 	0.77160 0.17720 0.96590 -0.18700
O 	O 	0.82380 0.83920 0.31370 -0.19400
O 	O 	0.90030 0.77600 0.29760 -0.19100
O 	O 	0.41980 0.80950 0.91440 -0.19500
C 	C 	0.86160 0.81810 0.27010 0.28700
O 	O 	0.55020 0.78650 0.94440 -0.22100
C 	C 	0.85120 0.89010 0.86440 -0.11700
H 	H 	0.88100 0.85940 0.87380 0.09200
C 	C 	0.75270 0.99540 0.67310 0.36200
C 	C 	0.78260 0.96160 0.76450 -0.11300
O 	O 	0.79770 0.98880 0.63150 -0.39300
O 	O 	0.69440 0.02350 0.65670 -0.32800
U 	U 	0.35323 0.26530 0.42287 0.01500
Cu	Cu	0.24034 0.52887 0.51403 0.89800
C 	C 	0.06790 0.38040 0.39950 0.04600
H 	H 	0.03290 0.35170 0.38260 0.04600
N 	N 	0.30490 0.59310 0.56790 -0.21500
C 	C 	0.03480 0.42920 0.38630 -0.11400
H 	H 	0.97660 0.43390 0.35690 0.08600
N 	N 	0.28310 0.54530 0.41430 -0.21700
C 	C 	0.20350 0.41830 0.46600 0.07300
H 	H 	0.26190 0.41460 0.49270 0.02700
N 	N 	0.11700 0.56010 0.45170 -0.21100
C 	C 	0.97120 0.53900 0.37200 -0.14200
H 	H 	0.92940 0.51460 0.34340 0.09900
N 	N 	0.17050 0.46580 0.45570 -0.21500
C 	C 	0.36100 0.65730 0.68380 -0.08800
C 	C 	0.19680 0.32330 0.45490 0.30800
C 	C 	0.32720 0.59020 0.42970 0.06600
C 	C 	0.26020 0.52050 0.33390 0.07800
H 	H 	0.22850 0.49050 0.32370 0.01400
C 	C 	0.15450 0.37530 0.43860 -0.08700
C 	C 	0.31230 0.61310 0.64740 0.07400
H 	H 	0.28480 0.59770 0.67990 0.02700
C 	C 	0.01320 0.62430 0.41650 -0.11600
C 	C 	0.40350 0.67920 0.63660 0.04000
H 	H 	0.43760 0.70790 0.66100 0.06200
C 	C 	0.09400 0.60860 0.45280 0.09200
H 	H 	0.13600 0.63310 0.48030 0.01700
C 	C 	0.32770 0.58050 0.28090 0.06200
H 	H 	0.34520 0.59180 0.23610 0.03900
C 	C 	0.08760 0.47160 0.41660 0.06300
C 	C 	0.39480 0.65830 0.55310 -0.09600
H 	H 	0.42280 0.67270 0.52030 0.09400
C 	C 	0.95180 0.58870 0.37640 0.07600
H 	H 	0.89560 0.59880 0.35150 0.02900
C 	C 	0.34350 0.61520 0.51800 0.05600
C 	C 	0.05630 0.52560 0.41200 0.07400
C 	C 	0.99400 0.68120 0.42570 0.31800
O 	O 	0.15410 0.28540 0.45660 -0.18300
O 	O 	0.27160 0.32280 0.46590 -0.18700
O 	O 	0.32380 0.66080 0.81370 -0.19400
O 	O 	0.40030 0.72400 0.79760 -0.19100
O 	O 	0.91980 0.69050 0.41440 -0.19500
C 	C 	0.36160 0.68190 0.77010 0.28700
O 	O 	0.05020 0.71350 0.44440 -0.22100
C 	C 	0.35120 0.60990 0.36440 -0.11700
H 	H 	0.38100 0.64060 0.37380 0.09200
C 	C 	0.25270 0.50460 0.17310 0.36200
C 	C 	0.28260 0.53840 0.26450 -0.11200
O 	O 	0.29770 0.51120 0.13150 -0.39300
O 	O 	0.19440 0.47650 0.15670 -0.32800
U 	U 	0.85323 0.76530 0.42287 0.01400
Cu	Cu	0.74034 0.02887 0.51403 0.89800
C 	C 	0.56790 0.88040 0.39950 0.04600
H 	H 	0.53290 0.85170 0.38260 0.04700
N 	N 	0.80490 0.09310 0.56790 -0.21500
C 	C 	0.53480 0.92920 0.38630 -0.11200
H 	H 	0.47660 0.93390 0.35690 0.08500
N 	N 	0.78310 0.04530 0.41430 -0.21700
C 	C 	0.70350 0.91830 0.46600 0.07300
H 	H 	0.76190 0.91460 0.49270 0.02700
N 	N 	0.61700 0.06010 0.45170 -0.21100
C 	C 	0.47120 0.03900 0.37200 -0.14200
H 	H 	0.42940 0.01460 0.34340 0.09900
N 	N 	0.67050 0.96580 0.45570 -0.21400
C 	C 	0.86100 0.15730 0.68380 -0.08800
C 	C 	0.69680 0.82330 0.45490 0.30800
C 	C 	0.82720 0.09020 0.42970 0.06600
C 	C 	0.76020 0.02050 0.33390 0.07900
H 	H 	0.72850 0.99050 0.32370 0.01300
C 	C 	0.65450 0.87530 0.43860 -0.08600
C 	C 	0.81230 0.11310 0.64740 0.07400
H 	H 	0.78480 0.09770 0.67990 0.02700
C 	C 	0.51320 0.12430 0.41650 -0.11500
C 	C 	0.90350 0.17920 0.63660 0.04000
H 	H 	0.93760 0.20790 0.66100 0.06200
C 	C 	0.59400 0.10860 0.45280 0.09200
H 	H 	0.63600 0.13310 0.48030 0.01700
C 	C 	0.82770 0.08050 0.28090 0.06200
H 	H 	0.84520 0.09180 0.23610 0.04000
C 	C 	0.58760 0.97160 0.41660 0.06200
C 	C 	0.89480 0.15830 0.55310 -0.09600
H 	H 	0.92280 0.17270 0.52030 0.09400
C 	C 	0.45180 0.08870 0.37640 0.07600
H 	H 	0.39560 0.09880 0.35150 0.02900
C 	C 	0.84350 0.11520 0.51800 0.05600
C 	C 	0.55630 0.02560 0.41200 0.07500
C 	C 	0.49400 0.18120 0.42570 0.31800
O 	O 	0.65410 0.78540 0.45660 -0.18300
O 	O 	0.77160 0.82280 0.46590 -0.18700
O 	O 	0.82380 0.16080 0.81370 -0.19400
O 	O 	0.90030 0.22400 0.79760 -0.19100
O 	O 	0.41980 0.19050 0.41440 -0.19500
C 	C 	0.86160 0.18190 0.77010 0.28700
O 	O 	0.55020 0.21350 0.44440 -0.22100
C 	C 	0.85120 0.10990 0.36440 -0.11700
H 	H 	0.88100 0.14060 0.37380 0.09200
C 	C 	0.75270 0.00460 0.17310 0.36300
C 	C 	0.78260 0.03840 0.26450 -0.11300
O 	O 	0.79770 0.01120 0.13150 -0.39200
O 	O 	0.69440 0.97650 0.15670 -0.32800
U 	U 	0.64677 0.26530 0.07713 0.01500
Cu	Cu	0.75966 0.52887 0.98597 0.89700
C 	C 	0.93210 0.38040 0.10050 0.04400
H 	H 	0.96710 0.35170 0.11740 0.04700
N 	N 	0.69510 0.59310 0.93210 -0.21500
C 	C 	0.96520 0.42920 0.11370 -0.11000
H 	H 	0.02340 0.43390 0.14310 0.08300
N 	N 	0.71690 0.54530 0.08570 -0.21700
C 	C 	0.79650 0.41830 0.03400 0.07200
H 	H 	0.73810 0.41460 0.00730 0.02700
N 	N 	0.88300 0.56010 0.04830 -0.21100
C 	C 	0.02880 0.53900 0.12800 -0.14300
H 	H 	0.07060 0.51460 0.15660 0.09900
N 	N 	0.82950 0.46580 0.04430 -0.21400
C 	C 	0.63900 0.65730 0.81620 -0.08800
C 	C 	0.80320 0.32330 0.04510 0.30700
C 	C 	0.67280 0.59020 0.07030 0.06600
C 	C 	0.73980 0.52050 0.16610 0.07800
H 	H 	0.77150 0.49050 0.17630 0.01400
C 	C 	0.84550 0.37530 0.06140 -0.08500
C 	C 	0.68770 0.61310 0.85260 0.07400
H 	H 	0.71520 0.59770 0.82010 0.02700
C 	C 	0.98680 0.62430 0.08350 -0.11200
C 	C 	0.59650 0.67920 0.86340 0.04000
H 	H 	0.56240 0.70790 0.83900 0.06200
C 	C 	0.90600 0.60860 0.04720 0.09100
H 	H 	0.86400 0.63310 0.01970 0.01700
C 	C 	0.67230 0.58050 0.21910 0.06200
H 	H 	0.65480 0.59180 0.26390 0.04000
C 	C 	0.91240 0.47160 0.08340 0.06100
C 	C 	0.60520 0.65830 0.94690 -0.09600
H 	H 	0.57720 0.67270 0.97970 0.09400
C 	C 	0.04820 0.58870 0.12360 0.07300
H 	H 	0.10440 0.59880 0.14850 0.02900
C 	C 	0.65650 0.61520 0.98200 0.05600
C 	C 	0.94370 0.52560 0.08800 0.07600
C 	C 	0.00600 0.68120 0.07430 0.31500
O 	O 	0.84590 0.28540 0.04340 -0.18200
O 	O 	0.72840 0.32280 0.03410 -0.18600
O 	O 	0.67620 0.66080 0.68630 -0.19400
O 	O 	0.59970 0.72400 0.70240 -0.19100
O 	O 	0.08020 0.69050 0.08560 -0.19500
C 	C 	0.63840 0.68190 0.72990 0.28700
O 	O 	0.94980 0.71350 0.05560 -0.22000
C 	C 	0.64880 0.60990 0.13560 -0.11700
H 	H 	0.61900 0.64060 0.12620 0.09200
C 	C 	0.74730 0.50460 0.32690 0.36200
C 	C 	0.71740 0.53840 0.23550 -0.11200
O 	O 	0.70230 0.51120 0.36850 -0.39200
O 	O 	0.80560 0.47650 0.34330 -0.32800
U 	U 	0.14677 0.76530 0.07713 0.01400
Cu	Cu	0.25966 0.02887 0.98597 0.89800
C 	C 	0.43210 0.88040 0.10050 0.04500
H 	H 	0.46710 0.85170 0.11740 0.04700
N 	N 	0.19510 0.09310 0.93210 -0.21500
C 	C 	0.46520 0.92920 0.11370 -0.11200
H 	H 	0.52340 0.93390 0.14310 0.08500
N 	N 	0.21690 0.04530 0.08570 -0.21700
C 	C 	0.29650 0.91830 0.03400 0.07300
H 	H 	0.23810 0.91460 0.00730 0.02700
N 	N 	0.38300 0.06010 0.04830 -0.21100
C 	C 	0.52880 0.03900 0.12800 -0.14300
H 	H 	0.57060 0.01460 0.15660 0.10000
N 	N 	0.32950 0.96580 0.04430 -0.21400
C 	C 	0.13900 0.15730 0.81620 -0.08800
C 	C 	0.30320 0.82330 0.04510 0.30800
C 	C 	0.17280 0.09020 0.07030 0.06600
C 	C 	0.23980 0.02050 0.16610 0.07900
H 	H 	0.27150 0.99050 0.17630 0.01300
C 	C 	0.34550 0.87530 0.06140 -0.08600
C 	C 	0.18770 0.11310 0.85260 0.07400
H 	H 	0.21520 0.09770 0.82010 0.02700
C 	C 	0.48680 0.12430 0.08350 -0.11500
C 	C 	0.09650 0.17920 0.86340 0.04000
H 	H 	0.06240 0.20790 0.83900 0.06200
C 	C 	0.40600 0.10860 0.04720 0.09200
H 	H 	0.36400 0.13310 0.01970 0.01700
C 	C 	0.17230 0.08050 0.21910 0.06200
H 	H 	0.15480 0.09180 0.26390 0.03900
C 	C 	0.41240 0.97160 0.08340 0.06100
C 	C 	0.10520 0.15830 0.94690 -0.09600
H 	H 	0.07720 0.17270 0.97970 0.09500
C 	C 	0.54820 0.08870 0.12360 0.07600
H 	H 	0.60440 0.09880 0.14850 0.02900
C 	C 	0.15650 0.11520 0.98200 0.05600
C 	C 	0.44370 0.02560 0.08800 0.07600
C 	C 	0.50600 0.18120 0.07430 0.31800
O 	O 	0.34590 0.78540 0.04340 -0.18300
O 	O 	0.22840 0.82280 0.03410 -0.18700
O 	O 	0.17620 0.16080 0.68630 -0.19400
O 	O 	0.09970 0.22400 0.70240 -0.19100
O 	O 	0.58020 0.19050 0.08560 -0.19500
C 	C 	0.13840 0.18190 0.72990 0.28700
O 	O 	0.44980 0.21350 0.05560 -0.22100
C 	C 	0.14880 0.10990 0.13560 -0.11700
H 	H 	0.11900 0.14060 0.12620 0.09200
C 	C 	0.24730 0.00460 0.32690 0.36200
C 	C 	0.21740 0.03840 0.23550 -0.11300
O 	O 	0.20230 0.01120 0.36850 -0.39300
O 	O 	0.30560 0.97650 0.34330 -0.32800
