data_crystal

_cell_length_a 18.28980
_cell_length_b 9.31020
_cell_length_c 22.20270
_cell_angle_alpha 90.00000
_cell_angle_beta  112.55600
_cell_angle_gamma 90.00000

_symmetry_space_group_name_	'P 1'
_symmetry_space_group_name_H-M	'P 1'

loop_
_symmetry_equiv_pos_as_xyz
  x,y,z

loop_
_atom_site_label
_atom_site_type_symbol
_atom_site_fract_x
_atom_site_fract_y
_atom_site_fract_z
_atom_site_charge
Dy	Dy	0.23501 0.80190 0.14141 1.60900
S 	S 	0.19593 0.18617 0.10797 0.57000
O 	O 	0.82070 0.20530 0.97810 -0.44800
O 	O 	0.18650 0.19360 0.04050 -0.38700
C 	C 	0.09870 0.19170 0.10820 -0.09500
C 	C 	0.88970 0.18120 0.98050 0.30200
C 	C 	0.95760 0.18990 0.04630 -0.06700
O 	O 	0.19920 0.14850 0.25850 -0.37500
O 	O 	0.84090 0.37390 0.10470 -0.40900
O 	O 	0.90250 0.15170 0.93070 -0.41200
O 	O 	0.15150 0.36370 0.26070 -0.37600
O 	O 	0.23270 0.05150 0.13830 -0.43800
O 	O 	0.82820 0.14360 0.11760 -0.42900
C 	C 	0.08650 0.22600 0.16560 -0.03600
C 	C 	0.94440 0.22360 0.10250 -0.05600
C 	C 	0.03460 0.17560 0.05020 0.01400
H 	H 	0.04370 0.15330 0.01140 0.04300
C 	C 	0.86530 0.24710 0.10650 0.32700
C 	C 	0.00970 0.24240 0.16100 -0.01000
H 	H 	0.00070 0.26790 0.19940 0.04600
C 	C 	0.15060 0.24760 0.23170 0.30200
O 	O 	0.23680 0.30810 0.14650 -0.32200
K 	K 	0.23154 0.47880 0.01396 0.64800
Dy	Dy	0.73501 0.30190 0.14141 1.61000
S 	S 	0.69593 0.68617 0.10797 0.57100
O 	O 	0.32070 0.70530 0.97810 -0.44700
O 	O 	0.68650 0.69360 0.04050 -0.38800
C 	C 	0.59870 0.69170 0.10820 -0.09600
C 	C 	0.38970 0.68120 0.98050 0.30500
C 	C 	0.45760 0.68990 0.04630 -0.07000
O 	O 	0.69920 0.64850 0.25850 -0.37500
O 	O 	0.34090 0.87390 0.10470 -0.40900
O 	O 	0.40250 0.65170 0.93070 -0.41200
O 	O 	0.65150 0.86370 0.26070 -0.37600
O 	O 	0.73270 0.55150 0.13830 -0.43900
O 	O 	0.32820 0.64360 0.11760 -0.42900
C 	C 	0.58650 0.72600 0.16560 -0.03600
C 	C 	0.44440 0.72360 0.10250 -0.05600
C 	C 	0.53460 0.67560 0.05020 0.01700
H 	H 	0.54370 0.65330 0.01140 0.04200
C 	C 	0.36530 0.74710 0.10650 0.32700
C 	C 	0.50970 0.74240 0.16100 -0.01000
H 	H 	0.50070 0.76790 0.19940 0.04600
C 	C 	0.65060 0.74760 0.23170 0.30200
O 	O 	0.73680 0.80810 0.14650 -0.32300
K 	K 	0.73154 0.97880 0.01396 0.64800
Dy	Dy	0.76499 0.80190 0.35859 1.60800
S 	S 	0.80407 0.18617 0.39203 0.57100
O 	O 	0.17930 0.20530 0.52190 -0.44800
O 	O 	0.81350 0.19360 0.45950 -0.38800
C 	C 	0.90130 0.19170 0.39180 -0.09600
C 	C 	0.11030 0.18120 0.51950 0.30400
C 	C 	0.04240 0.18990 0.45370 -0.07000
O 	O 	0.80080 0.14850 0.24150 -0.37500
O 	O 	0.15910 0.37390 0.39530 -0.40900
O 	O 	0.09750 0.15170 0.56930 -0.41200
O 	O 	0.84850 0.36370 0.23930 -0.37600
O 	O 	0.76730 0.05150 0.36170 -0.43800
O 	O 	0.17180 0.14360 0.38240 -0.42900
C 	C 	0.91350 0.22600 0.33440 -0.03600
C 	C 	0.05560 0.22360 0.39750 -0.05600
C 	C 	0.96540 0.17560 0.44980 0.01600
H 	H 	0.95630 0.15330 0.48860 0.04200
C 	C 	0.13470 0.24710 0.39350 0.32700
C 	C 	0.99030 0.24240 0.33900 -0.01000
H 	H 	0.99930 0.26790 0.30060 0.04600
C 	C 	0.84940 0.24760 0.26830 0.30200
O 	O 	0.76320 0.30810 0.35350 -0.32200
K 	K 	0.76846 0.47880 0.48604 0.64800
Dy	Dy	0.26499 0.30190 0.35859 1.60900
S 	S 	0.30407 0.68617 0.39203 0.57100
O 	O 	0.67930 0.70530 0.52190 -0.44800
O 	O 	0.31350 0.69360 0.45950 -0.38800
C 	C 	0.40130 0.69170 0.39180 -0.09600
C 	C 	0.61030 0.68120 0.51950 0.30400
C 	C 	0.54240 0.68990 0.45370 -0.06900
O 	O 	0.30080 0.64850 0.24150 -0.37500
O 	O 	0.65910 0.87390 0.39530 -0.40900
O 	O 	0.59750 0.65170 0.56930 -0.41200
O 	O 	0.34850 0.86370 0.23930 -0.37600
O 	O 	0.26730 0.55150 0.36170 -0.43900
O 	O 	0.67180 0.64360 0.38240 -0.43000
C 	C 	0.41350 0.72600 0.33440 -0.03600
C 	C 	0.55560 0.72360 0.39750 -0.05600
C 	C 	0.46540 0.67560 0.44980 0.01600
H 	H 	0.45630 0.65330 0.48860 0.04200
C 	C 	0.63470 0.74710 0.39350 0.32700
C 	C 	0.49030 0.74240 0.33900 -0.01000
H 	H 	0.49930 0.76790 0.30060 0.04600
C 	C 	0.34940 0.74760 0.26830 0.30200
O 	O 	0.26320 0.80810 0.35350 -0.32200
K 	K 	0.26846 0.97880 0.48604 0.64800
Dy	Dy	0.76499 0.19810 0.85860 1.60800
S 	S 	0.80407 0.81383 0.89203 0.57000
O 	O 	0.17930 0.79470 0.02190 -0.44800
O 	O 	0.81350 0.80640 0.95950 -0.38700
C 	C 	0.90130 0.80830 0.89180 -0.09500
C 	C 	0.11030 0.81880 0.01950 0.30200
C 	C 	0.04240 0.81010 0.95370 -0.06700
O 	O 	0.80080 0.85150 0.74150 -0.37500
O 	O 	0.15910 0.62610 0.89530 -0.40900
O 	O 	0.09750 0.84830 0.06930 -0.41200
O 	O 	0.84850 0.63630 0.73930 -0.37600
O 	O 	0.76730 0.94850 0.86170 -0.43800
O 	O 	0.17180 0.85640 0.88240 -0.42900
C 	C 	0.91350 0.77400 0.83440 -0.03600
C 	C 	0.05560 0.77640 0.89750 -0.05600
C 	C 	0.96540 0.82440 0.94980 0.01400
H 	H 	0.95630 0.84670 0.98860 0.04300
C 	C 	0.13470 0.75290 0.89350 0.32700
C 	C 	0.99030 0.75760 0.83900 -0.01000
H 	H 	0.99930 0.73210 0.80060 0.04600
C 	C 	0.84940 0.75240 0.76830 0.30200
O 	O 	0.76320 0.69190 0.85350 -0.32200
K 	K 	0.76846 0.52120 0.98604 0.64800
Dy	Dy	0.26499 0.69810 0.85859 1.61000
S 	S 	0.30407 0.31383 0.89203 0.57100
O 	O 	0.67930 0.29470 0.02190 -0.44700
O 	O 	0.31350 0.30640 0.95950 -0.38800
C 	C 	0.40130 0.30830 0.89180 -0.09600
C 	C 	0.61030 0.31880 0.01950 0.30500
C 	C 	0.54240 0.31010 0.95370 -0.07000
O 	O 	0.30080 0.35150 0.74150 -0.37500
O 	O 	0.65910 0.12610 0.89530 -0.40900
O 	O 	0.59750 0.34830 0.06930 -0.41200
O 	O 	0.34850 0.13630 0.73930 -0.37600
O 	O 	0.26730 0.44850 0.86170 -0.43900
O 	O 	0.67180 0.35640 0.88240 -0.42900
C 	C 	0.41350 0.27400 0.83440 -0.03600
C 	C 	0.55560 0.27640 0.89750 -0.05600
C 	C 	0.46540 0.32440 0.94980 0.01700
H 	H 	0.45630 0.34670 0.98860 0.04200
C 	C 	0.63470 0.25290 0.89350 0.32700
C 	C 	0.49030 0.25760 0.83900 -0.01000
H 	H 	0.49930 0.23210 0.80060 0.04600
C 	C 	0.34940 0.25240 0.76830 0.30200
O 	O 	0.26320 0.19190 0.85350 -0.32300
K 	K 	0.26846 0.02120 0.98604 0.64800
Dy	Dy	0.23501 0.19810 0.64140 1.60800
S 	S 	0.19593 0.81383 0.60797 0.57100
O 	O 	0.82070 0.79470 0.47810 -0.44800
O 	O 	0.18650 0.80640 0.54050 -0.38800
C 	C 	0.09870 0.80830 0.60820 -0.09600
C 	C 	0.88970 0.81880 0.48050 0.30400
C 	C 	0.95760 0.81010 0.54630 -0.07000
O 	O 	0.19920 0.85150 0.75850 -0.37500
O 	O 	0.84090 0.62610 0.60470 -0.40900
O 	O 	0.90250 0.84830 0.43070 -0.41200
O 	O 	0.15150 0.63630 0.76070 -0.37600
O 	O 	0.23270 0.94850 0.63830 -0.43800
O 	O 	0.82820 0.85640 0.61760 -0.43000
C 	C 	0.08650 0.77400 0.66560 -0.03600
C 	C 	0.94440 0.77640 0.60250 -0.05600
C 	C 	0.03460 0.82440 0.55020 0.01600
H 	H 	0.04370 0.84670 0.51140 0.04200
C 	C 	0.86530 0.75290 0.60650 0.32700
C 	C 	0.00970 0.75760 0.66100 -0.01000
H 	H 	0.00070 0.73210 0.69940 0.04600
C 	C 	0.15060 0.75240 0.73170 0.30200
O 	O 	0.23680 0.69190 0.64650 -0.32200
K 	K 	0.23154 0.52120 0.51396 0.64800
Dy	Dy	0.73501 0.69810 0.64140 1.60900
S 	S 	0.69593 0.31383 0.60797 0.57100
O 	O 	0.32070 0.29470 0.47810 -0.44800
O 	O 	0.68650 0.30640 0.54050 -0.38800
C 	C 	0.59870 0.30830 0.60820 -0.09600
C 	C 	0.38970 0.31880 0.48050 0.30400
C 	C 	0.45760 0.31010 0.54630 -0.06900
O 	O 	0.69920 0.35150 0.75850 -0.37500
O 	O 	0.34090 0.12610 0.60470 -0.40900
O 	O 	0.40250 0.34830 0.43070 -0.41200
O 	O 	0.65150 0.13630 0.76070 -0.37600
O 	O 	0.73270 0.44850 0.63830 -0.43900
O 	O 	0.32820 0.35640 0.61760 -0.43000
C 	C 	0.58650 0.27400 0.66560 -0.03600
C 	C 	0.44440 0.27640 0.60250 -0.05600
C 	C 	0.53460 0.32440 0.55020 0.01600
H 	H 	0.54370 0.34670 0.51140 0.04200
C 	C 	0.36530 0.25290 0.60650 0.32700
C 	C 	0.50970 0.25760 0.66100 -0.01000
H 	H 	0.50070 0.23210 0.69940 0.04600
C 	C 	0.65060 0.25240 0.73170 0.30200
O 	O 	0.73680 0.19190 0.64650 -0.32200
K 	K 	0.73154 0.02120 0.51396 0.64800
