data_crystal

_cell_length_a 10.07600
_cell_length_b 11.41800
_cell_length_c 14.90800
_cell_angle_alpha 91.42000
_cell_angle_beta  90.00000
_cell_angle_gamma 90.00000

_symmetry_space_group_name_	'P 1'
_symmetry_space_group_name_H-M	'P 1'

loop_
_symmetry_equiv_pos_as_xyz
  x,y,z

loop_
_atom_site_label
_atom_site_type_symbol
_atom_site_fract_x
_atom_site_fract_y
_atom_site_fract_z
_atom_site_charge
Co	Co	0.87754 0.73947 0.30475 1.21800
Co	Co	0.07254 0.75492 0.13403 1.13700
Co	Co	0.37754 0.76053 0.19525 1.20100
Co	Co	0.57254 0.74508 0.36597 1.19100
Co	Co	0.12246 0.26053 0.69525 1.17900
Co	Co	0.92746 0.24508 0.86597 1.23400
Co	Co	0.62246 0.23947 0.80475 1.19500
Co	Co	0.42746 0.25492 0.63403 1.18500
Co	Co	-0.00000 0.00000 -0.00000 1.08100
Co	Co	0.50000 0.50000 0.50000 1.20900
Co	Co	-0.00000 0.50000 -0.00000 1.10100
Co	Co	0.50000 -0.00000 0.50000 1.18000
H 	H 	0.77910 0.96410 0.21200 -0.13500
H 	H 	0.85060 0.69660 0.92650 -0.10600
H 	H 	0.94920 0.47710 0.25700 -0.08100
H 	H 	0.78270 0.49570 0.46690 -0.08000
H 	H 	0.72540 0.65360 0.13000 -0.13300
H 	H 	0.87160 0.94070 0.44910 -0.05000
H 	H 	0.27910 0.53590 0.28800 -0.14500
H 	H 	0.35060 0.80340 0.57350 -0.09300
H 	H 	0.44920 0.02290 0.24300 -0.23100
H 	H 	0.28270 0.00430 0.03310 -0.21700
H 	H 	0.22540 0.84640 0.37000 -0.11200
H 	H 	0.37160 0.55930 0.05090 -0.13000
H 	H 	0.22090 0.03590 0.78800 -0.09800
H 	H 	0.14940 0.30340 0.07350 -0.07300
H 	H 	0.05080 0.52290 0.74300 -0.11800
H 	H 	0.21730 0.50430 0.53310 -0.11400
H 	H 	0.27460 0.34640 0.87000 -0.08400
H 	H 	0.12840 0.05930 0.55090 -0.15100
H 	H 	0.72090 0.46410 0.71200 -0.10100
H 	H 	0.64940 0.19660 0.42650 -0.10500
H 	H 	0.55080 0.97710 0.75700 0.02800
H 	H 	0.71730 0.99570 0.96690 0.03200
H 	H 	0.77460 0.15360 0.63000 -0.11000
H 	H 	0.62840 0.44070 0.94910 -0.06700
C 	C 	0.84850 0.94180 0.17410 0.58200
C 	C 	0.90430 0.74110 0.96490 0.61500
C 	C 	0.97260 0.51760 0.20600 0.47400
C 	C 	0.76640 0.56110 0.43260 0.46700
C 	C 	0.65790 0.67880 0.16840 0.48700
C 	C 	0.78160 0.92340 0.44410 0.46500
C 	C 	0.34850 0.55820 0.32590 0.50200
C 	C 	0.40430 0.75890 0.53510 0.47500
C 	C 	0.47260 0.98240 0.29400 0.72400
C 	C 	0.26640 0.93890 0.06740 0.61600
C 	C 	0.15790 0.82120 0.33160 0.48900
C 	C 	0.28160 0.57660 0.05590 0.49100
C 	C 	0.15150 0.05820 0.82590 0.38300
C 	C 	0.09570 0.25890 0.03510 0.28200
C 	C 	0.02740 0.48240 0.79400 0.49400
C 	C 	0.23360 0.43890 0.56740 0.48700
C 	C 	0.34210 0.32120 0.83160 0.47200
C 	C 	0.21840 0.07660 0.55590 0.49600
C 	C 	0.65150 0.44180 0.67410 0.49400
C 	C 	0.59570 0.24110 0.46490 0.48400
C 	C 	0.52740 0.01760 0.70600 0.25100
C 	C 	0.73360 0.06110 0.93260 0.32600
C 	C 	0.84210 0.17880 0.66840 0.47000
C 	C 	0.71840 0.42340 0.94410 0.46200
O 	O 	0.87250 0.00630 0.11059 -0.48600
O 	O 	0.91010 0.84749 0.19267 -0.53100
O 	O 	0.90310 0.84845 0.95587 -0.36000
O 	O 	0.97330 0.68510 0.02299 -0.56800
O 	O 	0.98990 0.45850 0.13635 -0.37900
O 	O 	0.98350 0.62869 0.21482 -0.49600
O 	O 	0.86350 0.60340 0.39296 -0.39400
O 	O 	0.64720 0.59820 0.43102 -0.54100
O 	O 	0.68800 0.69502 0.25111 -0.55000
O 	O 	0.54650 0.69390 0.13454 -0.44800
O 	O 	0.74920 0.84304 0.38708 -0.52700
O 	O 	0.70480 0.98088 0.49383 -0.37900
O 	O 	0.37250 0.49370 0.38941 -0.44600
O 	O 	0.41010 0.65251 0.30733 -0.55800
O 	O 	0.40310 0.65155 0.54413 -0.43100
O 	O 	0.47330 0.81490 0.47701 -0.52800
O 	O 	0.48990 0.04150 0.36365 -0.53900
O 	O 	0.48350 0.87131 0.28518 -0.60300
O 	O 	0.36350 0.89660 0.10704 -0.46600
O 	O 	0.14720 0.90180 0.06898 -0.61700
O 	O 	0.18800 0.80498 0.24889 -0.56700
O 	O 	0.04650 0.80610 0.36546 -0.49300
O 	O 	0.24920 0.65696 0.11292 -0.58000
O 	O 	0.20480 0.51912 0.00617 -0.49700
O 	O 	0.12750 0.99370 0.88941 -0.31600
O 	O 	0.08990 0.15251 0.80733 -0.56000
O 	O 	0.09690 0.15155 0.04413 -0.46100
O 	O 	0.02670 0.31490 0.97701 -0.44900
O 	O 	0.01010 0.54150 0.86365 -0.43500
O 	O 	0.01650 0.37131 0.78518 -0.59300
O 	O 	0.13650 0.39660 0.60704 -0.45800
O 	O 	0.35280 0.40180 0.56898 -0.55200
O 	O 	0.31200 0.30498 0.74889 -0.54100
O 	O 	0.45350 0.30610 0.86546 -0.40600
O 	O 	0.25080 0.15696 0.61292 -0.57100
O 	O 	0.29520 0.01912 0.50617 -0.46700
O 	O 	0.62750 0.50630 0.61059 -0.42000
O 	O 	0.58990 0.34749 0.69267 -0.55100
O 	O 	0.59690 0.34845 0.45587 -0.43500
O 	O 	0.52670 0.18510 0.52299 -0.54900
O 	O 	0.51010 0.95850 0.63635 -0.31100
O 	O 	0.51650 0.12869 0.71482 -0.49700
O 	O 	0.63650 0.10340 0.89296 -0.38300
O 	O 	0.85280 0.09820 0.93102 -0.44400
O 	O 	0.81200 0.19502 0.75111 -0.52700
O 	O 	0.95350 0.19390 0.63454 -0.36600
O 	O 	0.75080 0.34304 0.88708 -0.51700
O 	O 	0.79520 0.48088 0.99383 -0.33200
