data_crystal

_cell_length_a 9.92920
_cell_length_b 11.38340
_cell_length_c 14.43240
_cell_angle_alpha 91.25000
_cell_angle_beta  90.00000
_cell_angle_gamma 90.00000

_symmetry_space_group_name_	'P 1'
_symmetry_space_group_name_H-M	'P 1'

loop_
_symmetry_equiv_pos_as_xyz
  x,y,z

loop_
_atom_site_label
_atom_site_type_symbol
_atom_site_fract_x
_atom_site_fract_y
_atom_site_fract_z
_atom_site_charge
Co	Co	0.92079 0.75477 0.63339 1.24100
Co	Co	0.61236 0.76069 0.68972 1.20600
Co	Co	0.42079 0.74523 0.86661 1.20000
Co	Co	0.11236 0.73931 0.81028 1.18500
Co	Co	0.07921 0.24523 0.36661 1.14500
Co	Co	0.38764 0.23931 0.31028 1.19700
Co	Co	0.57921 0.25477 0.13339 1.18500
Co	Co	0.88764 0.26069 0.18972 1.21700
Co	Co	0.00000 0.50000 0.50000 1.16100
Co	Co	0.50000 0.00000 -0.00000 1.12600
Co	Co	0.00000 0.00000 0.50000 1.13400
Co	Co	0.50000 0.50000 -0.00000 1.16300
H 	H 	0.61840 0.56140 0.53750 -0.08200
H 	H 	0.21210 0.96670 0.72570 -0.12500
H 	H 	0.75560 0.84190 0.87450 -0.06300
H 	H 	0.96100 0.52430 0.23260 -0.11000
H 	H 	0.71350 0.00500 0.52060 -0.15100
H 	H 	0.15670 0.69600 0.42670 -0.10000
H 	H 	0.11840 0.93860 0.96250 -0.11700
H 	H 	0.71210 0.53330 0.77430 -0.07800
H 	H 	0.25560 0.65810 0.62550 -0.09800
H 	H 	0.46100 0.97570 0.26740 0.04100
H 	H 	0.21350 0.49500 0.97940 -0.05600
H 	H 	0.65670 0.80400 0.07330 -0.04300
H 	H 	0.38160 0.43860 0.46250 -0.08600
H 	H 	0.78790 0.03330 0.27430 -0.07900
H 	H 	0.24440 0.15810 0.12550 -0.13100
H 	H 	0.03900 0.47570 0.76740 -0.04900
H 	H 	0.28650 0.99500 0.47940 0.00900
H 	H 	0.84330 0.30400 0.57330 -0.08500
H 	H 	0.88160 0.06140 0.03750 -0.04300
H 	H 	0.28790 0.46670 0.22570 -0.12400
H 	H 	0.74440 0.34190 0.37450 -0.09300
H 	H 	0.53900 0.02430 0.73260 -0.18000
H 	H 	0.78650 0.50500 0.02060 -0.09500
H 	H 	0.34330 0.19600 0.92670 -0.14700
C 	C 	0.71315 0.57787 0.54659 0.45700
C 	C 	0.14127 0.94519 0.68199 0.58500
C 	C 	0.82832 0.81731 0.83439 0.45000
C 	C 	0.98465 0.48263 0.28882 0.63200
C 	C 	0.72700 0.93782 0.55971 0.55800
C 	C 	0.10027 0.74107 0.46598 0.47900
C 	C 	0.21315 0.92213 0.95341 0.61300
C 	C 	0.64127 0.55481 0.81801 0.45600
C 	C 	0.32832 0.68269 0.66561 0.45900
C 	C 	0.48465 0.01737 0.21118 0.20900
C 	C 	0.22700 0.56218 0.94029 0.44700
C 	C 	0.60027 0.75893 0.03402 0.29700
C 	C 	0.28685 0.42213 0.45341 0.46100
C 	C 	0.85873 0.05481 0.31801 0.34900
C 	C 	0.17168 0.18269 0.16561 0.46800
C 	C 	0.01535 0.51737 0.71118 0.27900
C 	C 	0.27300 0.06218 0.44029 0.32500
C 	C 	0.89973 0.25893 0.53402 0.46500
C 	C 	0.78685 0.07787 0.04659 0.26400
C 	C 	0.35873 0.44519 0.18199 0.47700
C 	C 	0.67168 0.31731 0.33439 0.45800
C 	C 	0.51535 0.98263 0.78882 0.66000
C 	C 	0.77300 0.43782 0.05971 0.44800
C 	C 	0.39973 0.24107 0.96598 0.66900
O 	O 	0.74361 0.65726 0.60745 -0.52900
O 	O 	0.79361 0.52141 0.49767 -0.39200
O 	O 	0.08101 0.84815 0.69652 -0.61200
O 	O 	0.12041 0.01103 0.61665 -0.54200
O 	O 	0.93986 0.80293 0.87131 -0.33100
O 	O 	0.80146 0.80416 0.74808 -0.51500
O 	O 	0.99363 0.37098 0.28183 -0.54300
O 	O 	0.00174 0.54271 0.35996 -0.55400
O 	O 	0.62675 0.89506 0.59790 -0.43000
O 	O 	0.84835 0.90135 0.56570 -0.50800
O 	O 	0.10352 0.84909 0.45843 -0.43700
O 	O 	0.02564 0.68478 0.52269 -0.58800
O 	O 	0.24361 0.84274 0.89255 -0.57600
O 	O 	0.29361 0.97859 0.00233 -0.51300
O 	O 	0.58101 0.65185 0.80348 -0.53700
O 	O 	0.62041 0.48897 0.88335 -0.37100
O 	O 	0.43986 0.69707 0.62869 -0.42200
O 	O 	0.30146 0.69584 0.75192 -0.54400
O 	O 	0.49363 0.12902 0.21817 -0.49700
O 	O 	0.50174 0.95729 0.14004 -0.31100
O 	O 	0.12675 0.60494 0.90210 -0.43100
O 	O 	0.34835 0.59865 0.93430 -0.50800
O 	O 	0.60352 0.65091 0.04157 -0.41200
O 	O 	0.52564 0.81522 0.97731 -0.41000
O 	O 	0.25639 0.34274 0.39255 -0.56000
O 	O 	0.20639 0.47859 0.50233 -0.44500
O 	O 	0.91899 0.15185 0.30348 -0.48700
O 	O 	0.87959 0.98897 0.38335 -0.29300
O 	O 	0.06014 0.19707 0.12869 -0.52300
O 	O 	0.19854 0.19584 0.25192 -0.57900
O 	O 	0.00637 0.62902 0.71817 -0.55000
O 	O 	0.99826 0.45729 0.64004 -0.27300
O 	O 	0.37325 0.10494 0.40210 -0.41300
O 	O 	0.15165 0.09865 0.43430 -0.55500
O 	O 	0.89648 0.15091 0.54157 -0.39900
O 	O 	0.97436 0.31522 0.47731 -0.48600
O 	O 	0.75639 0.15726 0.10745 -0.50500
O 	O 	0.70639 0.02141 0.99767 -0.28200
O 	O 	0.41899 0.34815 0.19652 -0.56500
O 	O 	0.37959 0.51103 0.11665 -0.46900
O 	O 	0.56014 0.30293 0.37131 -0.42900
O 	O 	0.69854 0.30416 0.24808 -0.54900
O 	O 	0.50637 0.87098 0.78183 -0.58600
O 	O 	0.49826 0.04271 0.85996 -0.48800
O 	O 	0.87325 0.39506 0.09790 -0.41400
O 	O 	0.65165 0.40135 0.06570 -0.56400
O 	O 	0.39648 0.34909 0.95843 -0.44000
O 	O 	0.47436 0.18478 0.02269 -0.67300
