data_crystal

_cell_length_a 10.01170
_cell_length_b 11.34570
_cell_length_c 14.82000
_cell_angle_alpha 91.37200
_cell_angle_beta  90.00000
_cell_angle_gamma 90.00000

_symmetry_space_group_name_	'P 1'
_symmetry_space_group_name_H-M	'P 1'

loop_
_symmetry_equiv_pos_as_xyz
  x,y,z

loop_
_atom_site_label
_atom_site_type_symbol
_atom_site_fract_x
_atom_site_fract_y
_atom_site_fract_z
_atom_site_charge
Co	Co	0.57237 0.75491 0.63408 1.19600
Co	Co	0.37737 0.73945 0.80462 1.20600
Co	Co	0.07237 0.74509 0.86592 1.14800
Co	Co	0.87737 0.76055 0.69538 1.22700
Co	Co	0.42763 0.24509 0.36592 1.19100
Co	Co	0.62263 0.26055 0.19538 1.20200
Co	Co	0.92763 0.25491 0.13408 1.24400
Co	Co	0.12263 0.23945 0.30462 1.18000
Co	Co	0.50000 0.50000 0.50000 1.21200
Co	Co	-0.00000 0.00000 -0.00000 1.08400
Co	Co	0.50000 0.00000 0.50000 1.18800
Co	Co	-0.00000 0.50000 -0.00000 1.11700
H 	H 	0.35090 0.69650 0.42690 -0.11500
H 	H 	0.44770 0.47720 0.75660 -0.11000
H 	H 	0.87140 0.55900 0.55110 -0.07200
H 	H 	0.27920 0.96400 0.71250 -0.16900
H 	H 	0.78300 0.00280 0.53170 -0.16800
H 	H 	0.72520 0.84660 0.87010 -0.08100
H 	H 	0.85090 0.80350 0.07310 -0.02600
H 	H 	0.94770 0.02280 0.74340 -0.18300
H 	H 	0.37140 0.94100 0.94890 -0.05800
H 	H 	0.77920 0.53600 0.78750 -0.10900
H 	H 	0.28300 0.49720 0.96830 -0.07100
H 	H 	0.22520 0.65340 0.62990 -0.12800
H 	H 	0.64910 0.30350 0.57310 -0.10600
H 	H 	0.55230 0.52280 0.24340 -0.11500
H 	H 	0.12860 0.44100 0.44890 -0.14400
H 	H 	0.72080 0.03600 0.28750 -0.09100
H 	H 	0.21700 0.99720 0.46830 -0.02900
H 	H 	0.27480 0.15340 0.12990 -0.15100
H 	H 	0.14910 0.19650 0.92690 -0.18500
H 	H 	0.05230 0.97720 0.25660 -0.00500
H 	H 	0.62860 0.05900 0.05110 -0.15400
H 	H 	0.22080 0.46400 0.21250 -0.14800
H 	H 	0.71700 0.50280 0.03170 -0.12800
H 	H 	0.77480 0.34660 0.37010 -0.10500
C 	C 	0.40500 0.74140 0.46550 0.51400
C 	C 	0.47210 0.51790 0.70540 0.52100
C 	C 	0.78090 0.57630 0.55610 0.50000
C 	C 	0.34880 0.94170 0.67420 0.64100
C 	C 	0.76650 0.93760 0.56700 0.62000
C 	C 	0.65740 0.82120 0.83140 0.49100
C 	C 	0.90500 0.75860 0.03450 0.30700
C 	C 	0.97210 0.98210 0.79460 0.69900
C 	C 	0.28090 0.92370 0.94390 0.47200
C 	C 	0.84880 0.55830 0.82580 0.49900
C 	C 	0.26650 0.56240 0.93300 0.50000
C 	C 	0.15740 0.67880 0.66860 0.51100
C 	C 	0.59500 0.25860 0.53450 0.52100
C 	C 	0.52790 0.48210 0.29460 0.52500
C 	C 	0.21910 0.42370 0.44390 0.51800
C 	C 	0.65120 0.05830 0.32580 0.40500
C 	C 	0.23350 0.06240 0.43300 0.37500
C 	C 	0.34260 0.17880 0.16860 0.50500
C 	C 	0.09500 0.24140 0.96550 0.71500
C 	C 	0.02790 0.01790 0.20540 0.26800
C 	C 	0.71910 0.07630 0.05610 0.53100
C 	C 	0.15120 0.44170 0.17420 0.53800
C 	C 	0.73350 0.43760 0.06700 0.50100
C 	C 	0.84260 0.32120 0.33140 0.48600
O 	O 	0.47350 0.68570 0.52290 -0.55500
O 	O 	0.40330 0.84820 0.45610 -0.43200
O 	O 	0.49010 0.45870 0.63620 -0.44400
O 	O 	0.48330 0.62840 0.71460 -0.56200
O 	O 	0.70510 0.51870 0.50670 -0.42500
O 	O 	0.74900 0.65680 0.61320 -0.54500
O 	O 	0.37230 0.00660 0.61080 -0.53200
O 	O 	0.41000 0.84760 0.69240 -0.59100
O 	O 	0.64750 0.90160 0.56880 -0.56500
O 	O 	0.86380 0.89640 0.60660 -0.41900
O 	O 	0.68840 0.80510 0.74880 -0.54400
O 	O 	0.54600 0.80640 0.86530 -0.40500
O 	O 	0.97350 0.81430 0.97710 -0.34500
O 	O 	0.90330 0.65180 0.04390 -0.37500
O 	O 	0.99010 0.04130 0.86380 -0.42800
O 	O 	0.98330 0.87160 0.78540 -0.54800
O 	O 	0.20510 0.98130 0.99330 -0.35100
O 	O 	0.24900 0.84320 0.88680 -0.55200
O 	O 	0.87230 0.49340 0.88920 -0.34400
O 	O 	0.91000 0.65240 0.80760 -0.50600
O 	O 	0.14750 0.59840 0.93120 -0.55100
O 	O 	0.36380 0.60360 0.89340 -0.41800
O 	O 	0.18840 0.69490 0.75120 -0.58100
O 	O 	0.04600 0.69360 0.63470 -0.50700
O 	O 	0.52650 0.31430 0.47710 -0.56000
O 	O 	0.59670 0.15180 0.54390 -0.45500
O 	O 	0.50990 0.54130 0.36380 -0.44200
O 	O 	0.51670 0.37160 0.28540 -0.56700
O 	O 	0.29490 0.48130 0.49330 -0.45200
O 	O 	0.25100 0.34320 0.38680 -0.57500
O 	O 	0.62770 0.99340 0.38920 -0.34300
O 	O 	0.59000 0.15240 0.30760 -0.54100
O 	O 	0.35250 0.09840 0.43120 -0.54200
O 	O 	0.13620 0.10360 0.39340 -0.45500
O 	O 	0.31160 0.19490 0.25120 -0.56600
O 	O 	0.45400 0.19360 0.13470 -0.46800
O 	O 	0.02650 0.18570 0.02290 -0.73700
O 	O 	0.09670 0.34820 0.95610 -0.48800
O 	O 	0.00990 0.95870 0.13620 -0.38400
O 	O 	0.01670 0.12840 0.21460 -0.55900
O 	O 	0.79490 0.01870 0.00670 -0.48400
O 	O 	0.75100 0.15680 0.11320 -0.55800
O 	O 	0.12770 0.50660 0.11080 -0.50500
O 	O 	0.09000 0.34760 0.19240 -0.62200
O 	O 	0.85250 0.40160 0.06880 -0.53600
O 	O 	0.63620 0.39640 0.10660 -0.45200
O 	O 	0.81160 0.30510 0.24880 -0.52900
O 	O 	0.95400 0.30640 0.36530 -0.36200
