data_crystal

_cell_length_a 21.15500
_cell_length_b 21.15500
_cell_length_c 7.66320
_cell_angle_alpha 90.00000
_cell_angle_beta  90.00000
_cell_angle_gamma 120.00000

_symmetry_space_group_name_	'P 1'
_symmetry_space_group_name_H-M	'P 1'

loop_
_symmetry_equiv_pos_as_xyz
  x,y,z

loop_
_atom_site_label
_atom_site_type_symbol
_atom_site_fract_x
_atom_site_fract_y
_atom_site_fract_z
_atom_site_charge
O 	O 	0.76010 0.36130 0.07880 -0.54100
O 	O 	0.75820 0.29380 0.85190 -0.51700
F 	F 	0.92860 0.22810 0.59160 -0.49300
F 	F 	0.99770 0.18380 0.53040 -0.35900
C 	C 	0.78110 0.32310 0.99420 0.52600
C 	C 	0.83720 0.31050 0.08450 -0.32800
F 	F 	0.90120 0.15300 0.38030 -0.39400
C 	C 	0.86530 0.27290 0.99750 0.33700
H 	H 	0.84910 0.25580 0.88530 -0.00400
C 	C 	0.91420 0.32350 0.32990 -0.36200
H 	H 	0.92980 0.33990 0.44290 0.19000
C 	C 	0.95660 0.21010 0.46200 0.95900
C 	C 	0.94270 0.28600 0.23750 0.41000
C 	C 	0.86200 0.33590 0.24970 0.27500
H 	H 	0.84380 0.36170 0.30920 -0.04300
C 	C 	0.91730 0.26020 0.07390 -0.40400
H 	H 	0.93500 0.23410 0.01360 0.31100
O 	O 	0.63870 0.39880 0.41213 -0.52300
O 	O 	0.70620 0.46440 0.18523 -0.51300
F 	F 	0.77190 0.70050 0.92493 -0.48900
F 	F 	0.81620 0.81390 0.86373 -0.35100
C 	C 	0.67690 0.45800 0.32753 0.48300
C 	C 	0.68950 0.52670 0.41783 -0.27300
F 	F 	0.84700 0.74820 0.71363 -0.40000
C 	C 	0.72710 0.59240 0.33083 0.27500
H 	H 	0.74420 0.59330 0.21863 0.01200
C 	C 	0.67650 0.59070 0.66323 -0.35000
H 	H 	0.66010 0.58990 0.77623 0.19600
C 	C 	0.78990 0.74650 0.79533 0.98800
C 	C 	0.71400 0.65670 0.57083 0.42700
C 	C 	0.66410 0.52610 0.58303 0.25000
H 	H 	0.63830 0.48210 0.64253 -0.03200
C 	C 	0.73980 0.65710 0.40723 -0.36900
H 	H 	0.76590 0.70090 0.34693 0.31000
O 	O 	0.60120 0.23990 0.74547 -0.51700
O 	O 	0.53560 0.24180 0.51857 -0.50800
F 	F 	0.29950 0.07140 0.25827 -0.48800
F 	F 	0.18610 0.00230 0.19707 -0.33300
C 	C 	0.54200 0.21890 0.66087 0.47900
C 	C 	0.47330 0.16280 0.75117 -0.25700
F 	F 	0.25180 0.09880 0.04697 -0.39700
C 	C 	0.40760 0.13470 0.66417 0.26800
H 	H 	0.40670 0.15090 0.55197 0.01900
C 	C 	0.40930 0.08580 0.99657 -0.30900
H 	H 	0.41010 0.07020 0.10957 0.17800
C 	C 	0.25350 0.04340 0.12867 0.98400
C 	C 	0.34330 0.05730 0.90417 0.42600
C 	C 	0.47390 0.13800 0.91637 0.23000
H 	H 	0.51790 0.15620 0.97587 -0.01800
C 	C 	0.34290 0.08270 0.74057 -0.35700
H 	H 	0.29910 0.06500 0.68027 0.31800
O 	O 	0.23990 0.63870 0.07880 -0.54200
O 	O 	0.24180 0.70620 0.85190 -0.51800
F 	F 	0.07140 0.77190 0.59160 -0.48600
F 	F 	0.00230 0.81620 0.53040 -0.33600
C 	C 	0.21890 0.67690 0.99420 0.53500
C 	C 	0.16280 0.68950 0.08450 -0.34400
F 	F 	0.09880 0.84700 0.38030 -0.39700
C 	C 	0.13470 0.72710 0.99750 0.36700
H 	H 	0.15090 0.74420 0.88530 -0.01100
C 	C 	0.08580 0.67650 0.32990 -0.38700
H 	H 	0.07020 0.66010 0.44290 0.21300
C 	C 	0.04340 0.78990 0.46200 0.98400
C 	C 	0.05730 0.71400 0.23750 0.46200
C 	C 	0.13800 0.66410 0.24970 0.30200
H 	H 	0.15620 0.63830 0.30920 -0.04900
C 	C 	0.08270 0.73980 0.07390 -0.43300
H 	H 	0.06500 0.76590 0.01360 0.33800
O 	O 	0.36130 0.60120 0.41213 -0.52300
O 	O 	0.29380 0.53560 0.18523 -0.51200
F 	F 	0.22810 0.29950 0.92493 -0.48700
F 	F 	0.18380 0.18610 0.86373 -0.33900
C 	C 	0.32310 0.54200 0.32753 0.48300
C 	C 	0.31050 0.47330 0.41783 -0.27300
F 	F 	0.15300 0.25180 0.71363 -0.39000
C 	C 	0.27290 0.40760 0.33083 0.27500
H 	H 	0.25580 0.40670 0.21863 0.01300
C 	C 	0.32350 0.40930 0.66323 -0.35000
H 	H 	0.33990 0.41010 0.77623 0.19600
C 	C 	0.21010 0.25350 0.79533 0.98600
C 	C 	0.28600 0.34330 0.57083 0.42700
C 	C 	0.33590 0.47390 0.58303 0.25000
H 	H 	0.36170 0.51790 0.64253 -0.03200
C 	C 	0.26020 0.34290 0.40723 -0.36900
H 	H 	0.23410 0.29910 0.34693 0.31200
O 	O 	0.39880 0.76010 0.74547 -0.51700
O 	O 	0.46440 0.75820 0.51857 -0.50700
F 	F 	0.70050 0.92860 0.25827 -0.49800
F 	F 	0.81390 0.99770 0.19707 -0.36900
C 	C 	0.45800 0.78110 0.66087 0.47100
C 	C 	0.52670 0.83720 0.75117 -0.24300
F 	F 	0.74820 0.90120 0.04697 -0.40400
C 	C 	0.59240 0.86530 0.66417 0.23900
H 	H 	0.59330 0.84910 0.55197 0.02500
C 	C 	0.59070 0.91420 0.99657 -0.28200
H 	H 	0.58990 0.92980 0.10957 0.15300
C 	C 	0.74650 0.95660 0.12867 0.96100
C 	C 	0.65670 0.94270 0.90417 0.37500
C 	C 	0.52610 0.86200 0.91637 0.20200
H 	H 	0.48210 0.84380 0.97587 -0.01200
C 	C 	0.65710 0.91730 0.74057 -0.33000
H 	H 	0.70090 0.93500 0.68027 0.29000
O 	O 	0.36130 0.76010 0.25453 -0.52500
O 	O 	0.29380 0.75820 0.48143 -0.50700
F 	F 	0.22810 0.92860 0.74173 -0.49500
F 	F 	0.18380 0.99770 0.80293 -0.35800
C 	C 	0.32310 0.78110 0.33913 0.48100
C 	C 	0.31050 0.83720 0.24883 -0.27200
F 	F 	0.15300 0.90120 0.95303 -0.38900
C 	C 	0.27290 0.86530 0.33583 0.26300
H 	H 	0.25580 0.84910 0.44803 0.01900
C 	C 	0.32350 0.91420 0.00343 -0.36700
H 	H 	0.33990 0.92980 0.89043 0.19900
C 	C 	0.21010 0.95660 0.87133 0.97000
C 	C 	0.28600 0.94270 0.09583 0.39300
C 	C 	0.33590 0.86200 0.08363 0.25000
H 	H 	0.36170 0.84380 0.02413 -0.04000
C 	C 	0.26020 0.91730 0.25943 -0.35400
H 	H 	0.23410 0.93500 0.31973 0.29800
O 	O 	0.39880 0.63870 0.92120 -0.49400
O 	O 	0.46440 0.70620 0.14810 -0.49600
F 	F 	0.70050 0.77190 0.40840 -0.49600
F 	F 	0.81390 0.81620 0.46960 -0.35700
C 	C 	0.45800 0.67690 0.00580 0.42200
C 	C 	0.52670 0.68950 0.91550 -0.18100
F 	F 	0.74820 0.84700 0.61970 -0.40000
C 	C 	0.59240 0.72710 0.00250 0.16500
H 	H 	0.59330 0.74420 0.11470 0.05000
C 	C 	0.59070 0.67650 0.67010 -0.29700
H 	H 	0.58990 0.66010 0.55710 0.17400
C 	C 	0.74650 0.78990 0.53800 0.98900
C 	C 	0.65670 0.71400 0.76250 0.38400
C 	C 	0.52610 0.66410 0.75030 0.18400
H 	H 	0.48210 0.63830 0.69080 -0.00900
C 	C 	0.65710 0.73980 0.92610 -0.28300
H 	H 	0.70090 0.76590 0.98640 0.28800
O 	O 	0.23990 0.60120 0.58787 -0.51900
O 	O 	0.24180 0.53560 0.81477 -0.50100
F 	F 	0.07140 0.29950 0.07507 -0.49100
F 	F 	0.00230 0.18610 0.13627 -0.33400
C 	C 	0.21890 0.54200 0.67247 0.48000
C 	C 	0.16280 0.47330 0.58217 -0.26500
F 	F 	0.09880 0.25180 0.28637 -0.39200
C 	C 	0.13470 0.40760 0.66917 0.27200
H 	H 	0.15090 0.40670 0.78137 0.02200
C 	C 	0.08580 0.40930 0.33677 -0.34100
H 	H 	0.07020 0.41010 0.22377 0.19500
C 	C 	0.04340 0.25350 0.20467 0.98400
C 	C 	0.05730 0.34330 0.42917 0.42500
C 	C 	0.13800 0.47390 0.41697 0.24500
H 	H 	0.15620 0.51790 0.35747 -0.02900
C 	C 	0.08270 0.34290 0.59277 -0.36000
H 	H 	0.06500 0.29910 0.65307 0.32000
O 	O 	0.63870 0.23990 0.25453 -0.52400
O 	O 	0.70620 0.24180 0.48143 -0.50800
F 	F 	0.77190 0.07140 0.74173 -0.48800
F 	F 	0.81620 0.00230 0.80293 -0.33500
C 	C 	0.67690 0.21890 0.33913 0.48800
C 	C 	0.68950 0.16280 0.24883 -0.28400
F 	F 	0.84700 0.09880 0.95303 -0.39200
C 	C 	0.72710 0.13470 0.33583 0.28900
H 	H 	0.74420 0.15090 0.44803 0.01300
C 	C 	0.67650 0.08580 0.00343 -0.38600
H 	H 	0.66010 0.07020 0.89043 0.22000
C 	C 	0.78990 0.04340 0.87133 0.99400
C 	C 	0.71400 0.05730 0.09583 0.44300
C 	C 	0.66410 0.13800 0.08363 0.27300
H 	H 	0.63830 0.15620 0.02413 -0.04300
C 	C 	0.73980 0.08270 0.25943 -0.37900
H 	H 	0.76590 0.06500 0.31973 0.32400
O 	O 	0.60120 0.36130 0.92120 -0.49500
O 	O 	0.53560 0.29380 0.14810 -0.49600
F 	F 	0.29950 0.22810 0.40840 -0.49400
F 	F 	0.18610 0.18380 0.46960 -0.34400
C 	C 	0.54200 0.32310 0.00580 0.42400
C 	C 	0.47330 0.31050 0.91550 -0.18500
F 	F 	0.25180 0.15300 0.61970 -0.39100
C 	C 	0.40760 0.27290 0.00250 0.17000
H 	H 	0.40670 0.25580 0.11470 0.04900
C 	C 	0.40930 0.32350 0.67010 -0.29900
H 	H 	0.41010 0.33990 0.55710 0.17500
C 	C 	0.25350 0.21010 0.53800 0.98700
C 	C 	0.34330 0.28600 0.76250 0.38600
C 	C 	0.47390 0.33590 0.75030 0.18700
H 	H 	0.51790 0.36170 0.69080 -0.01000
C 	C 	0.34290 0.26020 0.92610 -0.28700
H 	H 	0.29910 0.23410 0.98640 0.29000
O 	O 	0.76010 0.39880 0.58787 -0.51900
O 	O 	0.75820 0.46440 0.81477 -0.50100
F 	F 	0.92860 0.70050 0.07507 -0.50100
F 	F 	0.99770 0.81390 0.13627 -0.37000
C 	C 	0.78110 0.45800 0.67247 0.47300
C 	C 	0.83720 0.52670 0.58217 -0.25200
F 	F 	0.90120 0.74820 0.28637 -0.40000
C 	C 	0.86530 0.59240 0.66917 0.24600
H 	H 	0.84910 0.59330 0.78137 0.02700
C 	C 	0.91420 0.59070 0.33677 -0.32000
H 	H 	0.92980 0.58990 0.22377 0.17300
C 	C 	0.95660 0.74650 0.20467 0.96200
C 	C 	0.94270 0.65670 0.42917 0.37700
C 	C 	0.86200 0.52610 0.41697 0.22100
H 	H 	0.84380 0.48210 0.35747 -0.02400
C 	C 	0.91730 0.65710 0.59277 -0.33500
H 	H 	0.93500 0.70090 0.65307 0.29300
Zn	Zn	0.70023 0.40046 -0.00000 1.22500
Zn	Zn	0.59954 0.29977 0.33333 1.22900
Zn	Zn	0.70023 0.29977 0.66667 1.23100
Zn	Zn	0.29977 0.59954 -0.00000 1.22500
Zn	Zn	0.40046 0.70023 0.33333 1.22900
Zn	Zn	0.29977 0.70023 0.66667 1.23100
C 	C 	0.00000 0.27310 0.33333 -0.49300
C 	C 	0.72690 0.72690 0.66667 -0.52800
C 	C 	0.27310 0.00000 -0.00000 -0.50400
C 	C 	0.00000 0.72690 0.33333 -0.49600
C 	C 	0.27310 0.27310 0.66667 -0.52700
C 	C 	0.72690 0.00000 -0.00000 -0.50500
