data_crystal

_cell_length_a 13.85900
_cell_length_b 13.85900
_cell_length_c 18.94490
_cell_angle_alpha 90.00000
_cell_angle_beta  90.00000
_cell_angle_gamma 120.00000

_symmetry_space_group_name_	'P 1'
_symmetry_space_group_name_H-M	'P 1'

loop_
_symmetry_equiv_pos_as_xyz
  x,y,z

loop_
_atom_site_label
_atom_site_type_symbol
_atom_site_fract_x
_atom_site_fract_y
_atom_site_fract_z
_atom_site_charge
In	In	0.29368 0.43901 0.45394 1.99400
O 	O 	0.06530 0.14580 0.31469 -0.62900
O 	O 	0.10740 0.13680 0.43780 -0.69400
O 	O 	0.18950 0.31640 0.37876 -0.55500
O 	O 	0.25180 0.18190 0.34775 -0.44200
H 	H 	0.31620 0.25470 0.34350 0.19900
O 	O 	0.14580 0.43670 0.49086 -0.61700
O 	O 	0.00780 0.43350 0.57640 -0.66700
O 	O 	0.20070 0.49710 0.61745 -0.40700
H 	H 	0.27800 0.53640 0.60440 0.18500
O 	O 	0.16820 0.61570 0.53405 -0.61000
O 	O 	0.33530 0.56330 0.37752 -0.61400
H 	H 	0.39170 0.66770 0.25890 0.69900
P 	P 	0.14986 0.19318 0.37160 0.65800
P 	P 	0.12734 0.49580 0.55179 0.59500
In	In	0.56099 0.85467 0.45394 2.02100
O 	O 	0.85420 0.91950 0.31469 -0.37900
O 	O 	0.86320 0.97060 0.43780 -0.43100
O 	O 	0.68360 0.87310 0.37876 -0.48900
O 	O 	0.81810 0.06990 0.34775 -0.46300
H 	H 	0.74530 0.06150 0.34350 0.16400
O 	O 	0.56330 0.70910 0.49086 -0.55700
O 	O 	0.56650 0.57430 0.57640 -0.53600
O 	O 	0.50290 0.70360 0.61745 -0.37900
H 	H 	0.46360 0.74160 0.60440 0.18900
O 	O 	0.38430 0.55250 0.53405 -0.57400
O 	O 	0.43670 0.77200 0.37752 -0.56900
H 	H 	0.33230 0.72400 0.25890 0.70600
P 	P 	0.80682 0.95668 0.37160 0.77800
P 	P 	0.50420 0.63154 0.55179 0.59600
In	In	0.14533 0.70632 0.45394 1.97200
O 	O 	0.08050 0.93470 0.31469 -0.41300
O 	O 	0.02940 0.89260 0.43780 -0.56500
O 	O 	0.12690 0.81050 0.37876 -0.52000
O 	O 	0.93010 0.74820 0.34775 -0.26300
H 	H 	0.93850 0.68380 0.34350 0.21500
O 	O 	0.29090 0.85420 0.49086 -0.53000
O 	O 	0.42570 0.99220 0.57640 -0.41200
O 	O 	0.29640 0.79930 0.61745 -0.38200
H 	H 	0.25840 0.72200 0.60440 0.17200
O 	O 	0.44750 0.83180 0.53405 -0.53400
O 	O 	0.22800 0.66470 0.37752 -0.63500
H 	H 	0.27600 0.60830 0.25890 0.67900
P 	P 	0.04332 0.85014 0.37160 0.50300
P 	P 	0.36846 0.87266 0.55179 0.59900
In	In	0.43901 0.29368 0.04606 1.98500
O 	O 	0.14580 0.06530 0.18531 -0.63100
O 	O 	0.13680 0.10740 0.06220 -0.71300
O 	O 	0.31640 0.18950 0.12124 -0.56100
O 	O 	0.18190 0.25180 0.15225 -0.44700
H 	H 	0.25470 0.31620 0.15650 0.19800
O 	O 	0.43670 0.14580 0.00914 -0.66800
O 	O 	0.43350 0.00780 0.92360 -0.65300
O 	O 	0.49710 0.20070 0.88255 -0.40900
H 	H 	0.53640 0.27800 0.89560 0.19000
O 	O 	0.61570 0.16820 0.96595 -0.58600
O 	O 	0.56330 0.33530 0.12248 -0.62200
H 	H 	0.66770 0.39170 0.24110 0.69900
P 	P 	0.19318 0.14986 0.12840 0.65800
P 	P 	0.49580 0.12734 0.94821 0.64000
In	In	0.85467 0.56099 0.04606 2.01300
O 	O 	0.91950 0.85420 0.18531 -0.38000
O 	O 	0.97060 0.86320 0.06220 -0.44800
O 	O 	0.87310 0.68360 0.12124 -0.49400
O 	O 	0.06990 0.81810 0.15225 -0.46500
H 	H 	0.06150 0.74530 0.15650 0.16300
O 	O 	0.70910 0.56330 0.00914 -0.60500
O 	O 	0.57430 0.56650 0.92360 -0.52700
O 	O 	0.70360 0.50290 0.88255 -0.38100
H 	H 	0.74160 0.46360 0.89560 0.19300
O 	O 	0.55250 0.38430 0.96595 -0.55200
O 	O 	0.77200 0.43670 0.12248 -0.57600
H 	H 	0.72400 0.33230 0.24110 0.70500
P 	P 	0.95668 0.80682 0.12840 0.77700
P 	P 	0.63154 0.50420 0.94821 0.63800
In	In	0.70632 0.14533 0.04606 1.96300
O 	O 	0.93470 0.08050 0.18531 -0.41500
O 	O 	0.89260 0.02940 0.06220 -0.58600
O 	O 	0.81050 0.12690 0.12124 -0.52600
O 	O 	0.74820 0.93010 0.15225 -0.26600
H 	H 	0.68380 0.93850 0.15650 0.21500
O 	O 	0.85420 0.29090 0.00914 -0.58100
O 	O 	0.99220 0.42570 0.92360 -0.40200
O 	O 	0.79930 0.29640 0.88255 -0.38400
H 	H 	0.72200 0.25840 0.89560 0.17600
O 	O 	0.83180 0.44750 0.96595 -0.51400
O 	O 	0.66470 0.22800 0.12248 -0.64300
H 	H 	0.60830 0.27600 0.24110 0.67800
P 	P 	0.85014 0.04332 0.12840 0.50200
P 	P 	0.87266 0.36846 0.94821 0.64300
In	In	0.70632 0.56099 0.54606 1.99700
O 	O 	0.93470 0.85420 0.68531 -0.32900
O 	O 	0.89260 0.86320 0.56220 -0.44000
O 	O 	0.81050 0.68360 0.62124 -0.48900
O 	O 	0.74820 0.81810 0.65225 -0.34100
H 	H 	0.68380 0.74530 0.65650 0.18800
O 	O 	0.85420 0.56330 0.50914 -0.52100
O 	O 	0.99220 0.56650 0.42360 -0.41100
O 	O 	0.79930 0.50290 0.38255 -0.37200
H 	H 	0.72200 0.46360 0.39560 0.17900
O 	O 	0.83180 0.38430 0.46595 -0.53400
O 	O 	0.66470 0.43670 0.62248 -0.59800
H 	H 	0.60830 0.33230 0.74110 0.69000
P 	P 	0.85014 0.80682 0.62840 0.63600
P 	P 	0.87266 0.50420 0.44821 0.59900
In	In	0.43901 0.14533 0.54606 1.96900
O 	O 	0.14580 0.08050 0.68531 -0.57500
O 	O 	0.13680 0.02940 0.56220 -0.70300
O 	O 	0.31640 0.12690 0.62124 -0.55500
O 	O 	0.18190 0.93010 0.65225 -0.30200
H 	H 	0.25470 0.93850 0.65650 0.22100
O 	O 	0.43670 0.29090 0.50914 -0.58000
O 	O 	0.43350 0.42570 0.42360 -0.53900
O 	O 	0.49710 0.29640 0.38255 -0.40000
H 	H 	0.53640 0.25840 0.39560 0.17500
O 	O 	0.61570 0.44750 0.46595 -0.57100
O 	O 	0.56330 0.22800 0.62248 -0.64300
H 	H 	0.66770 0.27600 0.74110 0.68500
P 	P 	0.19318 0.04332 0.62840 0.50600
P 	P 	0.49580 0.36846 0.44821 0.59700
In	In	0.85467 0.29368 0.54606 2.02000
O 	O 	0.91950 0.06530 0.68531 -0.51900
O 	O 	0.97060 0.10740 0.56220 -0.54500
O 	O 	0.87310 0.18950 0.62124 -0.52000
O 	O 	0.06990 0.25180 0.65225 -0.52900
H 	H 	0.06150 0.31620 0.65650 0.16900
O 	O 	0.70910 0.14580 0.50914 -0.60300
O 	O 	0.57430 0.00780 0.42360 -0.66200
O 	O 	0.70360 0.20070 0.38255 -0.39500
H 	H 	0.74160 0.27800 0.39560 0.19300
O 	O 	0.55250 0.16820 0.46595 -0.61200
O 	O 	0.77200 0.33530 0.62248 -0.57600
H 	H 	0.72400 0.39170 0.74110 0.71100
P 	P 	0.95668 0.14986 0.62840 0.80200
P 	P 	0.63154 0.12734 0.44821 0.59400
In	In	0.56099 0.70632 0.95394 2.00500
O 	O 	0.85420 0.93470 0.81469 -0.32900
O 	O 	0.86320 0.89260 0.93780 -0.41800
O 	O 	0.68360 0.81050 0.87876 -0.48400
O 	O 	0.81810 0.74820 0.84775 -0.33500
H 	H 	0.74530 0.68380 0.84350 0.18800
O 	O 	0.56330 0.85420 0.99086 -0.47800
O 	O 	0.56650 0.99220 0.07640 -0.41800
O 	O 	0.50290 0.79930 0.11745 -0.36900
H 	H 	0.46360 0.72200 0.10440 0.17500
O 	O 	0.38430 0.83180 0.03405 -0.55300
O 	O 	0.43670 0.66470 0.87752 -0.59100
H 	H 	0.33230 0.60830 0.75890 0.69000
P 	P 	0.80682 0.85014 0.87160 0.63500
P 	P 	0.50420 0.87266 0.05179 0.56100
In	In	0.14533 0.43901 0.95394 1.97700
O 	O 	0.08050 0.14580 0.81469 -0.57200
O 	O 	0.02940 0.13680 0.93780 -0.67400
O 	O 	0.12690 0.31640 0.87876 -0.54900
O 	O 	0.93010 0.18190 0.84775 -0.29200
H 	H 	0.93850 0.25470 0.84350 0.22300
O 	O 	0.29090 0.43670 0.99086 -0.53000
O 	O 	0.42570 0.43350 0.07640 -0.54800
O 	O 	0.29640 0.49710 0.11745 -0.39700
H 	H 	0.25840 0.53640 0.10440 0.17100
O 	O 	0.44750 0.61570 0.03405 -0.59000
O 	O 	0.22800 0.56330 0.87752 -0.63700
H 	H 	0.27600 0.66770 0.75890 0.68400
P 	P 	0.04332 0.19318 0.87160 0.50100
P 	P 	0.36846 0.49580 0.05179 0.55600
In	In	0.29368 0.85467 0.95394 2.02700
O 	O 	0.06530 0.91950 0.81469 -0.52100
O 	O 	0.10740 0.97060 0.93780 -0.52600
O 	O 	0.18950 0.87310 0.87876 -0.51600
O 	O 	0.25180 0.06990 0.84775 -0.51800
H 	H 	0.31620 0.06150 0.84350 0.17100
O 	O 	0.14580 0.70910 0.99086 -0.55900
O 	O 	0.00780 0.57430 0.07640 -0.66900
O 	O 	0.20070 0.70360 0.11745 -0.39200
H 	H 	0.27800 0.74160 0.10440 0.18900
O 	O 	0.16820 0.55250 0.03405 -0.63100
O 	O 	0.33530 0.77200 0.87752 -0.57100
H 	H 	0.39170 0.72400 0.75890 0.71000
P 	P 	0.14986 0.95668 0.87160 0.79400
P 	P 	0.12734 0.63154 0.05179 0.55700
In	In	-0.00000 0.00000 0.25000 1.90700
In	In	-0.00000 0.00000 0.75000 1.90900
In	In	-0.00000 0.00000 0.50000 1.91900
In	In	-0.00000 0.00000 -0.00000 1.90600
O 	O 	0.33333 0.66667 0.27390 -1.87400
P 	P 	0.33333 0.66667 0.35707 0.89500
O 	O 	0.66667 0.33333 0.22610 -1.87200
P 	P 	0.66667 0.33333 0.14293 0.89300
O 	O 	0.66667 0.33333 0.72610 -1.87400
P 	P 	0.66667 0.33333 0.64293 0.89500
O 	O 	0.33333 0.66667 0.77390 -1.87400
P 	P 	0.33333 0.66667 0.85707 0.89700
