data_crystal

_cell_length_a 18.31710
_cell_length_b 8.76020
_cell_length_c 19.42720
_cell_angle_alpha 90.00000
_cell_angle_beta  128.94500
_cell_angle_gamma 90.00000

_symmetry_space_group_name_	'P 1'
_symmetry_space_group_name_H-M	'P 1'

loop_
_symmetry_equiv_pos_as_xyz
  x,y,z

loop_
_atom_site_label
_atom_site_type_symbol
_atom_site_fract_x
_atom_site_fract_y
_atom_site_fract_z
_atom_site_charge
In	In	0.17404 0.47049 0.65943 2.00600
O 	O 	0.10930 0.30670 0.80180 -0.51000
O 	O 	0.12330 0.27610 0.68090 -0.55300
O 	O 	0.08040 0.05520 0.72830 -0.44100
H 	H 	0.11610 0.97770 0.74630 0.25700
O 	O 	0.24470 0.15770 0.83420 -0.46700
O 	O 	0.79780 0.83320 0.70990 -0.49100
O 	O 	0.91110 0.65620 0.72170 -0.42700
O 	O 	0.74740 0.66260 0.58210 -0.39100
H 	H 	0.70600 0.73240 0.55860 0.27900
O 	O 	0.77700 0.54820 0.71350 -0.49900
O 	O 	0.05130 0.61000 0.58710 -0.62200
O 	O 	0.94390 0.76030 0.59940 -0.38700
H 	H 	0.98150 0.76370 0.65560 0.31300
O 	O 	0.95150 0.47410 0.61620 -0.44500
O 	O 	0.87520 0.60170 0.47000 -0.47100
P 	P 	0.14210 0.20520 0.76183 0.58900
P 	P 	0.80973 0.67440 0.68527 0.59300
P 	P 	0.95745 0.60320 0.56851 0.72100
In	In	0.67404 0.97049 0.65943 2.00900
O 	O 	0.60930 0.80670 0.80180 -0.47500
O 	O 	0.62330 0.77610 0.68090 -0.51800
O 	O 	0.58040 0.55520 0.72830 -0.39400
H 	H 	0.61610 0.47770 0.74630 0.26600
O 	O 	0.74470 0.65770 0.83420 -0.46200
O 	O 	0.29780 0.33320 0.70990 -0.50500
O 	O 	0.41110 0.15620 0.72170 -0.49100
O 	O 	0.24740 0.16260 0.58210 -0.39900
H 	H 	0.20600 0.23240 0.55860 0.27500
O 	O 	0.27700 0.04820 0.71350 -0.50900
O 	O 	0.55130 0.11000 0.58710 -0.50500
O 	O 	0.44390 0.26030 0.59940 -0.38700
H 	H 	0.48150 0.26370 0.65560 0.25400
O 	O 	0.45150 0.97410 0.61620 -0.49600
O 	O 	0.37520 0.10170 0.47000 -0.47500
P 	P 	0.64210 0.70520 0.76183 0.59100
P 	P 	0.30973 0.17440 0.68527 0.59500
P 	P 	0.45745 0.10320 0.56851 0.60500
In	In	0.82596 0.47049 0.84057 2.01200
O 	O 	0.89070 0.30670 0.69820 -0.42600
O 	O 	0.87670 0.27610 0.81910 -0.48300
O 	O 	0.91960 0.05520 0.77170 -0.33000
H 	H 	0.88390 0.97770 0.75370 0.26000
O 	O 	0.75530 0.15770 0.66580 -0.46200
O 	O 	0.20220 0.83320 0.79010 -0.51900
O 	O 	0.08890 0.65620 0.77830 -0.54900
O 	O 	0.25260 0.66260 0.91790 -0.40000
H 	H 	0.29400 0.73240 0.94140 0.27500
O 	O 	0.22300 0.54820 0.78650 -0.51300
O 	O 	0.94870 0.61000 0.91290 -0.39300
O 	O 	0.05610 0.76030 0.90060 -0.39300
H 	H 	0.01850 0.76370 0.84440 0.19700
O 	O 	0.04850 0.47410 0.88380 -0.53000
O 	O 	0.12480 0.60170 0.03000 -0.46000
P 	P 	0.85790 0.20520 0.73817 0.58900
P 	P 	0.19027 0.67440 0.81473 0.59700
P 	P 	0.04255 0.60320 0.93149 0.46800
In	In	0.32596 0.97049 0.84057 2.00700
O 	O 	0.39070 0.80670 0.69820 -0.47700
O 	O 	0.37670 0.77610 0.81910 -0.52200
O 	O 	0.41960 0.55520 0.77170 -0.39500
H 	H 	0.38390 0.47770 0.75370 0.26600
O 	O 	0.25530 0.65770 0.66580 -0.47200
O 	O 	0.70220 0.33320 0.79010 -0.50400
O 	O 	0.58890 0.15620 0.77830 -0.49100
O 	O 	0.75260 0.16260 0.91790 -0.38800
H 	H 	0.79400 0.23240 0.94140 0.28000
O 	O 	0.72300 0.04820 0.78650 -0.49800
O 	O 	0.44870 0.11000 0.91290 -0.50700
O 	O 	0.55610 0.26030 0.90060 -0.39200
H 	H 	0.51850 0.26370 0.84440 0.25500
O 	O 	0.54850 0.97410 0.88380 -0.50100
O 	O 	0.62480 0.10170 0.03000 -0.46700
P 	P 	0.35790 0.70520 0.73817 0.59100
P 	P 	0.69027 0.17440 0.81473 0.59600
P 	P 	0.54255 0.10320 0.93149 0.60100
In	In	0.82596 0.52951 0.34057 2.01200
O 	O 	0.89070 0.69330 0.19820 -0.42400
O 	O 	0.87670 0.72390 0.31910 -0.48200
O 	O 	0.91960 0.94480 0.27170 -0.32500
H 	H 	0.88390 0.02230 0.25370 0.25700
O 	O 	0.75530 0.84230 0.16580 -0.45700
O 	O 	0.20220 0.16680 0.29010 -0.51700
O 	O 	0.08890 0.34380 0.27830 -0.54600
O 	O 	0.25260 0.33740 0.41790 -0.39400
H 	H 	0.29400 0.26760 0.44140 0.27900
O 	O 	0.22300 0.45180 0.28650 -0.51100
O 	O 	0.94870 0.39000 0.41290 -0.39000
O 	O 	0.05610 0.23970 0.40060 -0.38500
H 	H 	0.01850 0.23630 0.34440 0.19700
O 	O 	0.04850 0.52590 0.38380 -0.52900
O 	O 	0.12480 0.39830 0.53000 -0.47700
P 	P 	0.85790 0.79480 0.23817 0.58900
P 	P 	0.19027 0.32560 0.31473 0.59800
P 	P 	0.04255 0.39680 0.43149 0.48600
In	In	0.32596 0.02951 0.34057 2.00900
O 	O 	0.39070 0.19330 0.19820 -0.47500
O 	O 	0.37670 0.22390 0.31910 -0.51900
O 	O 	0.41960 0.44480 0.27170 -0.39200
H 	H 	0.38390 0.52230 0.25370 0.26600
O 	O 	0.25530 0.34230 0.16580 -0.46900
O 	O 	0.70220 0.66680 0.29010 -0.50300
O 	O 	0.58890 0.84380 0.27830 -0.49100
O 	O 	0.75260 0.83740 0.41790 -0.38600
H 	H 	0.79400 0.76760 0.44140 0.28300
O 	O 	0.72300 0.95180 0.28650 -0.49600
O 	O 	0.44870 0.89000 0.41290 -0.50500
O 	O 	0.55610 0.73970 0.40060 -0.38700
H 	H 	0.51850 0.73630 0.34440 0.25400
O 	O 	0.54850 0.02590 0.38380 -0.49300
O 	O 	0.62480 0.89830 0.53000 -0.47300
P 	P 	0.35790 0.29480 0.23817 0.59100
P 	P 	0.69027 0.82560 0.31473 0.59600
P 	P 	0.54255 0.89680 0.43149 0.60500
In	In	0.17404 0.52951 0.15943 2.00700
O 	O 	0.10930 0.69330 0.30180 -0.50700
O 	O 	0.12330 0.72390 0.18090 -0.54800
O 	O 	0.08040 0.94480 0.22830 -0.44200
H 	H 	0.11610 0.02230 0.24630 0.26300
O 	O 	0.24470 0.84230 0.33420 -0.46600
O 	O 	0.79780 0.16680 0.20990 -0.49100
O 	O 	0.91110 0.34380 0.22170 -0.42800
O 	O 	0.74740 0.33740 0.08210 -0.38800
H 	H 	0.70600 0.26760 0.05860 0.28100
O 	O 	0.77700 0.45180 0.21350 -0.49800
O 	O 	0.05130 0.39000 0.08710 -0.61400
O 	O 	0.94390 0.23970 0.09940 -0.38600
H 	H 	0.98150 0.23630 0.15560 0.31000
O 	O 	0.95150 0.52590 0.11620 -0.44400
O 	O 	0.87520 0.39830 0.97000 -0.48300
P 	P 	0.14210 0.79480 0.26183 0.59000
P 	P 	0.80973 0.32560 0.18527 0.59300
P 	P 	0.95745 0.39680 0.06851 0.72500
In	In	0.67404 0.02951 0.15943 2.00800
O 	O 	0.60930 0.19330 0.30180 -0.47200
O 	O 	0.62330 0.22390 0.18090 -0.51700
O 	O 	0.58040 0.44480 0.22830 -0.39100
H 	H 	0.61610 0.52230 0.24630 0.26600
O 	O 	0.74470 0.34230 0.33420 -0.45800
O 	O 	0.29780 0.66680 0.20990 -0.50400
O 	O 	0.41110 0.84380 0.22170 -0.49000
O 	O 	0.24740 0.83740 0.08210 -0.39300
H 	H 	0.20600 0.76760 0.05860 0.27900
O 	O 	0.27700 0.95180 0.21350 -0.50900
O 	O 	0.55130 0.89000 0.08710 -0.50100
O 	O 	0.44390 0.73970 0.09940 -0.38200
H 	H 	0.48150 0.73630 0.15560 0.25300
O 	O 	0.45150 0.02590 0.11620 -0.49900
O 	O 	0.37520 0.89830 0.97000 -0.49700
P 	P 	0.64210 0.29480 0.26183 0.59100
P 	P 	0.30973 0.82560 0.18527 0.59500
P 	P 	0.45745 0.89680 0.06851 0.62700
In	In	0.00000 0.46468 0.75000 1.97300
In	In	0.50000 0.96468 0.75000 2.01100
In	In	0.00000 0.53532 0.25000 1.97400
In	In	0.50000 0.03532 0.25000 2.01100
