data_crystal

_cell_length_a 7.23890
_cell_length_b 22.16400
_cell_length_c 10.63300
_cell_angle_alpha 90.00000
_cell_angle_beta  90.80000
_cell_angle_gamma 90.00000

_symmetry_space_group_name_	'P 1'
_symmetry_space_group_name_H-M	'P 1'

loop_
_symmetry_equiv_pos_as_xyz
  x,y,z

loop_
_atom_site_label
_atom_site_type_symbol
_atom_site_fract_x
_atom_site_fract_y
_atom_site_fract_z
_atom_site_charge
Ho	Ho	0.26317 0.25037 0.84882 1.48800
Sb	Sb	0.45267 0.99257 0.13905 0.54500
Sb	Sb	0.57508 0.48219 0.59598 0.55200
N 	N 	0.19010 0.05100 0.12990 -0.05400
N 	N 	0.21990 0.92270 0.16660 -0.05500
N 	N 	0.80850 0.41190 0.63260 -0.04000
N 	N 	0.83930 0.54130 0.59450 -0.07700
O 	O 	0.37080 0.01190 0.33580 -0.30300
O 	O 	0.25660 0.08390 0.45890 -0.27000
O 	O 	0.51230 0.08880 0.03720 -0.30600
O 	O 	0.38200 0.15950 0.91650 -0.48700
O 	O 	0.57320 0.88740 0.18930 -0.31800
O 	O 	0.50270 0.80340 0.29660 -0.48100
O 	O 	0.36150 0.97290 0.95400 -0.29600
O 	O 	0.22000 0.90780 0.82530 -0.26600
O 	O 	0.45280 0.37760 0.65490 -0.32000
O 	O 	0.52210 0.30120 0.78450 -0.49200
O 	O 	0.68000 0.46260 0.41420 -0.30200
O 	O 	0.82480 0.39700 0.29190 -0.29000
O 	O 	0.64810 0.50130 0.79460 -0.30200
O 	O 	0.76850 0.57010 0.92410 -0.28800
O 	O 	0.51710 0.57930 0.49500 -0.30400
O 	O 	0.64560 0.65550 0.39270 -0.48500
C 	C 	0.19680 0.09160 0.24140 -0.26500
H 	H 	0.27150 0.12770 0.22150 0.10900
H 	H 	0.07010 0.10530 0.26070 0.13800
C 	C 	0.27880 0.06070 0.35480 0.37000
C 	C 	0.18560 0.08810 0.01230 -0.29900
H 	H 	0.09420 0.12100 0.02100 0.11500
H 	H 	0.14680 0.06260 0.94030 0.14400
C 	C 	0.37190 0.11450 0.98770 0.42500
C 	C 	0.02830 0.00900 0.12850 -0.01700
H 	H 	0.00500 0.99560 0.04090 0.07500
H 	H 	0.91790 0.03150 0.15600 0.03100
C 	C 	0.05010 0.95520 0.20860 -0.03500
H 	H 	0.06350 0.96720 0.29800 0.08200
H 	H 	0.94060 0.92870 0.19980 0.03200
C 	C 	0.26870 0.87790 0.26610 -0.28400
H 	H 	0.26130 0.89730 0.34980 0.13700
H 	H 	0.17940 0.84410 0.26340 0.12300
C 	C 	0.46340 0.85370 0.24700 0.40900
C 	C 	0.19090 0.89090 0.04400 -0.26800
H 	H 	0.25460 0.85140 0.04790 0.11300
H 	H 	0.05720 0.88300 0.03200 0.13700
C 	C 	0.25950 0.92520 0.93190 0.36400
C 	C 	0.75990 0.36890 0.73340 -0.28900
H 	H 	0.77900 0.38860 0.81610 0.12900
H 	H 	0.84350 0.33360 0.72970 0.10200
C 	C 	0.56240 0.34750 0.72260 0.42100
C 	C 	0.83520 0.37910 0.51310 -0.24900
H 	H 	0.76210 0.34140 0.51510 0.10200
H 	H 	0.96700 0.36780 0.50680 0.10100
C 	C 	0.77960 0.41480 0.39560 0.35300
C 	C 	0.97700 0.44660 0.67120 -0.21000
H 	H 	0.96630 0.45840 0.76060 0.10400
H 	H 	0.08670 0.42020 0.66390 0.12900
C 	C 	0.00490 0.50180 0.59370 0.04900
H 	H 	0.11280 0.52440 0.62690 0.04400
H 	H 	0.03150 0.48980 0.50600 0.06200
C 	C 	0.83720 0.58010 0.70890 -0.25100
H 	H 	0.76830 0.61760 0.68970 0.10200
H 	H 	0.96560 0.59140 0.73200 0.10900
C 	C 	0.74910 0.54880 0.81920 0.35900
C 	C 	0.84650 0.58040 0.48310 -0.26600
H 	H 	0.88610 0.55650 0.40950 0.11800
H 	H 	0.93810 0.61290 0.49750 0.08500
C 	C 	0.65480 0.60830 0.45570 0.41600
Ho	Ho	0.76317 0.74963 0.34882 1.44700
Sb	Sb	0.95267 0.00743 0.63905 0.50300
Sb	Sb	0.07508 0.51780 0.09598 0.57700
N 	N 	0.69010 0.94900 0.62990 -0.05300
N 	N 	0.71990 0.07730 0.66660 -0.05900
N 	N 	0.30850 0.58810 0.13260 -0.04900
N 	N 	0.33930 0.45870 0.09450 -0.05400
O 	O 	0.87080 0.98810 0.83580 -0.31400
O 	O 	0.75660 0.91610 0.95890 -0.28500
O 	O 	0.01230 0.91120 0.53720 -0.25500
O 	O 	0.88200 0.84050 0.41650 -0.48300
O 	O 	0.07320 0.11260 0.68930 -0.25500
O 	O 	0.00270 0.19660 0.79660 -0.42800
O 	O 	0.86150 0.02710 0.45400 -0.30700
O 	O 	0.72000 0.09220 0.32530 -0.28300
O 	O 	0.95280 0.62240 0.15490 -0.36400
O 	O 	0.02210 0.69880 0.28450 -0.47700
O 	O 	0.18000 0.53740 0.91420 -0.29200
O 	O 	0.32480 0.60300 0.79190 -0.27000
O 	O 	0.14810 0.49870 0.29460 -0.29300
O 	O 	0.26850 0.42990 0.42410 -0.27400
O 	O 	0.01710 0.42070 0.99500 -0.29200
O 	O 	0.14560 0.34450 0.89270 -0.47900
C 	C 	0.69680 0.90840 0.74140 -0.26200
H 	H 	0.77150 0.87230 0.72150 0.10100
H 	H 	0.57010 0.89470 0.76070 0.12500
C 	C 	0.77880 0.93930 0.85480 0.36400
C 	C 	0.68560 0.91190 0.51230 -0.27900
H 	H 	0.59420 0.87900 0.52100 0.10100
H 	H 	0.64680 0.93740 0.44030 0.13000
C 	C 	0.87190 0.88550 0.48770 0.37500
C 	C 	0.52830 0.99100 0.62850 -0.07600
H 	H 	0.50500 0.00440 0.54090 0.08300
H 	H 	0.41790 0.96850 0.65600 0.07600
C 	C 	0.55010 0.04480 0.70860 -0.06900
H 	H 	0.56350 0.03280 0.79800 0.08100
H 	H 	0.44060 0.07130 0.69980 0.06800
C 	C 	0.76870 0.12210 0.76610 -0.23800
H 	H 	0.76130 0.10270 0.84980 0.11400
H 	H 	0.67940 0.15590 0.76340 0.09800
C 	C 	0.96340 0.14630 0.74700 0.30200
C 	C 	0.69090 0.10910 0.54400 -0.25900
H 	H 	0.75460 0.14860 0.54790 0.10300
H 	H 	0.55720 0.11700 0.53200 0.12200
C 	C 	0.75950 0.07480 0.43190 0.35300
C 	C 	0.25990 0.63110 0.23340 -0.30900
H 	H 	0.27900 0.61140 0.31610 0.14600
H 	H 	0.34350 0.66640 0.22970 0.12000
C 	C 	0.06240 0.65250 0.22260 0.46800
C 	C 	0.33520 0.62090 0.01310 -0.25100
H 	H 	0.26210 0.65860 0.01510 0.11000
H 	H 	0.46700 0.63220 0.00680 0.11300
C 	C 	0.27960 0.58520 0.89560 0.36100
C 	C 	0.47700 0.55340 0.17120 -0.07300
H 	H 	0.46630 0.54160 0.26060 0.07800
H 	H 	0.58670 0.57980 0.16390 0.06700
C 	C 	0.50490 0.49820 0.09370 -0.07200
H 	H 	0.61280 0.47560 0.12690 0.06600
H 	H 	0.53150 0.51020 0.00600 0.08200
C 	C 	0.33720 0.41990 0.20890 -0.26000
H 	H 	0.26830 0.38240 0.18970 0.10900
H 	H 	0.46560 0.40860 0.23200 0.12400
C 	C 	0.24910 0.45120 0.31920 0.36800
C 	C 	0.34650 0.41960 0.98310 -0.27400
H 	H 	0.38610 0.44350 0.90950 0.13100
H 	H 	0.43810 0.38710 0.99750 0.09700
C 	C 	0.15480 0.39170 0.95570 0.42000
