data_crystal

_cell_length_a 9.18440
_cell_length_b 21.61500
_cell_length_c 11.54010
_cell_angle_alpha 90.00000
_cell_angle_beta  112.70100
_cell_angle_gamma 90.00000

_symmetry_space_group_name_	'P 1'
_symmetry_space_group_name_H-M	'P 1'

loop_
_symmetry_equiv_pos_as_xyz
  x,y,z

loop_
_atom_site_label
_atom_site_type_symbol
_atom_site_fract_x
_atom_site_fract_y
_atom_site_fract_z
_atom_site_charge
U 	U 	0.25388 0.24934 0.25795 0.04500
U 	U 	0.55603 0.99537 0.37873 0.03300
O 	O 	0.63111 0.04846 0.24770 -0.03100
O 	O 	0.09209 0.33615 0.21027 -0.11500
O 	O 	0.41493 0.16210 0.30493 -0.11000
O 	O 	0.04956 0.18555 0.19700 -0.05800
O 	O 	0.45793 0.31308 0.31906 -0.07600
O 	O 	0.69322 0.21750 0.91921 -0.17100
O 	O 	0.60269 0.09110 0.29810 -0.12300
O 	O 	0.90126 0.40543 0.20828 -0.15600
O 	O 	0.67286 0.21097 0.55965 -0.14500
O 	O 	0.80542 0.99381 0.51328 -0.06700
O 	O 	0.81214 0.28413 0.59434 -0.17800
O 	O 	0.30671 -0.00313 0.24382 -0.05100
O 	O 	0.83238 0.29075 0.95758 -0.13800
O 	O 	0.49672 0.93305 0.50624 -0.02700
C 	C 	0.74024 0.24632 0.51096 0.27700
C 	C 	0.76503 0.25441 0.00441 0.27100
C 	C 	0.95447 0.34806 0.21511 0.23800
C 	C 	0.55218 0.15013 0.29936 0.22400
C 	C 	0.74029 0.24578 0.37869 -0.02900
C 	C 	0.76561 0.25341 0.13671 -0.02300
C 	C 	0.65447 0.20242 0.28181 0.00800
C 	C 	0.85230 0.29623 0.23377 -0.00400
C 	C 	0.83265 0.29224 0.34996 0.00000
H 	H 	0.89152 0.32671 0.42019 0.06100
C 	C 	0.67385 0.20668 0.16533 0.00000
H 	H 	0.61500 0.17238 0.09464 0.06800
N 	N 	0.58230 0.43676 0.24836 -0.28000
U 	U 	0.25455 0.74922 0.24363 0.04400
U 	U 	0.95213 0.49544 0.12270 0.03000
O 	O 	0.87677 0.54852 0.25359 -0.03200
O 	O 	0.41617 0.83604 0.29133 -0.11600
O 	O 	0.09356 0.66200 0.19681 -0.10900
O 	O 	0.45904 0.68552 0.30454 -0.05900
O 	O 	0.05043 0.81291 0.18258 -0.07600
O 	O 	0.81553 0.71748 0.58256 -0.17500
O 	O 	0.90554 0.59111 0.20347 -0.12200
O 	O 	0.60676 0.90534 0.29315 -0.15600
O 	O 	0.83615 0.71099 0.94225 -0.14300
O 	O 	0.70288 0.49409 -0.01245 -0.06400
O 	O 	0.69616 0.78395 0.90729 -0.17700
O 	O 	0.20121 0.49678 0.25808 -0.05400
O 	O 	0.67567 0.79052 0.54406 -0.14200
O 	O 	0.01171 0.43311 -0.00464 -0.02500
C 	C 	0.76836 0.74625 0.99078 0.28000
C 	C 	0.74340 0.75431 0.49732 0.27800
C 	C 	0.55375 0.84796 0.28648 0.24100
C 	C 	0.95627 0.65011 0.20235 0.22200
C 	C 	0.76826 0.74573 0.12302 -0.02900
C 	C 	0.74290 0.75337 0.36501 -0.02400
C 	C 	0.85418 0.70243 0.21998 0.00900
C 	C 	0.65600 0.79614 0.26786 -0.00400
C 	C 	0.67572 0.79215 0.15168 0.00100
H 	H 	0.61684 0.82662 0.08143 0.06100
C 	C 	0.83486 0.70670 0.33646 0.00100
H 	H 	0.89377 0.67241 0.40717 0.06800
N 	N 	-0.07946 0.93666 0.25033 -0.28000
U 	U 	0.75461 0.75181 0.74373 0.04400
U 	U 	0.45242 0.00576 0.62279 0.03200
O 	O 	0.37690 0.95269 0.75361 -0.03100
O 	O 	0.91638 0.66502 0.79134 -0.11300
O 	O 	0.59360 0.83907 0.69675 -0.11000
O 	O 	0.95898 0.81556 0.80439 -0.05700
O 	O 	0.55052 0.68806 0.68303 -0.07500
O 	O 	0.31542 0.78364 0.08246 -0.17300
O 	O 	0.40571 0.91006 0.70343 -0.12200
O 	O 	0.10707 0.59576 0.79317 -0.15600
O 	O 	0.33586 0.79016 0.44205 -0.14400
O 	O 	0.20315 0.00726 0.48787 -0.06700
O 	O 	0.19628 0.71710 0.40730 -0.17800
O 	O 	0.70163 1.00427 0.75798 -0.05200
O 	O 	0.17594 0.71049 0.04400 -0.14000
O 	O 	0.51197 0.06808 0.49542 -0.02700
C 	C 	0.26838 0.75485 0.49073 0.27800
C 	C 	0.24348 0.74678 0.99724 0.27500
C 	C 	0.05397 0.65312 0.78646 0.23700
C 	C 	0.45631 0.85104 0.70229 0.22400
C 	C 	0.26829 0.75539 0.62298 -0.02800
C 	C 	0.24292 0.74775 0.86493 -0.02300
C 	C 	0.35410 0.79874 0.71987 0.00900
C 	C 	0.15618 0.70494 0.76785 -0.00300
C 	C 	0.17589 0.70893 0.65168 0.00100
H 	H 	0.11695 0.67447 0.58141 0.06000
C 	C 	0.33478 0.79445 0.83635 0.00100
H 	H 	0.39374 0.82873 0.90706 0.06800
N 	N 	0.40430 0.55533 0.71854 -0.28000
U 	U 	0.75395 0.25197 0.75803 0.04400
U 	U 	0.05613 0.50580 0.87879 0.03100
O 	O 	0.13094 0.45276 0.74759 -0.03300
O 	O 	0.59235 0.16513 0.71031 -0.11600
O 	O 	0.91492 0.33918 0.80484 -0.10900
O 	O 	0.54937 0.31564 0.69702 -0.05900
O 	O 	0.95822 0.18838 0.81925 -0.07600
O 	O 	0.19256 0.28357 0.41900 -0.17500
O 	O 	0.10269 0.41012 0.79797 -0.12200
O 	O 	0.40169 0.09583 0.70836 -0.15700
O 	O 	0.17241 0.29021 0.05947 -0.14400
O 	O 	0.30557 0.50724 1.01335 -0.06400
O 	O 	0.31274 0.21735 0.09450 -0.17700
O 	O 	0.80672 0.50450 0.74392 -0.05200
O 	O 	0.33277 0.21062 0.45762 -0.14200
O 	O 	0.99702 0.56813 1.00639 -0.02300
C 	C 	0.24039 0.25502 0.01095 0.27800
C 	C 	0.26485 0.24679 0.50429 0.27800
C 	C 	0.45477 0.15321 0.71514 0.24000
C 	C 	0.05217 0.35110 0.79925 0.22200
C 	C 	0.24051 0.25554 0.87871 -0.02900
C 	C 	0.26547 0.24776 0.63662 -0.02500
C 	C 	0.15438 0.29879 0.78169 0.00800
C 	C 	0.35254 0.20505 0.73379 -0.00400
C 	C 	0.33311 0.20913 0.85008 -0.00000
H 	H 	0.39216 0.17472 0.92039 0.06200
C 	C 	0.17353 0.29444 0.66514 0.00100
H 	H 	0.11450 0.32868 0.59440 0.06800
N 	N 	1.07748 0.06957 0.73454 -0.28000
H 	H 	0.57449 0.40259 0.18223 0.13500
H 	H 	0.47430 0.44043 0.25819 0.14600
H 	H 	0.60989 0.47906 0.21820 0.14300
H 	H 	0.49278 0.56083 0.68359 0.14200
H 	H 	0.29444 0.56380 0.64692 0.13000
H 	H 	0.42275 0.58647 0.79207 0.13700
H 	H 	1.06624 0.10300 0.66624 0.13400
H 	H 	0.97128 0.06590 0.74727 0.14700
H 	H 	1.16734 0.08238 0.81925 0.13100
H 	H 	0.02231 0.93733 0.23061 0.14500
H 	H 	-0.09446 0.97983 0.28477 0.14300
H 	H 	-0.06834 0.90275 0.31770 0.13400
H 	H 	0.40742 0.51016 0.75153 0.14200
H 	H 	0.67036 0.42497 0.33477 0.13000
H 	H 	1.10494 0.02694 0.70553 0.14400
H 	H 	-0.17709 0.92681 0.16827 0.13100
