data_crystal

_cell_length_a 9.97360
_cell_length_b 12.70510
_cell_length_c 12.84890
_cell_angle_alpha 90.00000
_cell_angle_beta  90.00000
_cell_angle_gamma 90.00000

_symmetry_space_group_name_	'P 1'
_symmetry_space_group_name_H-M	'P 1'

loop_
_symmetry_equiv_pos_as_xyz
  x,y,z

loop_
_atom_site_label
_atom_site_type_symbol
_atom_site_fract_x
_atom_site_fract_y
_atom_site_fract_z
_atom_site_charge
U 	U 	0.59489 0.18686 0.20140 0.02300
U 	U 	0.09489 0.31314 0.29860 0.02400
U 	U 	0.90511 0.18686 0.79860 0.02400
U 	U 	0.40511 0.31314 0.70140 0.02400
U 	U 	0.40511 0.81314 0.79860 0.02300
U 	U 	0.90511 0.68686 0.70140 0.02400
U 	U 	0.09489 0.81314 0.20140 0.02300
U 	U 	0.59489 0.68686 0.29860 0.02300
H 	H 	0.84950 0.93810 0.37770 0.09000
H 	H 	0.34950 0.56190 0.12230 0.09000
H 	H 	0.65050 0.93810 0.62230 0.09000
H 	H 	0.15050 0.56190 0.87770 0.09000
H 	H 	0.15050 0.06190 0.62230 0.09000
H 	H 	0.65050 0.43810 0.87770 0.09000
H 	H 	0.34950 0.06190 0.37770 0.09000
H 	H 	0.84950 0.43810 0.12230 0.09000
C 	C 	0.84520 0.14180 0.36960 0.27600
C 	C 	0.03060 0.22250 0.54580 0.27000
C 	C 	0.01630 0.10860 0.51440 -0.00300
C 	C 	0.92550 0.07130 0.43970 -0.01100
C 	C 	0.91020 0.96310 0.42680 -0.02200
C 	C 	0.34520 0.35820 0.13040 0.27600
C 	C 	0.53060 0.27750 0.95420 0.27200
C 	C 	0.51630 0.39140 0.98560 -0.00400
C 	C 	0.42550 0.42870 0.06030 -0.01200
C 	C 	0.41020 0.53690 0.07320 -0.02100
C 	C 	0.65480 0.14180 0.63040 0.27600
C 	C 	0.46940 0.22250 0.45420 0.27100
C 	C 	0.48370 0.10860 0.48560 -0.00300
C 	C 	0.57450 0.07130 0.56030 -0.01200
C 	C 	0.58980 0.96310 0.57320 -0.02100
C 	C 	0.15480 0.35820 0.86960 0.27600
C 	C 	0.96940 0.27750 0.04580 0.26500
C 	C 	0.98370 0.39140 0.01440 -0.00300
C 	C 	0.07450 0.42870 0.93970 -0.01300
C 	C 	0.08980 0.53690 0.92680 -0.02100
C 	C 	0.15480 0.85820 0.63040 0.27600
C 	C 	0.96940 0.77750 0.45420 0.27000
C 	C 	0.98370 0.89140 0.48560 -0.00300
C 	C 	0.07450 0.92870 0.56030 -0.01100
C 	C 	0.08980 0.03690 0.57320 -0.02200
C 	C 	0.65480 0.64180 0.86960 0.27600
C 	C 	0.46940 0.72250 0.04580 0.27200
C 	C 	0.48370 0.60860 0.01440 -0.00400
C 	C 	0.57450 0.57130 0.93970 -0.01200
C 	C 	0.58980 0.46310 0.92680 -0.02100
C 	C 	0.34520 0.85820 0.36960 0.27600
C 	C 	0.53060 0.77750 0.54580 0.27100
C 	C 	0.51630 0.89140 0.51440 -0.00300
C 	C 	0.42550 0.92870 0.43970 -0.01200
C 	C 	0.41020 0.03690 0.42680 -0.02100
C 	C 	0.84520 0.64180 0.13040 0.27600
C 	C 	0.03060 0.72250 0.95420 0.26500
C 	C 	0.01630 0.60860 0.98560 -0.00300
C 	C 	0.92550 0.57130 0.06030 -0.01300
C 	C 	0.91020 0.46310 0.07320 -0.02100
O 	O 	0.73310 0.11023 0.33834 -0.17500
O 	O 	0.07850 0.29115 0.48574 -0.14600
O 	O 	0.99960 0.24492 0.63774 -0.15000
O 	O 	0.89370 0.23010 0.34440 -0.15200
O 	O 	0.23310 0.38977 0.16166 -0.17400
O 	O 	0.57850 0.20885 0.01426 -0.14700
O 	O 	0.49960 0.25508 0.86226 -0.15100
O 	O 	0.39370 0.26990 0.15560 -0.15200
O 	O 	0.76690 0.11023 0.66166 -0.17500
O 	O 	0.42150 0.29115 0.51426 -0.14700
O 	O 	0.50040 0.24492 0.36226 -0.15100
O 	O 	0.60630 0.23010 0.65560 -0.15200
O 	O 	0.26690 0.38977 0.83834 -0.17500
O 	O 	0.92150 0.20885 0.98574 -0.14300
O 	O 	0.00040 0.25508 0.13774 -0.14700
O 	O 	0.10630 0.26990 0.84440 -0.15300
O 	O 	0.26690 0.88977 0.66166 -0.17500
O 	O 	0.92150 0.70885 0.51426 -0.14600
O 	O 	0.00040 0.75508 0.36226 -0.15000
O 	O 	0.10630 0.76990 0.65560 -0.15200
O 	O 	0.76690 0.61023 0.83834 -0.17400
O 	O 	0.42150 0.79115 0.98574 -0.14700
O 	O 	0.50040 0.74492 0.13774 -0.15100
O 	O 	0.60630 0.73010 0.84440 -0.15200
O 	O 	0.23310 0.88977 0.33834 -0.17500
O 	O 	0.57850 0.70885 0.48574 -0.14700
O 	O 	0.49960 0.75508 0.63774 -0.15100
O 	O 	0.39370 0.76990 0.34440 -0.15200
O 	O 	0.73310 0.61023 0.16166 -0.17500
O 	O 	0.07850 0.79115 0.01426 -0.14300
O 	O 	0.99960 0.74492 0.86226 -0.14700
O 	O 	0.89370 0.73010 0.15560 -0.15300
