data_crystal

_cell_length_a 13.19800
_cell_length_b 14.85200
_cell_length_c 23.40700
_cell_angle_alpha 90.00000
_cell_angle_beta  90.00000
_cell_angle_gamma 90.00000

_symmetry_space_group_name_	'P 1'
_symmetry_space_group_name_H-M	'P 1'

loop_
_symmetry_equiv_pos_as_xyz
  x,y,z

loop_
_atom_site_label
_atom_site_type_symbol
_atom_site_fract_x
_atom_site_fract_y
_atom_site_fract_z
_atom_site_charge
U 	U 	0.32341 0.20023 0.19747 0.03400
U 	U 	0.00131 0.18899 0.18708 0.03300
U 	U 	0.18650 0.31653 0.31263 0.03500
O 	O 	0.15594 0.24989 0.22553 -0.02200
O 	O 	0.03049 0.88277 0.13048 -0.11600
O 	O 	0.62927 0.12567 0.12532 -0.11400
O 	O 	0.13125 0.09796 0.15920 -0.13000
O 	O 	0.18395 0.85457 0.16167 -0.11600
O 	O 	0.50524 0.19493 0.22213 -0.01100
O 	O 	0.34904 0.33775 0.16365 -0.04400
O 	O 	0.29722 0.06366 0.23014 -0.03600
O 	O 	0.03112 0.28604 0.11705 -0.08500
O 	O 	0.24853 0.42506 0.25855 -0.02900
O 	O 	0.97072 0.09425 0.25732 -0.01600
O 	O 	0.26811 0.15103 0.11461 -0.16000
O 	O 	0.47938 0.15435 0.16206 -0.11200
O 	O 	0.33697 0.23647 0.29096 -0.03800
O 	O 	0.12838 0.20479 0.36624 -0.06100
C 	C 	0.18691 0.10334 0.11363 0.25600
C 	C 	0.53164 0.11477 0.12007 0.21700
C 	C 	0.49407 0.05982 0.06562 0.00700
C 	C 	0.17053 0.04368 0.06204 -0.02000
C 	C 	0.15659 0.94684 0.06577 0.00500
C 	C 	0.12684 0.89369 0.12195 0.21900
N 	N 	0.31444 0.04804 0.39018 -0.27700
U 	U 	0.65796 0.81706 0.19044 0.03600
U 	U 	0.98582 0.80757 0.20979 0.03500
U 	U 	0.80747 0.72484 0.30814 0.03400
O 	O 	0.81511 0.82451 0.23849 -0.02500
O 	O 	0.90967 0.10740 0.12257 -0.13800
O 	O 	0.39728 0.92324 0.14710 -0.14700
O 	O 	0.92842 0.88193 0.12717 -0.10400
O 	O 	0.73360 0.12985 0.11908 -0.11100
O 	O 	0.50469 0.79294 0.24422 -0.02400
O 	O 	0.67672 0.67534 0.16276 -0.04200
O 	O 	0.63543 0.95802 0.21665 -0.04500
O 	O 	0.95162 0.68126 0.16313 -0.07000
O 	O 	0.80250 0.61374 0.24580 -0.03300
O 	O 	0.02304 0.93133 0.25702 -0.02200
O 	O 	0.75145 0.86618 0.11579 -0.14200
O 	O 	0.52773 0.83385 0.12858 -0.14000
O 	O 	0.63474 0.76339 0.28301 -0.03300
O 	O 	0.81178 0.83740 0.37031 -0.06700
C 	C 	0.84064 0.89311 0.09911 0.22000
C 	C 	0.47827 0.90763 0.11846 0.25500
C 	C 	0.49556 0.96247 0.06447 -0.02000
C 	C 	0.83740 0.94602 0.04209 -0.00700
C 	C 	0.82052 0.04152 0.04222 -0.00700
C 	C 	0.82060 0.09707 0.09888 0.22100
N 	N 	0.59686 0.95546 0.37464 -0.27900
U 	U 	0.16943 0.69196 0.30620 0.03500
U 	U 	0.48851 0.67672 0.30876 0.03700
U 	U 	0.33698 0.81681 0.20394 0.03700
O 	O 	0.32953 0.69948 0.26402 -0.02300
O 	O 	0.45561 0.36393 0.38069 -0.11000
O 	O 	0.86723 0.63807 0.38169 -0.11500
O 	O 	0.39235 0.57418 0.35708 -0.12700
O 	O 	0.27794 0.36718 0.38647 -0.14800
O 	O 	0.98912 0.73222 0.29389 -0.00700
O 	O 	0.19299 0.82223 0.35040 -0.04800
O 	O 	0.14066 0.56360 0.26210 -0.04100
O 	O 	0.44975 0.77653 0.37571 -0.07800
O 	O 	0.31199 0.91150 0.27529 -0.04300
O 	O 	0.52766 0.57792 0.24153 -0.02200
O 	O 	0.23545 0.62294 0.38625 -0.14600
O 	O 	0.01490 0.67315 0.34777 -0.11600
O 	O 	0.16116 0.76327 0.21839 -0.02300
O 	O 	0.36209 0.71771 0.13437 -0.05700
C 	C 	0.32272 0.58268 0.39630 0.24100
C 	C 	0.96464 0.63164 0.38889 0.22100
C 	C 	0.00495 0.57762 0.44307 0.00200
C 	C 	0.34077 0.53403 0.45493 -0.00900
C 	C 	0.36779 0.44073 0.45937 -0.01100
C 	C 	0.36812 0.38462 0.40535 0.22700
N 	N 	0.14812 0.52179 0.12065 -0.27800
U 	U 	0.86599 0.31821 0.29861 0.03600
U 	U 	0.50602 0.28371 0.30112 0.03300
U 	U 	0.68292 0.21425 0.19810 0.03300
O 	O 	0.68308 0.30359 0.27686 -0.01100
O 	O 	0.59523 0.60614 0.36991 -0.14100
O 	O 	0.07167 0.42153 0.34644 -0.12800
O 	O 	0.55697 0.36713 0.37622 -0.11300
O 	O 	0.76842 0.62478 0.37521 -0.11800
O 	O 	0.03339 0.29293 0.25885 -0.02300
O 	O 	0.86369 0.18143 0.33637 -0.03500
O 	O 	0.86900 0.45465 0.26202 -0.04400
O 	O 	0.54033 0.16309 0.35339 -0.08300
O 	O 	0.72314 0.09916 0.25351 -0.03200
O 	O 	0.47229 0.40416 0.24914 -0.01900
O 	O 	0.70831 0.34692 0.33869 -0.11300
O 	O 	0.92148 0.37607 0.38153 -0.15000
O 	O 	0.84953 0.26680 0.20737 -0.03700
O 	O 	0.64513 0.33184 0.14373 -0.06000
C 	C 	0.65388 0.38031 0.38189 0.21800
C 	C 	0.00521 0.42032 0.38778 0.24400
C 	C 	1.01703 0.48026 0.44216 -0.01200
C 	C 	0.68795 0.43098 0.43816 0.00300
C 	C 	0.69095 0.52768 0.44184 -0.01700
C 	C 	0.68372 0.58824 0.39086 0.23700
N 	N 	0.84002 0.47298 0.11020 -0.27800
U 	U 	0.64955 0.81319 0.80205 0.03500
U 	U 	1.00903 0.78910 0.79879 0.03300
U 	U 	0.83186 0.71591 0.69836 0.03300
O 	O 	0.83151 0.80759 0.77579 -0.01100
O 	O 	0.96077 0.10848 0.87404 -0.12800
O 	O 	0.44520 0.90959 0.85579 -0.12800
O 	O 	0.96020 0.87668 0.87170 -0.11400
O 	O 	0.81247 0.14260 0.84323 -0.12500
O 	O 	0.48240 0.78730 0.76235 -0.02200
O 	O 	0.66218 0.67464 0.83638 -0.04300
O 	O 	0.63625 0.95026 0.77029 -0.04000
O 	O 	0.97500 0.67081 0.85328 -0.08300
O 	O 	0.79987 0.60205 0.75620 -0.04100
O 	O 	0.04192 0.90789 0.74474 -0.02200
O 	O 	0.80837 0.84848 0.83739 -0.11400
O 	O 	0.59465 0.86048 0.88871 -0.14800
O 	O 	0.66438 0.76592 0.70955 -0.03600
O 	O 	0.86317 0.83273 0.64204 -0.05800
C 	C 	0.86344 0.88850 0.87775 0.21800
C 	C 	0.50919 0.90103 0.89805 0.24400
C 	C 	0.49694 0.95699 0.95496 -0.00200
C 	C 	0.83044 0.94354 0.93171 0.00700
C 	C 	0.82701 0.04133 0.93219 -0.00300
C 	C 	0.86498 0.09765 0.88070 0.23600
N 	N 	0.63626 0.96815 0.61923 -0.27900
U 	U 	0.33654 0.19982 0.79874 0.03800
U 	U 	-0.00037 0.20602 0.80426 0.03500
U 	U 	0.16599 0.30178 0.70014 0.03500
O 	O 	0.16646 0.19474 0.76784 -0.02400
O 	O 	0.06014 0.87337 0.87645 -0.11000
O 	O 	0.57458 0.10817 0.87236 -0.13900
O 	O 	0.08023 0.11631 0.87233 -0.10800
O 	O 	0.23677 0.86629 0.88724 -0.14700
O 	O 	0.50288 0.25144 0.78583 -0.02300
O 	O 	0.30439 0.32747 0.84428 -0.04700
O 	O 	0.37424 0.07389 0.75363 -0.04100
O 	O 	0.02822 0.31885 0.86416 -0.07800
O 	O 	0.19258 0.40757 0.76436 -0.03900
O 	O 	0.97236 0.09244 0.74494 -0.02100
O 	O 	0.26104 0.12405 0.87570 -0.11500
O 	O 	0.39870 0.13637 0.88059 -0.12400
O 	O 	0.34364 0.26887 0.71055 -0.01600
O 	O 	0.13740 0.19348 0.63693 -0.05900
C 	C 	0.17037 0.09773 0.89541 0.21400
C 	C 	0.48648 0.10427 0.89865 0.23500
C 	C 	0.48683 0.05315 0.95525 -0.00200
C 	C 	0.16705 0.04238 0.95293 0.00800
C 	C 	0.14668 0.94744 0.95625 -0.00600
C 	C 	0.14693 0.89114 0.90264 0.22700
N 	N 	0.34031 0.02689 0.60846 -0.27700
U 	U 	0.84614 0.31074 0.68516 0.03400
U 	U 	0.52121 0.31804 0.70083 0.03600
U 	U 	0.66410 0.19718 0.81079 0.03600
O 	O 	0.69118 0.30254 0.74057 -0.02500
O 	O 	0.60634 0.59949 0.62756 -0.13600
O 	O 	0.11072 0.40429 0.63345 -0.10900
O 	O 	0.57409 0.39438 0.62483 -0.15300
O 	O 	0.78177 0.62433 0.62305 -0.11000
O 	O 	0.00005 0.31006 0.73477 -0.03000
O 	O 	0.85974 0.16702 0.66097 -0.03500
O 	O 	0.83198 0.45381 0.70729 -0.04800
O 	O 	0.54416 0.19054 0.65325 -0.06800
O 	O 	0.66233 0.10243 0.73855 -0.03500
O 	O 	0.49334 0.44116 0.74935 -0.02300
O 	O 	0.71541 0.31467 0.62234 -0.14200
O 	O 	0.94554 0.35950 0.61067 -0.13900
O 	O 	0.82730 0.25810 0.77882 -0.02700
O 	O 	0.66741 0.29942 0.87979 -0.06900
C 	C 	0.66222 0.38134 0.60320 0.25400
C 	C 	0.02510 0.41213 0.60430 0.22300
C 	C 	1.02487 0.47619 0.55219 -0.01000
C 	C 	0.68851 0.43199 0.54850 -0.01900
C 	C 	0.69914 0.52820 0.54979 -0.00300
C 	C 	0.69596 0.58696 0.60493 0.22100
N 	N 	0.84055 0.46894 0.86191 -0.28100
U 	U 	0.19154 0.70247 0.69591 0.03600
U 	U 	0.51376 0.68578 0.68953 0.03500
U 	U 	0.32875 0.81343 0.81460 0.03600
O 	O 	0.35914 0.74938 0.72650 -0.02200
O 	O 	0.36498 0.34393 0.66129 -0.11700
O 	O 	0.88394 0.63040 0.62333 -0.11400
O 	O 	0.38310 0.59585 0.66071 -0.12800
O 	O 	0.21929 0.39326 0.63018 -0.12100
O 	O 	1.00986 0.69876 0.72075 -0.01400
O 	O 	0.16976 0.84034 0.66179 -0.04600
O 	O 	0.21403 0.56585 0.72946 -0.03700
O 	O 	0.48569 0.78078 0.61816 -0.08400
O 	O 	0.27714 0.92810 0.76231 -0.02900
O 	O 	0.54366 0.59621 0.76218 -0.02000
O 	O 	0.24964 0.65242 0.61416 -0.15900
O 	O 	0.03669 0.65828 0.65671 -0.11300
O 	O 	0.17650 0.73991 0.78895 -0.03600
O 	O 	0.37666 0.69600 0.86651 -0.05800
C 	C 	0.32895 0.60246 0.61444 0.25600
C 	C 	0.98123 0.62198 0.61465 0.21600
C 	C 	0.01427 0.57349 0.55621 0.00200
C 	C 	0.34496 0.54180 0.56334 -0.02100
C 	C 	0.35744 0.44547 0.56877 0.00600
C 	C 	0.31638 0.39278 0.62245 0.22400
N 	N 	0.17145 0.53865 0.88457 -0.27900
C 	C 	0.17871 0.08702 0.00669 -0.01700
C 	C 	0.14309 0.90278 0.01138 -0.02100
C 	C 	0.48935 0.10180 0.00962 -0.02100
H 	H 	0.19235 0.15894 0.00560 0.06900
H 	H 	0.12829 0.83105 0.01176 0.06000
H 	H 	0.49198 0.17462 0.00798 0.07100
C 	C 	0.83710 0.89985 -0.01271 -0.02100
C 	C 	0.81770 0.08617 -0.01282 -0.01700
C 	C 	0.50038 0.91477 0.01026 -0.01200
H 	H 	0.84736 0.82751 -0.01215 0.06500
H 	H 	0.81613 0.15908 -0.01272 0.06500
H 	H 	0.50384 0.84191 0.01126 0.07200
C 	C 	0.33334 0.58212 0.50752 -0.00300
C 	C 	0.37173 0.39823 0.51533 -0.01300
C 	C 	0.00265 0.61976 0.50054 -0.01600
H 	H 	0.31717 0.65354 0.50509 0.06900
H 	H 	0.37783 0.32556 0.51685 0.06000
H 	H 	0.98444 0.69077 0.50210 0.07200
C 	C 	0.68494 0.38601 0.49327 -0.00600
C 	C 	0.70192 0.57229 0.49595 -0.00800
C 	C 	1.02693 0.43470 0.49630 -0.00600
H 	H 	0.67183 0.31403 0.49338 0.06600
H 	H 	0.70658 0.64520 0.49616 0.06500
H 	H 	0.03264 0.36193 0.49498 0.07000
H 	H 	0.24098 0.02985 0.37826 0.14200
H 	H 	0.31179 0.10523 0.41610 0.12200
H 	H 	0.35703 0.06196 0.35364 0.14000
H 	H 	0.52471 0.95800 0.35639 0.13200
H 	H 	0.60160 1.00226 0.40783 0.11900
H 	H 	0.65107 0.97052 0.34358 0.15100
H 	H 	0.15596 0.48130 0.08444 0.11600
H 	H 	0.12396 0.58593 0.10845 0.12300
H 	H 	0.21781 0.52674 0.14156 0.14500
H 	H 	0.79939 0.47505 0.07194 0.11900
H 	H 	0.90570 0.51168 0.10622 0.11800
H 	H 	0.85967 0.40645 0.11944 0.13700
H 	H 	0.64924 0.91010 0.59514 0.12800
H 	H 	0.61309 1.02026 0.59227 0.11700
H 	H 	0.70299 0.98673 0.64011 0.14700
H 	H 	0.32461 0.07540 0.57739 0.11700
H 	H 	0.27910 0.02196 0.63657 0.14500
H 	H 	0.40516 0.04555 0.63110 0.12800
H 	H 	0.78526 0.44472 0.83393 0.15300
H 	H 	0.81728 0.53072 0.87869 0.13400
H 	H 	0.90865 0.47740 0.83982 0.14000
H 	H 	0.11913 0.52788 0.85180 0.13900
H 	H 	0.17015 0.60638 0.89656 0.13300
H 	H 	0.24394 0.52175 0.87024 0.14500
H 	H 	0.61016 0.89102 0.39080 0.13500
H 	H 	0.57974 0.95549 0.64941 0.13800
H 	H 	0.79528 0.49866 0.14319 0.14800
H 	H 	0.85093 0.42296 0.89515 0.12800
H 	H 	0.15258 0.49857 0.91965 0.11900
H 	H 	0.09477 0.49316 0.14815 0.13500
H 	H 	0.35244 -0.03533 0.58882 0.11900
H 	H 	0.34799 -0.00491 0.41265 0.11300
