data_crystal

_cell_length_a 20.84500
_cell_length_b 13.07100
_cell_length_c 12.49640
_cell_angle_alpha 90.00000
_cell_angle_beta  90.00000
_cell_angle_gamma 90.00000

_symmetry_space_group_name_	'P 1'
_symmetry_space_group_name_H-M	'P 1'

loop_
_symmetry_equiv_pos_as_xyz
  x,y,z

loop_
_atom_site_label
_atom_site_type_symbol
_atom_site_fract_x
_atom_site_fract_y
_atom_site_fract_z
_atom_site_charge
Zn	Zn	0.02101 0.98747 0.06326 1.19700
O 	O 	0.98170 0.82770 0.01580 -0.38500
O 	O 	0.98630 0.88820 0.17960 -0.43500
O 	O 	0.90710 0.81640 0.32100 -0.43700
H 	H 	0.92910 0.86000 0.29140 0.28600
O 	O 	0.52440 0.57530 0.46110 -0.44600
O 	O 	0.60780 0.52970 0.56010 -0.35000
O 	O 	0.72080 0.57230 0.49750 -0.44400
H 	H 	0.69240 0.54620 0.53380 0.28400
N 	N 	0.10350 0.94020 0.99070 -0.19900
N 	N 	0.43800 0.59890 0.65780 -0.27100
C 	C 	0.96760 0.82010 0.11340 0.32400
C 	C 	0.84390 0.67400 0.27630 -0.04800
C 	C 	0.89260 0.74030 0.24970 0.20900
C 	C 	0.92440 0.73640 0.14860 -0.15200
C 	C 	0.91100 0.65700 0.08290 -0.03100
H 	H 	0.93280 0.65230 0.01820 0.04100
C 	C 	0.86610 0.58230 0.10750 0.04300
C 	C 	0.83050 0.59070 0.20530 0.00500
C 	C 	0.78280 0.51650 0.22720 -0.03800
H 	H 	0.75970 0.52000 0.29070 0.05800
C 	C 	0.77030 0.43860 0.15500 -0.08900
H 	H 	0.73870 0.39060 0.17030 0.05800
C 	C 	0.80480 0.43150 0.05930 0.05700
H 	H 	0.79530 0.37980 0.01080 -0.00300
C 	C 	0.85170 0.49940 0.03700 -0.20200
H 	H 	0.87530 0.49200 0.97420 0.13100
C 	C 	0.80730 0.68920 0.37920 -0.10500
H 	H 	0.82430 0.74950 0.41450 0.08600
H 	H 	0.81600 0.63110 0.42540 0.08500
C 	C 	0.58440 0.57980 0.48500 0.34700
C 	C 	0.73510 0.70120 0.36980 -0.07000
C 	C 	0.69450 0.64240 0.42960 0.22300
C 	C 	0.62630 0.64660 0.41880 -0.17100
C 	C 	0.60030 0.71570 0.34800 0.00900
H 	H 	0.55610 0.71850 0.33860 0.05200
C 	C 	0.63970 0.78120 0.29060 -0.01900
C 	C 	0.70750 0.77770 0.30250 0.04600
C 	C 	0.74430 0.85040 0.24750 -0.09500
H 	H 	0.78870 0.84990 0.25510 0.07900
C 	C 	0.71640 0.92170 0.18300 -0.01400
H 	H 	0.74210 0.97100 0.15050 0.03700
C 	C 	0.64920 0.92310 0.16420 -0.05300
H 	H 	0.63100 0.96950 0.11660 0.04100
C 	C 	0.61180 0.85370 0.21840 -0.04800
H 	H 	0.56760 0.85380 0.20790 0.05000
C 	C 	0.10970 0.93970 0.88400 0.07400
H 	H 	0.07910 0.97360 0.84300 0.00000
C 	C 	0.15960 0.89110 0.83250 -0.10900
H 	H 	0.16180 0.89220 0.75820 0.07800
C 	C 	0.20560 0.84180 0.88920 0.02300
C 	C 	0.19850 0.83980 0.99720 0.08000
H 	H 	0.22780 0.80370 0.03880 -0.02200
C 	C 	0.14730 0.89170 0.04690 -0.10400
H 	H 	0.14450 0.89170 0.12120 0.04300
C 	C 	0.25080 0.77680 0.82500 -0.04800
H 	H 	0.24810 0.70680 0.85000 0.03500
H 	H 	0.23700 0.77750 0.75060 0.03000
C 	C 	0.31940 0.81110 0.83000 -0.08000
H 	H 	0.33350 0.81260 0.90400 0.04600
H 	H 	0.32330 0.87960 0.80100 0.05500
C 	C 	0.42400 0.58400 0.75980 0.11400
H 	H 	0.43960 0.52600 0.79430 -0.01000
C 	C 	0.38590 0.65390 0.81750 -0.19800
H 	H 	0.37780 0.64290 0.88980 0.12400
C 	C 	0.36050 0.73850 0.76710 0.15600
C 	C 	0.37780 0.75370 0.66190 -0.19300
H 	H 	0.36350 0.81150 0.62570 0.09900
C 	C 	0.41630 0.68330 0.60970 0.10000
H 	H 	0.42750 0.69520 0.53880 -0.00500
C 	C 	0.27500 0.80000 0.88000 -0.03400
C 	C 	0.30200 0.80700 0.76700 -0.10800
H 	H 	0.30220 0.83730 0.92800 0.03700
H 	H 	0.27480 0.72860 0.90200 0.04000
H 	H 	0.27080 0.78320 0.71510 0.05300
H 	H 	0.31360 0.87670 0.75050 0.03300
Zn	Zn	0.47899 0.48747 0.56326 1.21100
O 	O 	0.51830 0.32770 0.51580 -0.36500
O 	O 	0.51370 0.38820 0.67960 -0.43300
O 	O 	0.59290 0.31640 0.82100 -0.43100
H 	H 	0.57090 0.36000 0.79140 0.28700
O 	O 	0.97560 0.07530 0.96110 -0.44100
O 	O 	0.89220 0.02970 0.06010 -0.38600
O 	O 	0.77920 0.07230 0.99750 -0.37700
H 	H 	0.80760 0.04620 0.03380 0.23000
N 	N 	0.39650 0.44020 0.49070 -0.27900
N 	N 	0.06200 0.09890 0.15780 -0.27100
C 	C 	0.53240 0.32010 0.61340 0.32800
C 	C 	0.65610 0.17400 0.77630 -0.06200
C 	C 	0.60740 0.24030 0.74970 0.22200
C 	C 	0.57560 0.23640 0.64860 -0.16800
C 	C 	0.58900 0.15700 0.58290 0.01600
H 	H 	0.56720 0.15230 0.51820 0.03800
C 	C 	0.63390 0.08230 0.60750 -0.02500
C 	C 	0.66950 0.09070 0.70530 0.05100
C 	C 	0.71720 0.01650 0.72720 -0.09700
H 	H 	0.74030 0.02000 0.79070 0.08000
C 	C 	0.72970 0.93860 0.65500 -0.00100
H 	H 	0.76130 0.89060 0.67030 0.03100
C 	C 	0.69520 0.93150 0.55930 -0.05700
H 	H 	0.70470 0.87980 0.51080 0.05500
C 	C 	0.64830 0.99940 0.53700 -0.03700
H 	H 	0.62470 0.99200 0.47420 0.04400
C 	C 	0.69270 0.18920 0.87920 -0.10900
H 	H 	0.67570 0.24950 0.91450 0.09800
H 	H 	0.68400 0.13110 0.92540 0.09500
C 	C 	0.91560 0.07980 0.98500 0.39500
C 	C 	0.76490 0.20120 0.86980 -0.05900
C 	C 	0.80550 0.14240 0.92960 0.21600
C 	C 	0.87370 0.14660 0.91880 -0.16900
C 	C 	0.89970 0.21570 0.84800 0.01400
H 	H 	0.94390 0.21850 0.83860 0.05300
C 	C 	0.86030 0.28120 0.79060 -0.01600
C 	C 	0.79250 0.27770 0.80250 0.04800
C 	C 	0.75570 0.35040 0.74750 -0.09200
H 	H 	0.71130 0.34990 0.75510 0.08000
C 	C 	0.78360 0.42170 0.68300 -0.01200
H 	H 	0.75790 0.47100 0.65050 0.04300
C 	C 	0.85080 0.42310 0.66420 -0.05000
H 	H 	0.86900 0.46950 0.61660 0.05000
C 	C 	0.88820 0.35370 0.71840 -0.04500
H 	H 	0.93240 0.35380 0.70790 0.05200
C 	C 	0.39030 0.43970 0.38400 0.13200
H 	H 	0.42090 0.47360 0.34300 -0.02400
C 	C 	0.34040 0.39110 0.33250 -0.21700
H 	H 	0.33820 0.39220 0.25820 0.11100
C 	C 	0.29440 0.34180 0.38920 0.15800
C 	C 	0.30150 0.33980 0.49720 -0.20000
H 	H 	0.27220 0.30370 0.53880 0.10400
C 	C 	0.35270 0.39170 0.54690 0.12000
H 	H 	0.35550 0.39170 0.62120 -0.02900
C 	C 	0.24920 0.27680 0.32500 -0.02500
H 	H 	0.25190 0.20680 0.35000 0.02100
H 	H 	0.26300 0.27750 0.25060 0.02200
C 	C 	0.18060 0.31110 0.33000 -0.10200
H 	H 	0.16650 0.31260 0.40400 0.04400
H 	H 	0.17670 0.37960 0.30100 0.06500
C 	C 	0.07600 0.08400 0.25980 0.09700
H 	H 	0.06040 0.02600 0.29430 -0.00500
C 	C 	0.11410 0.15390 0.31750 -0.17700
H 	H 	0.12220 0.14290 0.38980 0.10400
C 	C 	0.13950 0.23850 0.26710 0.12400
C 	C 	0.12220 0.25370 0.16190 -0.18100
H 	H 	0.13650 0.31150 0.12570 0.08600
C 	C 	0.08370 0.18330 0.10970 0.08900
H 	H 	0.07250 0.19520 0.03880 -0.01700
C 	C 	0.22500 0.30000 0.38000 -0.14100
C 	C 	0.19800 0.30700 0.26700 -0.02300
H 	H 	0.19780 0.33730 0.42800 0.05900
H 	H 	0.22520 0.22860 0.40200 0.06500
H 	H 	0.22920 0.28320 0.21510 0.02200
H 	H 	0.18640 0.37670 0.25050 -0.00100
Zn	Zn	0.97899 0.01253 0.56326 1.21000
O 	O 	0.01830 0.17230 0.51580 -0.36300
O 	O 	0.01370 0.11180 0.67960 -0.43000
O 	O 	0.09290 0.18360 0.82100 -0.43000
H 	H 	0.07090 0.14000 0.79140 0.28800
O 	O 	0.47560 0.42470 0.96110 -0.43900
O 	O 	0.39220 0.47030 0.06010 -0.39000
O 	O 	0.27920 0.42770 0.99750 -0.36900
H 	H 	0.30760 0.45380 0.03380 0.22400
N 	N 	0.89650 0.05980 0.49070 -0.27900
N 	N 	0.56200 0.40110 0.15780 -0.27300
C 	C 	0.03240 0.17990 0.61340 0.32800
C 	C 	0.15610 0.32600 0.77630 -0.06000
C 	C 	0.10740 0.25970 0.74970 0.22200
C 	C 	0.07560 0.26360 0.64860 -0.16600
C 	C 	0.08900 0.34300 0.58290 0.01600
H 	H 	0.06720 0.34770 0.51820 0.03900
C 	C 	0.13390 0.41770 0.60750 -0.02500
C 	C 	0.16950 0.40930 0.70530 0.05000
C 	C 	0.21720 0.48350 0.72720 -0.09500
H 	H 	0.24030 0.48000 0.79070 0.08000
C 	C 	0.22970 0.56140 0.65500 -0.00300
H 	H 	0.26130 0.60940 0.67030 0.03200
C 	C 	0.19520 0.56850 0.55930 -0.05600
H 	H 	0.20470 0.62020 0.51080 0.05500
C 	C 	0.14830 0.50060 0.53700 -0.03800
H 	H 	0.12470 0.50800 0.47420 0.04500
C 	C 	0.19270 0.31080 0.87920 -0.11100
H 	H 	0.17570 0.25050 0.91450 0.09900
H 	H 	0.18400 0.36890 0.92540 0.09600
C 	C 	0.41560 0.42020 0.98500 0.40100
C 	C 	0.26490 0.29880 0.86980 -0.05800
C 	C 	0.30550 0.35760 0.92960 0.21400
C 	C 	0.37370 0.35340 0.91880 -0.16800
C 	C 	0.39970 0.28430 0.84800 0.01400
H 	H 	0.44390 0.28150 0.83860 0.05400
C 	C 	0.36030 0.21880 0.79060 -0.01400
C 	C 	0.29250 0.22230 0.80250 0.04700
C 	C 	0.25570 0.14960 0.74750 -0.09000
H 	H 	0.21130 0.15010 0.75510 0.08000
C 	C 	0.28360 0.07830 0.68300 -0.01200
H 	H 	0.25790 0.02900 0.65050 0.04500
C 	C 	0.35080 0.07690 0.66420 -0.04900
H 	H 	0.36900 0.03050 0.61660 0.05100
C 	C 	0.38820 0.14630 0.71840 -0.04600
H 	H 	0.43240 0.14620 0.70790 0.05400
C 	C 	0.89030 0.06030 0.38400 0.13200
H 	H 	0.92090 0.02640 0.34300 -0.02500
C 	C 	0.84040 0.10890 0.33250 -0.21600
H 	H 	0.83820 0.10780 0.25820 0.11100
C 	C 	0.79440 0.15820 0.38920 0.15700
C 	C 	0.80150 0.16020 0.49720 -0.20000
H 	H 	0.77220 0.19630 0.53880 0.10400
C 	C 	0.85270 0.10830 0.54690 0.11900
H 	H 	0.85550 0.10830 0.62120 -0.02900
C 	C 	0.74920 0.22320 0.32500 -0.02400
H 	H 	0.75190 0.29320 0.35000 0.02000
H 	H 	0.76300 0.22250 0.25060 0.02200
C 	C 	0.68060 0.18890 0.33000 -0.10300
H 	H 	0.66650 0.18740 0.40400 0.04500
H 	H 	0.67670 0.12040 0.30100 0.06600
C 	C 	0.57600 0.41600 0.25980 0.09700
H 	H 	0.56040 0.47400 0.29430 -0.00800
C 	C 	0.61410 0.34610 0.31750 -0.17800
H 	H 	0.62220 0.35710 0.38980 0.10400
C 	C 	0.63950 0.26150 0.26710 0.12500
C 	C 	0.62220 0.24630 0.16190 -0.18200
H 	H 	0.63650 0.18850 0.12570 0.08700
C 	C 	0.58370 0.31670 0.10970 0.08900
H 	H 	0.57250 0.30480 0.03880 -0.01800
C 	C 	0.72500 0.20000 0.38000 -0.14100
C 	C 	0.69800 0.19300 0.26700 -0.02300
H 	H 	0.69780 0.16270 0.42800 0.05900
H 	H 	0.72520 0.27140 0.40200 0.06400
H 	H 	0.72920 0.21680 0.21510 0.02300
H 	H 	0.68640 0.12330 0.25050 -0.00100
Zn	Zn	0.52101 0.51253 0.06326 1.20000
O 	O 	0.48170 0.67230 0.01580 -0.38600
O 	O 	0.48630 0.61180 0.17960 -0.43600
O 	O 	0.40710 0.68360 0.32100 -0.43700
H 	H 	0.42910 0.64000 0.29140 0.28700
O 	O 	0.02440 0.92470 0.46110 -0.44700
O 	O 	0.10780 0.97030 0.56010 -0.35100
O 	O 	0.22080 0.92770 0.49750 -0.44500
H 	H 	0.19240 0.95380 0.53380 0.28400
N 	N 	0.60350 0.55980 0.99070 -0.20300
N 	N 	0.93800 0.90110 0.65780 -0.27100
C 	C 	0.46760 0.67990 0.11340 0.32600
C 	C 	0.34390 0.82600 0.27630 -0.05400
C 	C 	0.39260 0.75970 0.24970 0.21300
C 	C 	0.42440 0.76360 0.14860 -0.15800
C 	C 	0.41100 0.84300 0.08290 -0.02200
H 	H 	0.43280 0.84770 0.01820 0.03700
C 	C 	0.36610 0.91770 0.10750 0.02800
C 	C 	0.33050 0.90930 0.20530 0.01600
C 	C 	0.28280 0.98350 0.22720 -0.05700
H 	H 	0.25970 0.98000 0.29070 0.06400
C 	C 	0.27030 0.06140 0.15500 -0.06800
H 	H 	0.23870 0.10940 0.17030 0.05200
C 	C 	0.30480 0.06850 0.05930 0.03900
H 	H 	0.29530 0.12020 0.01080 0.00200
C 	C 	0.35170 0.00060 0.03700 -0.18200
H 	H 	0.37530 0.00800 0.97420 0.12600
C 	C 	0.30730 0.81080 0.37920 -0.10000
H 	H 	0.32430 0.75050 0.41450 0.08400
H 	H 	0.31600 0.86890 0.42540 0.08400
C 	C 	0.08440 0.92020 0.48500 0.34700
C 	C 	0.23510 0.79880 0.36980 -0.07200
C 	C 	0.19450 0.85760 0.42960 0.22400
C 	C 	0.12630 0.85340 0.41880 -0.17200
C 	C 	0.10030 0.78430 0.34800 0.01000
H 	H 	0.05610 0.78150 0.33860 0.05100
C 	C 	0.13970 0.71880 0.29060 -0.02000
C 	C 	0.20750 0.72230 0.30250 0.04700
C 	C 	0.24430 0.64960 0.24750 -0.09600
H 	H 	0.28870 0.65010 0.25510 0.07900
C 	C 	0.21640 0.57830 0.18300 -0.01300
H 	H 	0.24210 0.52900 0.15050 0.03700
C 	C 	0.14920 0.57690 0.16420 -0.05400
H 	H 	0.13100 0.53050 0.11660 0.04200
C 	C 	0.11180 0.64630 0.21840 -0.04700
H 	H 	0.06760 0.64620 0.20790 0.04900
C 	C 	0.60970 0.56030 0.88400 0.07800
H 	H 	0.57910 0.52640 0.84300 -0.00100
C 	C 	0.65960 0.60890 0.83250 -0.11600
H 	H 	0.66180 0.60780 0.75820 0.08000
C 	C 	0.70560 0.65820 0.88920 0.03200
C 	C 	0.69850 0.66020 0.99720 0.06300
H 	H 	0.72780 0.69630 0.03880 -0.01400
C 	C 	0.64730 0.60830 0.04690 -0.08900
H 	H 	0.64450 0.60830 0.12120 0.03900
C 	C 	0.75080 0.72320 0.82500 -0.04600
H 	H 	0.74810 0.79320 0.85000 0.03500
H 	H 	0.73700 0.72250 0.75060 0.02900
C 	C 	0.81940 0.68890 0.83000 -0.08200
H 	H 	0.83350 0.68740 0.90400 0.04600
H 	H 	0.82330 0.62040 0.80100 0.05600
C 	C 	0.92400 0.91600 0.75980 0.11300
H 	H 	0.93960 0.97400 0.79430 -0.00900
C 	C 	0.88590 0.84610 0.81750 -0.19600
H 	H 	0.87780 0.85710 0.88980 0.12300
C 	C 	0.86050 0.76150 0.76710 0.15400
C 	C 	0.87780 0.74630 0.66190 -0.19200
H 	H 	0.86350 0.68850 0.62570 0.09900
C 	C 	0.91630 0.81670 0.60970 0.10000
H 	H 	0.92750 0.80480 0.53880 -0.00400
C 	C 	0.77500 0.70000 0.88000 -0.04100
C 	C 	0.80200 0.69300 0.76700 -0.10200
H 	H 	0.80220 0.66270 0.92800 0.03900
H 	H 	0.77480 0.77140 0.90200 0.04200
H 	H 	0.77080 0.71680 0.71510 0.05200
H 	H 	0.81360 0.62330 0.75050 0.03100
