data_crystal

_cell_length_a 11.45390
_cell_length_b 11.72700
_cell_length_c 14.13890
_cell_angle_alpha 112.65700
_cell_angle_beta  90.00000
_cell_angle_gamma 119.23200

_symmetry_space_group_name_	'P 1'
_symmetry_space_group_name_H-M	'P 1'

loop_
_symmetry_equiv_pos_as_xyz
  x,y,z

loop_
_atom_site_label
_atom_site_type_symbol
_atom_site_fract_x
_atom_site_fract_y
_atom_site_fract_z
_atom_site_charge
Co	Co	0.01439 -0.00000 0.75000 1.12900
Co	Co	0.98561 0.00000 0.25000 1.12700
H 	H 	0.16310 0.70060 0.64820 0.05200
H 	H 	0.20780 0.52460 0.54750 0.05300
H 	H 	0.94840 0.16100 0.96450 0.03900
H 	H 	0.80280 0.74300 0.80440 0.02800
H 	H 	0.69830 0.77500 0.95560 0.04900
H 	H 	0.76110 0.02460 0.13450 0.05200
H 	H 	0.83310 0.16760 0.11880 0.06600
H 	H 	0.51330 0.85400 0.06580 0.00200
H 	H 	0.30100 0.79860 0.99350 0.11600
H 	H 	0.46250 0.29940 0.85180 0.04400
H 	H 	0.68320 0.47540 0.95250 0.05200
H 	H 	0.78740 0.83900 0.53550 -0.02800
H 	H 	0.05980 0.25700 0.69560 0.03100
H 	H 	0.92330 0.22500 0.54440 0.04000
H 	H 	0.73650 0.97540 0.36550 0.11200
H 	H 	0.66550 0.83240 0.38120 0.09000
H 	H 	0.65930 0.14600 0.43420 0.12300
H 	H 	0.50240 0.20140 0.50650 0.00200
H 	H 	0.83690 0.29940 0.35180 0.04600
H 	H 	0.79220 0.47540 0.45250 0.05100
H 	H 	0.05160 0.83900 0.03550 -0.02600
H 	H 	0.19720 0.25700 0.19560 0.02700
H 	H 	0.30170 0.22500 0.04440 0.04100
H 	H 	0.23890 0.97540 0.86550 0.11200
H 	H 	0.16690 0.83240 0.88120 0.09000
H 	H 	0.48670 0.14600 0.93420 0.12100
H 	H 	0.69900 0.20140 0.00650 0.00400
H 	H 	0.53750 0.70060 0.14820 0.05400
H 	H 	0.31680 0.52460 0.04750 0.05300
H 	H 	0.21260 0.16100 0.46450 0.04100
H 	H 	0.94020 0.74300 0.30440 0.02100
H 	H 	0.07670 0.77500 0.45560 0.05100
H 	H 	0.26350 0.02460 0.63450 0.05000
H 	H 	0.33450 0.16760 0.61880 0.06600
H 	H 	0.34070 0.85400 0.56580 -0.00100
H 	H 	0.49760 0.79860 0.49350 0.11900
C 	C 	0.94702 0.72424 0.62391 0.30400
C 	C 	0.97316 0.60632 0.56092 -0.06300
C 	C 	0.09737 0.61974 0.58849 -0.01900
C 	C 	0.12446 0.51452 0.52829 -0.02900
C 	C 	0.89966 0.06096 0.94304 -0.03200
C 	C 	0.81918 0.83136 0.85548 0.01300
C 	C 	0.76132 0.84824 0.93897 -0.00300
C 	C 	0.76725 0.06330 0.08389 -0.11100
C 	C 	0.62796 0.03332 0.04424 -0.09800
C 	C 	0.50821 0.91322 0.03940 0.13000
C 	C 	0.38071 0.87962 0.99580 -0.22200
C 	C 	0.22278 0.27576 0.87609 0.31500
C 	C 	0.36684 0.39368 0.93908 -0.06500
C 	C 	0.47763 0.38026 0.91151 -0.02400
C 	C 	0.60994 0.48548 0.97171 -0.02900
C 	C 	0.83870 0.93904 0.55696 0.19900
C 	C 	0.98782 0.16864 0.64452 -0.00200
C 	C 	0.91308 0.15176 0.56103 -0.01700
C 	C 	0.70395 0.93670 0.41611 -0.17600
C 	C 	0.59464 0.96668 0.45576 0.24900
C 	C 	0.59499 0.08678 0.46060 -0.28600
C 	C 	0.50109 0.12038 0.50420 0.08800
C 	C 	0.05298 0.27576 0.37609 0.31800
C 	C 	0.02684 0.39368 0.43908 -0.06000
C 	C 	0.90263 0.38026 0.41151 -0.03100
C 	C 	0.87554 0.48548 0.47171 -0.02800
C 	C 	0.10034 0.93904 0.05696 0.19700
C 	C 	0.18082 0.16864 0.14452 0.00400
C 	C 	0.23868 0.15176 0.06103 -0.01900
C 	C 	0.23275 0.93670 0.91611 -0.17300
C 	C 	0.37204 0.96668 0.95576 0.24300
C 	C 	0.49179 0.08678 0.96060 -0.27800
C 	C 	0.61929 0.12038 0.00420 0.08000
C 	C 	0.77722 0.72424 0.12391 0.30700
C 	C 	0.63316 0.60632 0.06092 -0.06000
C 	C 	0.52237 0.61974 0.08849 -0.02600
C 	C 	0.39006 0.51452 0.02829 -0.02700
C 	C 	0.16130 0.06096 0.44304 -0.03200
C 	C 	0.01218 0.83136 0.35548 0.02500
C 	C 	0.08692 0.84824 0.43897 -0.00800
C 	C 	0.29605 0.06330 0.58389 -0.10500
C 	C 	0.40536 0.03332 0.54424 -0.10500
C 	C 	0.40501 0.91322 0.53940 0.14200
C 	C 	0.49891 0.87962 0.49580 -0.23100
N 	N 	0.90621 0.96534 0.85771 -0.19800
N 	N 	0.81343 0.99416 0.99424 -0.04700
N 	N 	0.94087 0.03466 0.64229 -0.29500
N 	N 	0.81927 0.00584 0.50576 -0.15900
N 	N 	0.09379 0.03466 0.14229 -0.29300
N 	N 	0.18657 0.00584 0.00576 -0.15700
N 	N 	0.05913 0.96534 0.35771 -0.19800
N 	N 	0.18073 0.99416 0.49424 -0.04700
O 	O 	0.05311 0.84476 0.68690 -0.40600
O 	O 	0.83009 0.70252 0.61086 -0.30400
O 	O 	0.20835 0.15524 0.81310 -0.44700
O 	O 	0.12757 0.29748 0.88914 -0.31700
O 	O 	0.94689 0.15524 0.31310 -0.45100
O 	O 	0.16991 0.29748 0.38914 -0.31800
O 	O 	0.79165 0.84476 0.18690 -0.41000
O 	O 	0.87243 0.70252 0.11086 -0.30700
