data_crystal

_cell_length_a 15.43900
_cell_length_b 15.43900
_cell_length_c 28.03400
_cell_angle_alpha 90.00000
_cell_angle_beta  90.00000
_cell_angle_gamma 90.00000

_symmetry_space_group_name_	'P 1'
_symmetry_space_group_name_H-M	'P 1'

loop_
_symmetry_equiv_pos_as_xyz
  x,y,z

loop_
_atom_site_label
_atom_site_type_symbol
_atom_site_fract_x
_atom_site_fract_y
_atom_site_fract_z
_atom_site_charge
O 	O 	0.10508 0.07671 0.78823 -0.49400
C 	C 	0.16897 0.26539 0.77154 0.04500
C 	C 	0.08680 0.28440 0.79351 -0.08300
H 	H 	0.04240 0.24180 0.79370 0.05300
C 	C 	0.07250 0.36220 0.81380 -0.03200
H 	H 	0.01820 0.37370 0.82830 0.02200
C 	C 	0.04630 0.94410 0.94870 -0.05100
H 	H 	0.08320 0.90320 0.96460 0.04700
C 	C 	0.04260 0.94770 0.89910 0.10000
H 	H 	0.07440 0.90440 0.88180 -0.01000
O 	O 	0.60508 0.57671 0.28823 -0.46500
C 	C 	0.66897 0.76539 0.27154 0.05400
C 	C 	0.58680 0.78440 0.29351 -0.07600
H 	H 	0.54240 0.74180 0.29370 0.07000
C 	C 	0.57250 0.86220 0.31380 -0.02000
H 	H 	0.51820 0.87370 0.32830 0.04900
C 	C 	0.54630 0.44410 0.44870 -0.09700
H 	H 	0.58320 0.40320 0.46460 0.05500
C 	C 	0.54260 0.44770 0.39910 0.05600
H 	H 	0.57440 0.40440 0.38180 0.00400
O 	O 	0.89492 0.92329 0.78823 -0.42200
C 	C 	0.83103 0.73461 0.77154 0.05500
C 	C 	0.91320 0.71560 0.79351 -0.07400
H 	H 	0.95760 0.75820 0.79370 0.08500
C 	C 	0.92750 0.63780 0.81380 -0.01600
H 	H 	0.98180 0.62630 0.82830 0.05600
C 	C 	0.95370 0.05590 0.94870 -0.04600
H 	H 	0.91680 0.09680 0.96460 0.04700
C 	C 	0.95740 0.05230 0.89910 0.09800
H 	H 	0.92560 0.09560 0.88180 -0.00200
O 	O 	0.39492 0.42329 0.28823 -0.46800
C 	C 	0.33103 0.23461 0.27154 0.05000
C 	C 	0.41320 0.21560 0.29351 -0.08300
H 	H 	0.45760 0.25820 0.29370 0.06800
C 	C 	0.42750 0.13780 0.31380 -0.02700
H 	H 	0.48180 0.12630 0.32830 0.02900
C 	C 	0.45370 0.55590 0.44870 -0.09700
H 	H 	0.41680 0.59680 0.46460 0.05600
C 	C 	0.45740 0.55230 0.39910 0.05500
H 	H 	0.42560 0.59560 0.38180 0.00600
O 	O 	0.92329 0.10508 0.78823 -0.44500
C 	C 	0.73461 0.16897 0.77154 0.04500
C 	C 	0.71560 0.08680 0.79351 -0.08000
H 	H 	0.75820 0.04240 0.79370 0.05300
C 	C 	0.63780 0.07250 0.81380 -0.03300
H 	H 	0.62630 0.01820 0.82830 0.02300
C 	C 	0.05590 0.04630 0.94870 -0.06500
H 	H 	0.09680 0.08320 0.96460 0.03500
C 	C 	0.05230 0.04260 0.89910 -0.04000
H 	H 	0.09560 0.07440 0.88180 0.02100
O 	O 	0.42329 0.60508 0.28823 -0.46500
C 	C 	0.23461 0.66897 0.27154 0.05200
C 	C 	0.21560 0.58680 0.29351 -0.08300
H 	H 	0.25820 0.54240 0.29370 0.06900
C 	C 	0.13780 0.57250 0.31380 -0.02500
H 	H 	0.12630 0.51820 0.32830 0.02800
C 	C 	0.55590 0.54630 0.44870 -0.09600
H 	H 	0.59680 0.58320 0.46460 0.05900
C 	C 	0.55230 0.54260 0.39910 0.05600
H 	H 	0.59560 0.57440 0.38180 0.00700
O 	O 	0.07671 0.89492 0.78823 -0.46200
C 	C 	0.26539 0.83103 0.77154 0.05600
C 	C 	0.28440 0.91320 0.79351 -0.07700
H 	H 	0.24180 0.95760 0.79370 0.08700
C 	C 	0.36220 0.92750 0.81380 -0.01500
H 	H 	0.37370 0.98180 0.82830 0.05500
C 	C 	0.94410 0.95370 0.94870 0.03900
H 	H 	0.90320 0.91680 0.96460 0.03300
C 	C 	0.94770 0.95740 0.89910 0.09500
H 	H 	0.90440 0.92560 0.88180 0.01200
O 	O 	0.57671 0.39492 0.28823 -0.46700
C 	C 	0.76539 0.33103 0.27154 0.05100
C 	C 	0.78440 0.41320 0.29351 -0.07500
H 	H 	0.74180 0.45760 0.29370 0.06900
C 	C 	0.86220 0.42750 0.31380 -0.02200
H 	H 	0.87370 0.48180 0.32830 0.04900
C 	C 	0.44410 0.45370 0.44870 -0.09800
H 	H 	0.40320 0.41680 0.46460 0.05200
C 	C 	0.44770 0.45740 0.39910 0.05500
H 	H 	0.40440 0.42560 0.38180 0.00300
O 	O 	0.89492 0.07671 0.71177 -0.46200
C 	C 	0.83103 0.26539 0.72846 0.05600
C 	C 	0.91320 0.28440 0.70649 -0.07700
H 	H 	0.95760 0.24180 0.70630 0.08700
C 	C 	0.92750 0.36220 0.68620 -0.01500
H 	H 	0.98180 0.37370 0.67170 0.05600
C 	C 	0.95370 0.94410 0.55130 0.04000
H 	H 	0.91680 0.90320 0.53540 0.03300
C 	C 	0.95740 0.94770 0.60090 0.09500
H 	H 	0.92560 0.90440 0.61820 0.01200
O 	O 	0.39492 0.57671 0.21177 -0.46700
C 	C 	0.33103 0.76539 0.22846 0.05100
C 	C 	0.41320 0.78440 0.20649 -0.07500
H 	H 	0.45760 0.74180 0.20630 0.06900
C 	C 	0.42750 0.86220 0.18620 -0.02200
H 	H 	0.48180 0.87370 0.17170 0.04900
C 	C 	0.45370 0.44410 0.05130 -0.09800
H 	H 	0.41680 0.40320 0.03540 0.05200
C 	C 	0.45740 0.44770 0.10090 0.05500
H 	H 	0.42560 0.40440 0.11820 0.00300
O 	O 	0.10508 0.92329 0.71177 -0.44500
C 	C 	0.16897 0.73461 0.72846 0.04500
C 	C 	0.08680 0.71560 0.70649 -0.08000
H 	H 	0.04240 0.75820 0.70630 0.05300
C 	C 	0.07250 0.63780 0.68620 -0.03300
H 	H 	0.01820 0.62630 0.67170 0.02300
C 	C 	0.04630 0.05590 0.55130 -0.06500
H 	H 	0.08320 0.09680 0.53540 0.03400
C 	C 	0.04260 0.05230 0.60090 -0.04100
H 	H 	0.07440 0.09560 0.61820 0.02100
O 	O 	0.60508 0.42329 0.21177 -0.46500
C 	C 	0.66897 0.23461 0.22846 0.05200
C 	C 	0.58680 0.21560 0.20649 -0.08300
H 	H 	0.54240 0.25820 0.20630 0.06900
C 	C 	0.57250 0.13780 0.18620 -0.02500
H 	H 	0.51820 0.12630 0.17170 0.02900
C 	C 	0.54630 0.55590 0.05130 -0.09600
H 	H 	0.58320 0.59680 0.03540 0.05900
C 	C 	0.54260 0.55230 0.10090 0.05600
H 	H 	0.57440 0.59560 0.11820 0.00700
O 	O 	0.07671 0.10508 0.71177 -0.49300
C 	C 	0.26539 0.16897 0.72846 0.04600
C 	C 	0.28440 0.08680 0.70649 -0.08300
H 	H 	0.24180 0.04240 0.70630 0.05300
C 	C 	0.36220 0.07250 0.68620 -0.03200
H 	H 	0.37370 0.01820 0.67170 0.02200
C 	C 	0.94410 0.04630 0.55130 -0.05000
H 	H 	0.90320 0.08320 0.53540 0.04600
C 	C 	0.94770 0.04260 0.60090 0.10000
H 	H 	0.90440 0.07440 0.61820 -0.01000
O 	O 	0.57671 0.60508 0.21177 -0.46500
C 	C 	0.76539 0.66897 0.22846 0.05400
C 	C 	0.78440 0.58680 0.20649 -0.07600
H 	H 	0.74180 0.54240 0.20630 0.07000
C 	C 	0.86220 0.57250 0.18620 -0.02000
H 	H 	0.87370 0.51820 0.17170 0.04900
C 	C 	0.44410 0.54630 0.05130 -0.09700
H 	H 	0.40320 0.58320 0.03540 0.05500
C 	C 	0.44770 0.54260 0.10090 0.05600
H 	H 	0.40440 0.57440 0.11820 0.00400
O 	O 	0.92329 0.89492 0.71177 -0.42200
C 	C 	0.73461 0.83103 0.72846 0.05500
C 	C 	0.71560 0.91320 0.70649 -0.07400
H 	H 	0.75820 0.95760 0.70630 0.08500
C 	C 	0.63780 0.92750 0.68620 -0.01600
H 	H 	0.62630 0.98180 0.67170 0.05600
C 	C 	0.05590 0.95370 0.55130 -0.04600
H 	H 	0.09680 0.91680 0.53540 0.04700
C 	C 	0.05230 0.95740 0.60090 0.09800
H 	H 	0.09560 0.92560 0.61820 -0.00200
O 	O 	0.42329 0.39492 0.21177 -0.46800
C 	C 	0.23461 0.33103 0.22846 0.05000
C 	C 	0.21560 0.41320 0.20649 -0.08300
H 	H 	0.25820 0.45760 0.20630 0.06800
C 	C 	0.13780 0.42750 0.18620 -0.02700
H 	H 	0.12630 0.48180 0.17170 0.02900
C 	C 	0.55590 0.45370 0.05130 -0.09700
H 	H 	0.59680 0.41680 0.03540 0.05600
C 	C 	0.55230 0.45740 0.10090 0.05500
H 	H 	0.59560 0.42560 0.11820 0.00600
O 	O 	0.89492 0.92329 0.21177 -0.42200
C 	C 	0.83103 0.73461 0.22846 0.05500
C 	C 	0.91320 0.71560 0.20649 -0.07400
H 	H 	0.95760 0.75820 0.20630 0.08500
C 	C 	0.92750 0.63780 0.18620 -0.01600
H 	H 	0.98180 0.62630 0.17170 0.05600
C 	C 	0.95370 0.05590 0.05130 -0.04600
H 	H 	0.91680 0.09680 0.03540 0.04700
C 	C 	0.95740 0.05230 0.10090 0.09800
H 	H 	0.92560 0.09560 0.11820 -0.00200
O 	O 	0.39492 0.42329 0.71177 -0.46800
C 	C 	0.33103 0.23461 0.72846 0.05000
C 	C 	0.41320 0.21560 0.70649 -0.08300
H 	H 	0.45760 0.25820 0.70630 0.06800
C 	C 	0.42750 0.13780 0.68620 -0.02700
H 	H 	0.48180 0.12630 0.67170 0.02900
C 	C 	0.45370 0.55590 0.55130 -0.09700
H 	H 	0.41680 0.59680 0.53540 0.05600
C 	C 	0.45740 0.55230 0.60090 0.05500
H 	H 	0.42560 0.59560 0.61820 0.00600
O 	O 	0.10508 0.07671 0.21177 -0.49300
C 	C 	0.16897 0.26539 0.22846 0.04600
C 	C 	0.08680 0.28440 0.20649 -0.08300
H 	H 	0.04240 0.24180 0.20630 0.05300
C 	C 	0.07250 0.36220 0.18620 -0.03200
H 	H 	0.01820 0.37370 0.17170 0.02200
C 	C 	0.04630 0.94410 0.05130 -0.05100
H 	H 	0.08320 0.90320 0.03540 0.04700
C 	C 	0.04260 0.94770 0.10090 0.10000
H 	H 	0.07440 0.90440 0.11820 -0.01000
O 	O 	0.60508 0.57671 0.71177 -0.46500
C 	C 	0.66897 0.76539 0.72846 0.05400
C 	C 	0.58680 0.78440 0.70649 -0.07600
H 	H 	0.54240 0.74180 0.70630 0.07000
C 	C 	0.57250 0.86220 0.68620 -0.02000
H 	H 	0.51820 0.87370 0.67170 0.04900
C 	C 	0.54630 0.44410 0.55130 -0.09700
H 	H 	0.58320 0.40320 0.53540 0.05500
C 	C 	0.54260 0.44770 0.60090 0.05600
H 	H 	0.57440 0.40440 0.61820 0.00400
O 	O 	0.07671 0.89492 0.21177 -0.46200
C 	C 	0.26539 0.83103 0.22846 0.05600
C 	C 	0.28440 0.91320 0.20649 -0.07700
H 	H 	0.24180 0.95760 0.20630 0.08700
C 	C 	0.36220 0.92750 0.18620 -0.01500
H 	H 	0.37370 0.98180 0.17170 0.05500
C 	C 	0.94410 0.95370 0.05130 0.03900
H 	H 	0.90320 0.91680 0.03540 0.03300
C 	C 	0.94770 0.95740 0.10090 0.09500
H 	H 	0.90440 0.92560 0.11820 0.01200
O 	O 	0.57671 0.39492 0.71177 -0.46700
C 	C 	0.76539 0.33103 0.72846 0.05100
C 	C 	0.78440 0.41320 0.70649 -0.07500
H 	H 	0.74180 0.45760 0.70630 0.06900
C 	C 	0.86220 0.42750 0.68620 -0.02200
H 	H 	0.87370 0.48180 0.67170 0.04900
C 	C 	0.44410 0.45370 0.55130 -0.09800
H 	H 	0.40320 0.41680 0.53540 0.05200
C 	C 	0.44770 0.45740 0.60090 0.05500
H 	H 	0.40440 0.42560 0.61820 0.00300
O 	O 	0.92329 0.10508 0.21177 -0.44500
C 	C 	0.73461 0.16897 0.22846 0.04500
C 	C 	0.71560 0.08680 0.20649 -0.08000
H 	H 	0.75820 0.04240 0.20630 0.05300
C 	C 	0.63780 0.07250 0.18620 -0.03300
H 	H 	0.62630 0.01820 0.17170 0.02300
C 	C 	0.05590 0.04630 0.05130 -0.06500
H 	H 	0.09680 0.08320 0.03540 0.03500
C 	C 	0.05230 0.04260 0.10090 -0.04000
H 	H 	0.09560 0.07440 0.11820 0.02100
O 	O 	0.42329 0.60508 0.71177 -0.46500
C 	C 	0.23461 0.66897 0.72846 0.05200
C 	C 	0.21560 0.58680 0.70649 -0.08300
H 	H 	0.25820 0.54240 0.70630 0.06900
C 	C 	0.13780 0.57250 0.68620 -0.02500
H 	H 	0.12630 0.51820 0.67170 0.02800
C 	C 	0.55590 0.54630 0.55130 -0.09600
H 	H 	0.59680 0.58320 0.53540 0.05900
C 	C 	0.55230 0.54260 0.60090 0.05600
H 	H 	0.59560 0.57440 0.61820 0.00700
O 	O 	0.10508 0.92329 0.28823 -0.44500
C 	C 	0.16897 0.73461 0.27154 0.04500
C 	C 	0.08680 0.71560 0.29351 -0.08000
H 	H 	0.04240 0.75820 0.29370 0.05300
C 	C 	0.07250 0.63780 0.31380 -0.03300
H 	H 	0.01820 0.62630 0.32830 0.02300
C 	C 	0.04630 0.05590 0.44870 -0.06500
H 	H 	0.08320 0.09680 0.46460 0.03400
C 	C 	0.04260 0.05230 0.39910 -0.04100
H 	H 	0.07440 0.09560 0.38180 0.02100
O 	O 	0.60508 0.42329 0.78823 -0.46500
C 	C 	0.66897 0.23461 0.77154 0.05200
C 	C 	0.58680 0.21560 0.79351 -0.08300
H 	H 	0.54240 0.25820 0.79370 0.06900
C 	C 	0.57250 0.13780 0.81380 -0.02500
H 	H 	0.51820 0.12630 0.82830 0.02900
C 	C 	0.54630 0.55590 0.94870 -0.09600
H 	H 	0.58320 0.59680 0.96460 0.05900
C 	C 	0.54260 0.55230 0.89910 0.05600
H 	H 	0.57440 0.59560 0.88180 0.00700
O 	O 	0.89492 0.07671 0.28823 -0.46200
C 	C 	0.83103 0.26539 0.27154 0.05600
C 	C 	0.91320 0.28440 0.29351 -0.07700
H 	H 	0.95760 0.24180 0.29370 0.08700
C 	C 	0.92750 0.36220 0.31380 -0.01500
H 	H 	0.98180 0.37370 0.32830 0.05600
C 	C 	0.95370 0.94410 0.44870 0.04000
H 	H 	0.91680 0.90320 0.46460 0.03300
C 	C 	0.95740 0.94770 0.39910 0.09500
H 	H 	0.92560 0.90440 0.38180 0.01200
O 	O 	0.39492 0.57671 0.78823 -0.46700
C 	C 	0.33103 0.76539 0.77154 0.05100
C 	C 	0.41320 0.78440 0.79351 -0.07500
H 	H 	0.45760 0.74180 0.79370 0.06900
C 	C 	0.42750 0.86220 0.81380 -0.02200
H 	H 	0.48180 0.87370 0.82830 0.04900
C 	C 	0.45370 0.44410 0.94870 -0.09800
H 	H 	0.41680 0.40320 0.96460 0.05200
C 	C 	0.45740 0.44770 0.89910 0.05500
H 	H 	0.42560 0.40440 0.88180 0.00300
O 	O 	0.92329 0.89492 0.28823 -0.42200
C 	C 	0.73461 0.83103 0.27154 0.05500
C 	C 	0.71560 0.91320 0.29351 -0.07400
H 	H 	0.75820 0.95760 0.29370 0.08500
C 	C 	0.63780 0.92750 0.31380 -0.01600
H 	H 	0.62630 0.98180 0.32830 0.05600
C 	C 	0.05590 0.95370 0.44870 -0.04600
H 	H 	0.09680 0.91680 0.46460 0.04700
C 	C 	0.05230 0.95740 0.39910 0.09800
H 	H 	0.09560 0.92560 0.38180 -0.00200
O 	O 	0.42329 0.39492 0.78823 -0.46800
C 	C 	0.23461 0.33103 0.77154 0.05000
C 	C 	0.21560 0.41320 0.79351 -0.08300
H 	H 	0.25820 0.45760 0.79370 0.06800
C 	C 	0.13780 0.42750 0.81380 -0.02700
H 	H 	0.12630 0.48180 0.82830 0.02900
C 	C 	0.55590 0.45370 0.94870 -0.09700
H 	H 	0.59680 0.41680 0.96460 0.05600
C 	C 	0.55230 0.45740 0.89910 0.05500
H 	H 	0.59560 0.42560 0.88180 0.00600
O 	O 	0.07671 0.10508 0.28823 -0.49300
C 	C 	0.26539 0.16897 0.27154 0.04600
C 	C 	0.28440 0.08680 0.29351 -0.08300
H 	H 	0.24180 0.04240 0.29370 0.05300
C 	C 	0.36220 0.07250 0.31380 -0.03200
H 	H 	0.37370 0.01820 0.32830 0.02200
C 	C 	0.94410 0.04630 0.44870 -0.05000
H 	H 	0.90320 0.08320 0.46460 0.04600
C 	C 	0.94770 0.04260 0.39910 0.10000
H 	H 	0.90440 0.07440 0.38180 -0.01000
O 	O 	0.57671 0.60508 0.78823 -0.46500
C 	C 	0.76539 0.66897 0.77154 0.05400
C 	C 	0.78440 0.58680 0.79351 -0.07600
H 	H 	0.74180 0.54240 0.79370 0.07000
C 	C 	0.86220 0.57250 0.81380 -0.02000
H 	H 	0.87370 0.51820 0.82830 0.04900
C 	C 	0.44410 0.54630 0.94870 -0.09700
H 	H 	0.40320 0.58320 0.96460 0.05500
C 	C 	0.44770 0.54260 0.89910 0.05600
H 	H 	0.40440 0.57440 0.88180 0.00400
Zn	Zn	-0.00000 -0.00000 0.80217 1.18100
N 	N 	0.00000 0.00000 0.87430 -0.35500
C 	C 	0.00000 0.00000 0.97310 -0.07900
Zn	Zn	0.50000 0.50000 0.30217 1.21300
N 	N 	0.50000 0.50000 0.37430 -0.28300
C 	C 	0.50000 0.50000 0.47310 0.09000
Zn	Zn	0.00000 0.00000 0.69783 1.18100
N 	N 	0.00000 0.00000 0.62570 -0.35600
C 	C 	-0.00000 0.00000 0.52690 -0.08100
Zn	Zn	0.50000 0.50000 0.19783 1.21300
N 	N 	0.50000 0.50000 0.12570 -0.28300
C 	C 	0.50000 0.50000 0.02690 0.09000
Zn	Zn	0.00000 -0.00000 0.19783 1.18100
N 	N 	0.00000 -0.00000 0.12570 -0.35500
C 	C 	0.00000 0.00000 0.02690 -0.07900
Zn	Zn	0.50000 0.50000 0.69783 1.21300
N 	N 	0.50000 0.50000 0.62570 -0.28300
C 	C 	0.50000 0.50000 0.52690 0.09000
Zn	Zn	-0.00000 0.00000 0.30217 1.18100
N 	N 	-0.00000 -0.00000 0.37430 -0.35600
C 	C 	0.00000 0.00000 0.47310 -0.08100
Zn	Zn	0.50000 0.50000 0.80217 1.21300
N 	N 	0.50000 0.50000 0.87430 -0.28300
C 	C 	0.50000 0.50000 0.97310 0.09000
C 	C 	0.18601 0.18601 0.75000 -0.12900
C 	C 	0.11674 0.11674 0.75000 0.39300
C 	C 	0.68601 0.68601 0.25000 -0.12100
C 	C 	0.61674 0.61674 0.25000 0.39400
C 	C 	0.81399 0.81399 0.75000 -0.11300
C 	C 	0.88326 0.88326 0.75000 0.38600
C 	C 	0.31399 0.31399 0.25000 -0.12500
C 	C 	0.38326 0.38326 0.25000 0.39400
C 	C 	0.81399 0.18601 0.75000 -0.12000
C 	C 	0.88326 0.11674 0.75000 0.38900
C 	C 	0.31399 0.68601 0.25000 -0.12300
C 	C 	0.38326 0.61674 0.25000 0.39400
C 	C 	0.18601 0.81399 0.75000 -0.12000
C 	C 	0.11674 0.88326 0.75000 0.38900
C 	C 	0.68601 0.31399 0.25000 -0.12300
C 	C 	0.61674 0.38326 0.25000 0.39400
C 	C 	0.81399 0.81399 0.25000 -0.11300
C 	C 	0.88326 0.88326 0.25000 0.38600
C 	C 	0.31399 0.31399 0.75000 -0.12500
C 	C 	0.38326 0.38326 0.75000 0.39400
C 	C 	0.18601 0.18601 0.25000 -0.12900
C 	C 	0.11674 0.11674 0.25000 0.39300
C 	C 	0.68601 0.68601 0.75000 -0.12100
C 	C 	0.61674 0.61674 0.75000 0.39400
C 	C 	0.18601 0.81399 0.25000 -0.12000
C 	C 	0.11674 0.88326 0.25000 0.38900
C 	C 	0.68601 0.31399 0.75000 -0.12300
C 	C 	0.61674 0.38326 0.75000 0.39400
C 	C 	0.81399 0.18601 0.25000 -0.12000
C 	C 	0.88326 0.11674 0.25000 0.38900
C 	C 	0.31399 0.68601 0.75000 -0.12300
C 	C 	0.38326 0.61674 0.75000 0.39400
