data_crystal

_cell_length_a 9.57410
_cell_length_b 11.44030
_cell_length_c 25.67400
_cell_angle_alpha 90.00000
_cell_angle_beta  90.00000
_cell_angle_gamma 90.00000

_symmetry_space_group_name_	'P 1'
_symmetry_space_group_name_H-M	'P 1'

loop_
_symmetry_equiv_pos_as_xyz
  x,y,z

loop_
_atom_site_label
_atom_site_type_symbol
_atom_site_fract_x
_atom_site_fract_y
_atom_site_fract_z
_atom_site_charge
O 	O 	0.79740 0.91290 0.05600 -0.40700
C 	C 	0.94040 0.80000 0.10880 -0.12300
C 	C 	0.86740 0.83310 0.15260 0.12100
H 	H 	0.80090 0.89200 0.14960 0.03800
O 	O 	0.00690 0.86300 0.02430 -0.22600
C 	C 	0.88850 0.78310 0.20020 -0.22200
H 	H 	0.83970 0.80910 0.22930 0.13900
O 	O 	0.06900 0.59420 0.03781 -0.38600
O 	O 	0.25320 0.69050 0.06830 -0.25700
C 	C 	0.98420 0.69300 0.20420 0.22500
C 	C 	0.05890 0.65480 0.16140 -0.16600
H 	H 	0.12100 0.59270 0.16430 0.11700
C 	C 	0.03900 0.71220 0.11310 0.07200
C 	C 	0.91470 0.86350 0.05860 0.35500
C 	C 	0.12820 0.66560 0.06930 0.28000
O 	O 	0.29740 0.41290 0.05600 -0.46200
C 	C 	0.44040 0.30000 0.10880 -0.13200
C 	C 	0.36740 0.33310 0.15260 0.12700
H 	H 	0.30090 0.39200 0.14960 0.01000
O 	O 	0.50690 0.36300 0.02430 -0.27900
C 	C 	0.38850 0.28310 0.20020 -0.24800
H 	H 	0.33970 0.30910 0.22930 0.13200
O 	O 	0.56900 0.09420 0.03781 -0.43000
O 	O 	0.75320 0.19050 0.06830 -0.29500
C 	C 	0.48420 0.19300 0.20420 0.24800
C 	C 	0.55890 0.15480 0.16140 -0.19500
H 	H 	0.62100 0.09270 0.16430 0.09700
C 	C 	0.53900 0.21220 0.11310 0.05100
C 	C 	0.41470 0.36350 0.05860 0.37600
C 	C 	0.62820 0.16560 0.06930 0.28500
O 	O 	0.20260 0.08710 0.55600 -0.47900
C 	C 	0.05960 0.20000 0.60880 -0.14000
C 	C 	0.13260 0.16690 0.65260 0.14300
H 	H 	0.19910 0.10800 0.64960 -0.01700
O 	O 	0.99310 0.13700 0.52430 -0.28700
C 	C 	0.11150 0.21690 0.70020 -0.26500
H 	H 	0.16030 0.19090 0.72930 0.12800
O 	O 	0.93100 0.40580 0.53781 -0.36900
O 	O 	0.74680 0.30950 0.56830 -0.26400
C 	C 	0.01580 0.30700 0.70420 0.27600
C 	C 	0.94110 0.34520 0.66140 -0.22100
H 	H 	0.87900 0.40730 0.66430 0.13200
C 	C 	0.96100 0.28780 0.61310 0.06700
C 	C 	0.08530 0.13650 0.55860 0.39500
C 	C 	0.87180 0.33440 0.56930 0.27400
O 	O 	0.70260 0.58710 0.55600 -0.44000
C 	C 	0.55960 0.70000 0.60880 -0.13500
C 	C 	0.63260 0.66690 0.65260 0.14700
H 	H 	0.69910 0.60800 0.64960 0.00700
O 	O 	0.49310 0.63700 0.52430 -0.24200
C 	C 	0.61150 0.71690 0.70020 -0.25400
H 	H 	0.66030 0.69090 0.72930 0.14100
O 	O 	0.43100 0.90580 0.53781 -0.31300
O 	O 	0.24680 0.80950 0.56830 -0.22300
C 	C 	0.51580 0.80700 0.70420 0.27600
C 	C 	0.44110 0.84520 0.66140 -0.20500
H 	H 	0.37900 0.90730 0.66430 0.15800
C 	C 	0.46100 0.78780 0.61310 0.09300
C 	C 	0.58530 0.63650 0.55860 0.38300
C 	C 	0.37180 0.83440 0.56930 0.26600
O 	O 	0.20260 0.91290 0.44400 -0.39300
C 	C 	0.05960 0.80000 0.39120 -0.10400
C 	C 	0.13260 0.83310 0.34740 0.13300
H 	H 	0.19910 0.89200 0.35040 0.03700
O 	O 	0.99310 0.86300 0.47570 -0.22300
C 	C 	0.11150 0.78310 0.29980 -0.23900
H 	H 	0.16030 0.80910 0.27070 0.15000
O 	O 	0.93100 0.59420 0.46219 -0.36800
O 	O 	0.74680 0.69050 0.43170 -0.24000
C 	C 	0.01580 0.69300 0.29580 0.27500
C 	C 	0.94110 0.65480 0.33860 -0.20800
H 	H 	0.87900 0.59270 0.33570 0.12900
C 	C 	0.96100 0.71220 0.38690 0.06500
C 	C 	0.08530 0.86350 0.44140 0.38400
C 	C 	0.87180 0.66560 0.43070 0.27700
O 	O 	0.70260 0.41290 0.44400 -0.44500
C 	C 	0.55960 0.30000 0.39120 -0.12800
C 	C 	0.63260 0.33310 0.34740 0.12700
H 	H 	0.69910 0.39200 0.35040 0.01000
O 	O 	0.49310 0.36300 0.47570 -0.24700
C 	C 	0.61150 0.28310 0.29980 -0.24800
H 	H 	0.66030 0.30910 0.27070 0.12900
O 	O 	0.43100 0.09420 0.46219 -0.40400
O 	O 	0.24680 0.19050 0.43170 -0.26800
C 	C 	0.51580 0.19300 0.29580 0.24900
C 	C 	0.44110 0.15480 0.33860 -0.19600
H 	H 	0.37900 0.09270 0.33570 0.10000
C 	C 	0.46100 0.21220 0.38690 0.05700
C 	C 	0.58530 0.36350 0.44140 0.37600
C 	C 	0.37180 0.16560 0.43070 0.27800
O 	O 	0.79740 0.08710 0.94400 -0.44700
C 	C 	0.94040 0.20000 0.89120 -0.14600
C 	C 	0.86740 0.16690 0.84740 0.12900
H 	H 	0.80090 0.10800 0.85040 -0.01200
O 	O 	0.00690 0.13700 0.97570 -0.22700
C 	C 	0.88850 0.21690 0.79980 -0.24400
H 	H 	0.83970 0.19090 0.77070 0.11600
O 	O 	0.06900 0.40580 0.96219 -0.32800
O 	O 	0.25320 0.30950 0.93170 -0.24000
C 	C 	0.98420 0.30700 0.79580 0.22800
C 	C 	0.05890 0.34520 0.83860 -0.17900
H 	H 	0.12100 0.40730 0.83570 0.12300
C 	C 	0.03900 0.28780 0.88690 0.08300
C 	C 	0.91470 0.13650 0.94140 0.36200
C 	C 	0.12820 0.33440 0.93070 0.26700
O 	O 	0.29740 0.58710 0.94400 -0.41100
C 	C 	0.44040 0.70000 0.89120 -0.12800
C 	C 	0.36740 0.66690 0.84740 0.14600
H 	H 	0.30090 0.60800 0.85040 0.01200
O 	O 	0.50690 0.63700 0.97570 -0.21000
C 	C 	0.38850 0.71690 0.79980 -0.25000
H 	H 	0.33970 0.69090 0.77070 0.14200
O 	O 	0.56900 0.90580 0.96219 -0.28000
O 	O 	0.75320 0.80950 0.93170 -0.20900
C 	C 	0.48420 0.80700 0.79580 0.27600
C 	C 	0.55890 0.84520 0.83860 -0.20400
H 	H 	0.62100 0.90730 0.83570 0.15800
C 	C 	0.53900 0.78780 0.88690 0.09600
C 	C 	0.41470 0.63650 0.94140 0.38000
C 	C 	0.62820 0.83440 0.93070 0.26200
Zn	Zn	0.71314 0.00000 -0.00000 1.19000
Zn	Zn	0.21314 0.50000 -0.00000 1.22500
Zn	Zn	0.28686 -0.00000 0.50000 1.21400
Zn	Zn	0.78686 0.50000 0.50000 1.24700
O 	O 	0.00000 0.62680 0.25000 -0.26400
O 	O 	0.50000 0.12680 0.25000 -0.29900
O 	O 	0.00000 0.37320 0.75000 -0.26400
O 	O 	0.50000 0.87320 0.75000 -0.25600
