data_crystal

_cell_length_a 12.03000
_cell_length_b 12.85420
_cell_length_c 12.85420
_cell_angle_alpha 108.01100
_cell_angle_beta  106.13500
_cell_angle_gamma 106.13500

_symmetry_space_group_name_	'P 1'
_symmetry_space_group_name_H-M	'P 1'

loop_
_symmetry_equiv_pos_as_xyz
  x,y,z

loop_
_atom_site_label
_atom_site_type_symbol
_atom_site_fract_x
_atom_site_fract_y
_atom_site_fract_z
_atom_site_charge
Zn	Zn	0.99048 0.25481 0.48877 1.21700
Zn	Zn	0.50952 0.51123 0.74519 1.21900
Zn	Zn	0.75000 0.78027 0.21973 1.23900
H 	H 	0.68400 0.33540 0.18260 0.05600
H 	H 	0.80100 0.44990 0.91410 0.08500
H 	H 	0.97500 0.24040 0.24160 -0.01100
H 	H 	0.91900 0.48510 0.61290 0.02700
H 	H 	0.96200 0.23970 0.70630 -0.01000
H 	H 	0.77000 0.41780 0.07420 0.09200
H 	H 	0.74900 0.31900 0.38100 0.02600
H 	H 	0.86800 0.50440 0.79360 0.04500
H 	H 	0.93000 0.18800 0.03600 0.07500
H 	H 	0.97400 0.22600 0.88000 0.06800
H 	H 	0.81600 0.81740 0.66460 0.05600
H 	H 	0.69900 0.08590 0.55010 0.08700
H 	H 	0.52500 0.75840 0.75960 -0.00900
H 	H 	0.58100 0.38710 0.51490 0.02700
H 	H 	0.53800 0.29370 0.76030 -0.00900
H 	H 	0.73000 0.92580 0.58220 0.08900
H 	H 	0.75100 0.61900 0.68100 0.02600
H 	H 	0.63200 0.20640 0.49560 0.04400
H 	H 	0.57000 0.96400 0.81200 0.07400
H 	H 	0.52600 0.12000 0.77400 0.07200
C 	C 	0.91890 0.44108 0.65892 0.02100
C 	C 	0.94490 0.30295 0.70885 0.11500
C 	C 	0.75160 0.31370 0.22150 -0.00000
C 	C 	0.82810 0.00849 0.38591 0.23400
C 	C 	0.84680 0.29985 0.06975 0.10800
C 	C 	0.92780 0.01217 0.33063 0.19100
C 	C 	0.90970 0.26069 0.24951 0.11100
C 	C 	0.88880 0.34261 0.88439 0.09000
C 	C 	0.80730 0.37762 0.03478 -0.08700
C 	C 	0.92920 0.26305 0.91935 -0.05400
C 	C 	0.90610 0.24081 0.01179 -0.09700
C 	C 	0.82760 0.39852 0.94108 -0.06500
C 	C 	0.89390 0.45487 0.75633 -0.00800
C 	C 	0.78360 0.30380 0.32500 0.01500
C 	C 	0.58110 0.34108 0.55892 0.02100
C 	C 	0.55510 0.29115 0.69705 0.11500
C 	C 	0.74840 0.77850 0.68630 0.00000
C 	C 	0.67190 0.61409 0.99151 0.23400
C 	C 	0.65320 0.93025 0.70015 0.10400
C 	C 	0.57220 0.66937 0.98783 0.21000
C 	C 	0.59030 0.75049 0.73931 0.11100
C 	C 	0.61120 0.11561 0.65739 0.09500
C 	C 	0.69270 0.96522 0.62238 -0.07800
C 	C 	0.57080 0.08065 0.73695 -0.05900
C 	C 	0.59390 0.98821 0.75919 -0.09100
C 	C 	0.67240 0.05892 0.60148 -0.07400
C 	C 	0.60610 0.24367 0.54513 -0.00800
C 	C 	0.71640 0.67500 0.69620 0.01500
C 	C 	0.25000 0.34340 0.65660 0.20500
C 	C 	0.25000 0.41770 0.58230 0.24500
N 	N 	0.95170 0.34544 0.62936 -0.24600
N 	N 	0.88330 0.27029 0.34331 -0.25000
N 	N 	0.83370 0.28635 0.17265 -0.14000
N 	N 	0.90970 0.36559 0.78801 -0.13200
N 	N 	0.54830 0.37064 0.65456 -0.24500
N 	N 	0.61670 0.65669 0.72971 -0.25000
N 	N 	0.66630 0.82735 0.71365 -0.13900
N 	N 	0.59030 0.21199 0.63441 -0.13300
O 	O 	0.90980 0.91628 0.25004 -0.36200
O 	O 	0.73570 0.91176 0.34380 -0.38100
O 	O 	0.84870 0.10217 0.46737 -0.38900
O 	O 	0.01630 0.10992 0.36962 -0.34400
O 	O 	0.59020 0.74996 0.08372 -0.37300
O 	O 	0.76430 0.65620 0.08824 -0.38400
O 	O 	0.65130 0.53263 0.89783 -0.38700
O 	O 	0.48370 0.63038 0.89008 -0.35600
O 	O 	0.14750 0.38958 0.50104 -0.39000
O 	O 	0.14900 0.26085 0.63131 -0.45400
O 	O 	0.35250 0.49896 0.61042 -0.39100
O 	O 	0.35100 0.36869 0.73915 -0.45600
Zn	Zn	0.00952 0.74519 0.51123 1.21600
Zn	Zn	0.49048 0.48877 0.25481 1.21800
Zn	Zn	0.25000 0.21973 0.78027 1.23800
H 	H 	0.31600 0.66460 0.81740 0.05500
H 	H 	0.19900 0.55010 0.08590 0.08500
H 	H 	0.02500 0.75960 0.75840 -0.01100
H 	H 	0.08100 0.51490 0.38710 0.02700
H 	H 	0.03800 0.76030 0.29370 -0.01000
H 	H 	0.23000 0.58220 0.92580 0.09200
H 	H 	0.25100 0.68100 0.61900 0.02600
H 	H 	0.13200 0.49560 0.20640 0.04500
H 	H 	0.07000 0.81200 0.96400 0.07500
H 	H 	0.02600 0.77400 0.12000 0.06800
H 	H 	0.18400 0.18260 0.33540 0.05600
H 	H 	0.30100 0.91410 0.44990 0.08700
H 	H 	0.47500 0.24160 0.24040 -0.00900
H 	H 	0.41900 0.61290 0.48510 0.02700
H 	H 	0.46200 0.70630 0.23970 -0.00900
H 	H 	0.27000 0.07420 0.41780 0.08900
H 	H 	0.24900 0.38100 0.31900 0.02600
H 	H 	0.36800 0.79360 0.50440 0.04400
H 	H 	0.43000 0.03600 0.18800 0.07400
H 	H 	0.47400 0.88000 0.22600 0.07200
C 	C 	0.08110 0.55892 0.34108 0.02100
C 	C 	0.05510 0.69705 0.29115 0.11500
C 	C 	0.24840 0.68630 0.77850 -0.00000
C 	C 	0.17190 0.99151 0.61409 0.23400
C 	C 	0.15320 0.70015 0.93025 0.10800
C 	C 	0.07220 0.98783 0.66937 0.19100
C 	C 	0.09030 0.73931 0.75049 0.11100
C 	C 	0.11120 0.65739 0.11561 0.09000
C 	C 	0.19270 0.62238 0.96522 -0.08700
C 	C 	0.07080 0.73695 0.08065 -0.05400
C 	C 	0.09390 0.75919 0.98821 -0.09700
C 	C 	0.17240 0.60148 0.05892 -0.06500
C 	C 	0.10610 0.54513 0.24367 -0.00800
C 	C 	0.21640 0.69620 0.67500 0.01500
C 	C 	0.41890 0.65892 0.44108 0.02100
C 	C 	0.44490 0.70885 0.30295 0.11500
C 	C 	0.25160 0.22150 0.31370 0.00000
C 	C 	0.32810 0.38591 0.00849 0.23400
C 	C 	0.34680 0.06975 0.29985 0.10400
C 	C 	0.42780 0.33063 0.01217 0.21000
C 	C 	0.40970 0.24951 0.26069 0.11100
C 	C 	0.38880 0.88439 0.34261 0.09500
C 	C 	0.30730 0.03478 0.37762 -0.07800
C 	C 	0.42920 0.91935 0.26305 -0.05900
C 	C 	0.40610 0.01179 0.24081 -0.09100
C 	C 	0.32760 0.94108 0.39852 -0.07400
C 	C 	0.39390 0.75633 0.45487 -0.00800
C 	C 	0.28360 0.32500 0.30380 0.01500
C 	C 	0.75000 0.65660 0.34340 0.20500
C 	C 	0.75000 0.58230 0.41770 0.24500
N 	N 	0.04830 0.65456 0.37064 -0.24600
N 	N 	0.11670 0.72971 0.65669 -0.25000
N 	N 	0.16630 0.71365 0.82735 -0.14000
N 	N 	0.09030 0.63441 0.21199 -0.13200
N 	N 	0.45170 0.62936 0.34544 -0.24500
N 	N 	0.38330 0.34331 0.27029 -0.25000
N 	N 	0.33370 0.17265 0.28635 -0.13900
N 	N 	0.40970 0.78801 0.36559 -0.13300
O 	O 	0.85250 0.61042 0.49896 -0.39000
O 	O 	0.85100 0.73915 0.36869 -0.45400
O 	O 	0.64750 0.50104 0.38958 -0.39100
O 	O 	0.64900 0.63131 0.26085 -0.45600
O 	O 	0.09020 0.08372 0.74996 -0.36200
O 	O 	0.26430 0.08824 0.65620 -0.38100
O 	O 	0.15130 0.89783 0.53263 -0.38900
O 	O 	0.98370 0.89008 0.63038 -0.34400
O 	O 	0.40980 0.25004 0.91628 -0.37300
O 	O 	0.23570 0.34380 0.91176 -0.38400
O 	O 	0.34870 0.46737 0.10217 -0.38700
O 	O 	0.51630 0.36962 0.10992 -0.35600
