data_crystal

_cell_length_a 13.61470
_cell_length_b 17.83960
_cell_length_c 20.18200
_cell_angle_alpha 90.00000
_cell_angle_beta  94.42500
_cell_angle_gamma 90.00000

_symmetry_space_group_name_	'P 1'
_symmetry_space_group_name_H-M	'P 1'

loop_
_symmetry_equiv_pos_as_xyz
  x,y,z

loop_
_atom_site_label
_atom_site_type_symbol
_atom_site_fract_x
_atom_site_fract_y
_atom_site_fract_z
_atom_site_charge
C 	C 	0.58830 0.50870 0.66190 -0.32600
C 	C 	0.58630 0.47110 0.72210 0.14100
H 	H 	0.63100 0.43240 0.73160 -0.02400
C 	C 	0.52070 0.48910 0.76800 -0.14200
H 	H 	0.52210 0.46320 0.80810 0.09000
C 	C 	0.45290 0.54550 0.75490 0.02800
C 	C 	0.44810 0.58020 0.69340 -0.14600
H 	H 	0.39930 0.61560 0.68260 0.08600
C 	C 	0.51610 0.56250 0.64780 0.14300
H 	H 	0.51310 0.58720 0.60720 -0.02400
C 	C 	0.67740 0.40690 0.55790 -0.33800
C 	C 	0.59230 0.36540 0.55530 0.15600
H 	H 	0.54550 0.37600 0.58510 -0.03300
C 	C 	0.57400 0.30800 0.50950 -0.16300
H 	H 	0.51550 0.28090 0.50900 0.09800
C 	C 	0.64240 0.29110 0.46470 0.04100
C 	C 	0.72880 0.33130 0.46810 -0.16100
H 	H 	0.77690 0.31970 0.43940 0.09400
C 	C 	0.74500 0.38820 0.51330 0.16000
H 	H 	0.80350 0.41510 0.51380 -0.03100
C 	C 	0.70700 0.57240 0.55200 -0.33800
C 	C 	0.67360 0.56840 0.48560 0.15800
H 	H 	0.63940 0.52590 0.47040 -0.03300
C 	C 	0.68920 0.62540 0.44120 -0.16200
H 	H 	0.66560 0.62050 0.39700 0.09700
C 	C 	0.73960 0.68940 0.46190 0.04600
C 	C 	0.77090 0.69530 0.52860 -0.16100
H 	H 	0.80360 0.73830 0.54420 0.10500
C 	C 	0.75390 0.63780 0.57220 0.15800
H 	H 	0.77490 0.64350 0.61690 -0.03300
C 	C 	0.80230 0.48990 0.67440 -0.29900
C 	C 	0.87990 0.44000 0.67360 0.11300
H 	H 	0.88230 0.40700 0.63810 -0.00800
C 	C 	0.95470 0.43770 0.72470 -0.09400
H 	H 	0.00610 0.40370 0.72280 0.06600
C 	C 	0.95280 0.48590 0.77850 0.00900
C 	C 	0.87650 0.53680 0.77970 -0.12500
H 	H 	0.87480 0.57010 0.81510 0.07000
C 	C 	0.80250 0.53860 0.72860 0.11200
H 	H 	0.75170 0.57320 0.73040 -0.01500
C 	C 	0.02470 0.75340 0.34490 0.06100
H 	H 	0.98860 0.75490 0.38220 0.04000
C 	C 	0.05750 0.74700 0.24500 0.09000
H 	H 	0.05310 0.74360 0.19890 0.01100
C 	C 	0.24160 0.74760 0.26660 0.16000
C 	C 	0.26290 0.71980 0.20630 -0.18200
H 	H 	0.21240 0.70480 0.17550 0.10100
C 	C 	0.36020 0.71420 0.19150 0.05800
H 	H 	0.37500 0.69610 0.15020 0.01300
C 	C 	0.43570 0.73520 0.23760 -0.10100
C 	C 	0.41240 0.76320 0.29760 0.05600
H 	H 	0.46270 0.77880 0.32840 -0.00400
C 	C 	0.31630 0.76880 0.31320 -0.17700
H 	H 	0.30160 0.78670 0.35460 0.10200
C 	C 	0.53850 0.72340 0.22260 0.13900
Cu	Cu	0.75358 0.08141 0.37155 0.89900
Cu	Cu	0.83686 0.74387 0.25515 0.90700
Cu	Cu	0.64720 0.85727 0.30268 0.91200
N 	N 	0.98200 0.74820 0.28196 -0.20500
N 	N 	0.12030 0.75600 0.34850 -0.08800
N 	N 	0.14150 0.75150 0.28370 -0.12100
N 	N 	0.61750 0.75870 0.25023 -0.18900
N 	N 	0.69500 0.72500 0.22579 -0.14900
N 	N 	0.66330 0.67220 0.18380 -0.11600
N 	N 	0.56530 0.67060 0.18100 -0.10900
O 	O 	0.42370 0.58320 0.88191 -0.27400
O 	O 	0.30460 0.49730 0.81920 -0.39200
O 	O 	0.30520 0.63333 0.78902 -0.41100
O 	O 	0.51880 0.18815 0.41017 -0.22800
O 	O 	0.63660 0.25052 0.33784 -0.39000
O 	O 	0.70060 0.15661 0.42752 -0.38900
O 	O 	0.81050 0.71736 0.34574 -0.38700
O 	O 	0.67470 0.80180 0.38371 -0.38500
O 	O 	0.84720 0.80790 0.44091 -0.45400
H 	H 	0.86150 0.84320 0.41750 0.29300
O 	O 	0.12520 0.43089 0.82348 -0.37800
O 	O 	0.08610 0.56584 0.85412 -0.40500
O 	O 	0.00490 0.46010 0.90833 -0.38400
P 	P 	0.36771 0.56755 0.81539 0.40100
P 	P 	0.62658 0.21710 0.40484 0.40300
P 	P 	0.76749 0.75821 0.40210 0.43300
P 	P 	0.04901 0.48617 0.84480 0.40600
Si	Si	0.69393 0.49293 0.61050 0.85700
C 	C 	0.68160 0.97810 0.21120 0.12700
C 	C 	0.57060 0.90760 0.16570 0.04500
N 	N 	0.66140 0.01010 0.15420 -0.13400
C 	C 	0.55230 0.05330 0.03630 -0.18900
H 	H 	0.58830 0.08920 0.06130 0.11000
C 	C 	0.54300 0.98190 0.06120 0.11900
C 	C 	0.49110 0.92850 0.02480 -0.17300
H 	H 	0.48530 0.88030 0.04160 0.09200
C 	C 	0.59040 0.96430 0.12450 -0.00300
N 	N 	0.62820 0.91610 0.21920 -0.22600
C 	C 	0.91170 0.00870 0.83810 -0.35200
C 	C 	0.91370 0.97110 0.77790 0.15400
H 	H 	0.86900 0.93240 0.76840 -0.02700
C 	C 	0.97930 0.98910 0.73200 -0.12300
H 	H 	0.97790 0.96320 0.69190 0.08800
C 	C 	0.04710 0.04550 0.74510 0.01200
C 	C 	0.05190 0.08020 0.80660 -0.16400
H 	H 	0.10070 0.11560 0.81740 0.09100
C 	C 	0.98390 0.06250 0.85220 0.16900
H 	H 	0.98690 0.08720 0.89280 -0.02800
C 	C 	0.82260 0.90690 0.94210 -0.34800
C 	C 	0.90770 0.86540 0.94470 0.16200
H 	H 	0.95450 0.87600 0.91490 -0.03100
C 	C 	0.92600 0.80800 0.99050 -0.15300
H 	H 	0.98450 0.78090 0.99100 0.10000
C 	C 	0.85760 0.79110 0.03530 0.03800
C 	C 	0.77120 0.83130 0.03190 -0.18300
H 	H 	0.72310 0.81970 0.06060 0.09800
C 	C 	0.75500 0.88820 0.98670 0.18700
H 	H 	0.69650 0.91510 0.98620 -0.03600
C 	C 	0.79300 0.07240 0.94800 -0.32100
C 	C 	0.82640 0.06840 0.01440 0.12500
H 	H 	0.86060 0.02590 0.02960 -0.02700
C 	C 	0.81080 0.12540 0.05880 -0.13600
H 	H 	0.83440 0.12050 0.10300 0.08900
C 	C 	0.76040 0.18940 0.03810 0.01600
C 	C 	0.72910 0.19530 0.97140 -0.12200
H 	H 	0.69640 0.23830 0.95580 0.09600
C 	C 	0.74610 0.13780 0.92780 0.13700
H 	H 	0.72510 0.14350 0.88310 -0.02700
C 	C 	0.69770 0.98990 0.82560 -0.30400
C 	C 	0.62010 0.94000 0.82640 0.13300
H 	H 	0.61770 0.90700 0.86190 -0.01600
C 	C 	0.54530 0.93770 0.77530 -0.12700
H 	H 	0.49390 0.90370 0.77720 0.08500
C 	C 	0.54720 0.98590 0.72150 0.02500
C 	C 	0.62350 0.03680 0.72030 -0.14600
H 	H 	0.62520 0.07010 0.68490 0.07200
C 	C 	0.69750 0.03860 0.77140 0.11300
H 	H 	0.74830 0.07320 0.76960 -0.01700
C 	C 	0.47530 0.25340 0.15510 0.09300
H 	H 	0.51140 0.25490 0.11780 0.02000
C 	C 	0.44250 0.24700 0.25500 0.10300
H 	H 	0.44690 0.24360 0.30110 0.01100
C 	C 	0.25840 0.24760 0.23340 0.16900
C 	C 	0.23710 0.21980 0.29370 -0.19500
H 	H 	0.28760 0.20480 0.32450 0.10700
C 	C 	0.13980 0.21420 0.30850 0.07400
H 	H 	0.12500 0.19610 0.34980 0.00600
C 	C 	0.06430 0.23520 0.26240 -0.12600
C 	C 	0.08760 0.26320 0.20240 0.07200
H 	H 	0.03730 0.27880 0.17160 -0.01500
C 	C 	0.18370 0.26880 0.18680 -0.19000
H 	H 	0.19840 0.28670 0.14540 0.10400
C 	C 	0.96150 0.22340 0.27740 0.15800
Cu	Cu	0.74642 0.58141 0.12845 0.89900
Cu	Cu	0.66314 0.24387 0.24485 0.90700
Cu	Cu	0.85280 0.35727 0.19732 0.91300
N 	N 	0.51800 0.24820 0.21804 -0.22000
N 	N 	0.37970 0.25600 0.15150 -0.09400
N 	N 	0.35850 0.25150 0.21630 -0.12400
N 	N 	0.88250 0.25870 0.24977 -0.19100
N 	N 	0.80500 0.22500 0.27421 -0.14800
N 	N 	0.83670 0.17220 0.31620 -0.11500
N 	N 	0.93470 0.17060 0.31900 -0.10800
O 	O 	0.07630 0.08320 0.61809 -0.28300
O 	O 	0.19540 0.99730 0.68080 -0.38300
O 	O 	0.19480 0.13333 0.71098 -0.41100
O 	O 	0.98120 0.68815 0.08983 -0.22500
O 	O 	0.86340 0.75052 0.16216 -0.38800
O 	O 	0.79940 0.65661 0.07248 -0.39100
O 	O 	0.68950 0.21736 0.15426 -0.38900
O 	O 	0.82530 0.30180 0.11629 -0.38400
O 	O 	0.65280 0.30790 0.05909 -0.46100
H 	H 	0.63850 0.34320 0.08250 0.29300
O 	O 	0.37480 0.93089 0.67652 -0.37700
O 	O 	0.41390 0.06584 0.64588 -0.41200
O 	O 	0.49510 0.96010 0.59167 -0.38200
P 	P 	0.13229 0.06755 0.68461 0.39400
P 	P 	0.87342 0.71710 0.09516 0.40300
P 	P 	0.73251 0.25821 0.09790 0.43800
P 	P 	0.45099 0.98617 0.65520 0.41600
Si	Si	0.80607 0.99293 0.88950 0.88500
C 	C 	0.81840 0.47810 0.28880 0.11300
C 	C 	0.92940 0.40760 0.33430 0.04700
N 	N 	0.83860 0.51010 0.34580 -0.12300
C 	C 	0.94770 0.55330 0.46370 -0.10500
H 	H 	0.91170 0.58920 0.43870 0.08600
C 	C 	0.95700 0.48190 0.43880 0.07300
C 	C 	0.00890 0.42850 0.47520 -0.11800
H 	H 	0.01470 0.38030 0.45840 0.07100
C 	C 	0.90960 0.46430 0.37550 0.00500
N 	N 	0.87180 0.41610 0.28080 -0.22400
C 	C 	0.41170 0.49130 0.33810 -0.32800
C 	C 	0.41370 0.52890 0.27790 0.14000
H 	H 	0.36900 0.56760 0.26840 -0.02400
C 	C 	0.47930 0.51090 0.23200 -0.14300
H 	H 	0.47790 0.53680 0.19190 0.08800
C 	C 	0.54710 0.45450 0.24510 0.02800
C 	C 	0.55190 0.41980 0.30660 -0.14600
H 	H 	0.60070 0.38440 0.31740 0.08600
C 	C 	0.48390 0.43750 0.35220 0.14400
H 	H 	0.48690 0.41280 0.39280 -0.02400
C 	C 	0.32260 0.59310 0.44210 -0.34100
C 	C 	0.40770 0.63460 0.44470 0.15900
H 	H 	0.45450 0.62400 0.41490 -0.03300
C 	C 	0.42600 0.69200 0.49050 -0.16500
H 	H 	0.48450 0.71910 0.49100 0.09900
C 	C 	0.35760 0.70890 0.53530 0.04200
C 	C 	0.27120 0.66870 0.53190 -0.16400
H 	H 	0.22310 0.68030 0.56060 0.09300
C 	C 	0.25500 0.61180 0.48670 0.16300
H 	H 	0.19650 0.58490 0.48620 -0.03400
C 	C 	0.29300 0.42760 0.44800 -0.34100
C 	C 	0.32640 0.43160 0.51440 0.15900
H 	H 	0.36060 0.47410 0.52960 -0.03400
C 	C 	0.31080 0.37460 0.55880 -0.16200
H 	H 	0.33440 0.37950 0.60300 0.09800
C 	C 	0.26040 0.31060 0.53810 0.04600
C 	C 	0.22910 0.30470 0.47140 -0.16200
H 	H 	0.19640 0.26170 0.45580 0.10300
C 	C 	0.24610 0.36220 0.42780 0.15800
H 	H 	0.22510 0.35650 0.38310 -0.03400
C 	C 	0.19770 0.51010 0.32560 -0.31400
C 	C 	0.12010 0.56000 0.32640 0.14300
H 	H 	0.11770 0.59300 0.36190 -0.02300
C 	C 	0.04530 0.56230 0.27530 -0.15200
H 	H 	0.99390 0.59630 0.27720 0.10100
C 	C 	0.04720 0.51410 0.22150 0.01100
C 	C 	0.12350 0.46320 0.22030 -0.13600
H 	H 	0.12520 0.42990 0.18490 0.06800
C 	C 	0.19750 0.46140 0.27140 0.12200
H 	H 	0.24830 0.42680 0.26960 -0.01900
C 	C 	0.97530 0.24660 0.65510 0.12700
H 	H 	0.01140 0.24510 0.61780 0.00300
C 	C 	0.94250 0.25300 0.75500 0.11400
H 	H 	0.94690 0.25640 0.80110 0.01100
C 	C 	0.75840 0.25240 0.73340 0.16300
C 	C 	0.73710 0.28020 0.79370 -0.18500
H 	H 	0.78760 0.29520 0.82450 0.10600
C 	C 	0.63980 0.28580 0.80850 0.05900
H 	H 	0.62500 0.30390 0.84980 0.01600
C 	C 	0.56430 0.26480 0.76240 -0.10100
C 	C 	0.58760 0.23680 0.70240 0.05700
H 	H 	0.53730 0.22120 0.67160 -0.00500
C 	C 	0.68370 0.23120 0.68680 -0.17900
H 	H 	0.69840 0.21330 0.64540 0.10200
C 	C 	0.46150 0.27660 0.77740 0.14100
Cu	Cu	0.24642 0.91859 0.62845 0.90000
Cu	Cu	0.16314 0.25613 0.74485 0.90700
Cu	Cu	0.35280 0.14273 0.69732 0.91100
N 	N 	0.01800 0.25180 0.71804 -0.23500
N 	N 	0.87970 0.24400 0.65150 -0.09700
N 	N 	0.85850 0.24850 0.71630 -0.12500
N 	N 	0.38250 0.24130 0.74977 -0.18900
N 	N 	0.30500 0.27500 0.77421 -0.14800
N 	N 	0.33670 0.32780 0.81620 -0.11500
N 	N 	0.43470 0.32940 0.81900 -0.10700
O 	O 	0.57630 0.41680 0.11809 -0.27900
O 	O 	0.69540 0.50270 0.18080 -0.39300
O 	O 	0.69480 0.36667 0.21098 -0.41100
O 	O 	0.48120 0.81185 0.58983 -0.22700
O 	O 	0.36340 0.74948 0.66216 -0.39000
O 	O 	0.29940 0.84339 0.57248 -0.38900
O 	O 	0.18950 0.28264 0.65426 -0.38700
O 	O 	0.32530 0.19820 0.61629 -0.38600
O 	O 	0.15280 0.19210 0.55909 -0.45700
H 	H 	0.13850 0.15680 0.58250 0.29200
O 	O 	0.87480 0.56911 0.17652 -0.37800
O 	O 	0.91390 0.43416 0.14588 -0.40200
O 	O 	0.99510 0.53990 0.09167 -0.38200
P 	P 	0.63229 0.43245 0.18461 0.40100
P 	P 	0.37342 0.78290 0.59516 0.40200
P 	P 	0.23251 0.24179 0.59790 0.43300
P 	P 	0.95099 0.51383 0.15520 0.41400
Si	Si	0.30607 0.50707 0.38950 0.86300
C 	C 	0.31840 0.02190 0.78880 0.09800
C 	C 	0.42940 0.09240 0.83430 0.02500
N 	N 	0.33860 0.98990 0.84580 -0.12000
C 	C 	0.44770 0.94670 0.96370 0.06400
H 	H 	0.41170 0.91080 0.93870 0.03000
C 	C 	0.45700 0.01810 0.93880 -0.07100
C 	C 	0.50890 0.07150 0.97520 0.06200
H 	H 	0.51470 0.11970 0.95840 0.01600
C 	C 	0.40960 0.03570 0.87550 0.04800
N 	N 	0.37180 0.08390 0.78080 -0.22100
C 	C 	0.08830 0.99130 0.16190 -0.28400
C 	C 	0.08630 0.02890 0.22210 0.11000
H 	H 	0.13100 0.06760 0.23160 -0.01600
C 	C 	0.02070 0.01090 0.26800 -0.16000
H 	H 	0.02210 0.03680 0.30810 0.08800
C 	C 	0.95290 0.95450 0.25490 0.04300
C 	C 	0.94810 0.91980 0.19340 -0.12000
H 	H 	0.89930 0.88440 0.18260 0.07900
C 	C 	0.01610 0.93750 0.14780 0.10700
H 	H 	0.01310 0.91280 0.10720 -0.01600
C 	C 	0.17740 0.09310 0.05790 -0.32200
C 	C 	0.09230 0.13460 0.05530 0.14800
H 	H 	0.04550 0.12400 0.08510 -0.03500
C 	C 	0.07400 0.19200 0.00950 -0.18000
H 	H 	0.01550 0.21910 0.00900 0.09500
C 	C 	0.14240 0.20890 0.96470 0.04800
C 	C 	0.22880 0.16870 0.96810 -0.13100
H 	H 	0.27690 0.18030 0.93940 0.08500
C 	C 	0.24500 0.11180 0.01330 0.12200
H 	H 	0.30350 0.08490 0.01380 -0.02600
C 	C 	0.20700 0.92760 0.05200 -0.34400
C 	C 	0.17360 0.93160 0.98560 0.18400
H 	H 	0.13940 0.97410 0.97040 -0.03400
C 	C 	0.18920 0.87460 0.94120 -0.18100
H 	H 	0.16560 0.87950 0.89700 0.10400
C 	C 	0.23960 0.81060 0.96190 0.07200
C 	C 	0.27090 0.80470 0.02860 -0.19400
H 	H 	0.30360 0.76170 0.04420 0.11100
C 	C 	0.25390 0.86220 0.07220 0.17000
H 	H 	0.27490 0.85650 0.11690 -0.03600
C 	C 	0.30230 0.01010 0.17440 -0.30600
C 	C 	0.37990 0.06000 0.17360 0.11800
H 	H 	0.38230 0.09300 0.13810 -0.01300
C 	C 	0.45470 0.06230 0.22470 -0.11400
H 	H 	0.50610 0.09630 0.22280 0.07900
C 	C 	0.45280 0.01410 0.27850 -0.00700
C 	C 	0.37650 0.96320 0.27970 -0.11200
H 	H 	0.37480 0.92990 0.31510 0.06500
C 	C 	0.30250 0.96140 0.22860 0.12200
H 	H 	0.25170 0.92680 0.23040 -0.01600
C 	C 	0.52470 0.74660 0.84490 0.09400
H 	H 	0.48860 0.74510 0.88220 0.02300
C 	C 	0.55750 0.75300 0.74500 0.10200
H 	H 	0.55310 0.75640 0.69890 0.01200
C 	C 	0.74160 0.75240 0.76660 0.15600
C 	C 	0.76290 0.78020 0.70630 -0.17500
H 	H 	0.71240 0.79520 0.67550 0.10100
C 	C 	0.86020 0.78580 0.69150 0.04800
H 	H 	0.87500 0.80390 0.65020 0.02100
C 	C 	0.93570 0.76480 0.73760 -0.08300
C 	C 	0.91240 0.73680 0.79760 0.04500
H 	H 	0.96270 0.72120 0.82840 0.00300
C 	C 	0.81630 0.73120 0.81320 -0.17000
H 	H 	0.80160 0.71330 0.85460 0.10100
C 	C 	0.03850 0.77660 0.72260 0.12700
Cu	Cu	0.25358 0.41859 0.87155 0.90000
Cu	Cu	0.33686 0.75613 0.75515 0.90700
Cu	Cu	0.14720 0.64273 0.80268 0.91100
N 	N 	0.48200 0.75180 0.78196 -0.22000
N 	N 	0.62030 0.74400 0.84850 -0.09200
N 	N 	0.64150 0.74850 0.78370 -0.12200
N 	N 	0.11750 0.74130 0.75023 -0.18800
N 	N 	0.19500 0.77500 0.72579 -0.14800
N 	N 	0.16330 0.82780 0.68380 -0.11500
N 	N 	0.06530 0.82940 0.68100 -0.10800
O 	O 	0.92370 0.91680 0.38191 -0.27000
O 	O 	0.80460 0.00270 0.31920 -0.40100
O 	O 	0.80520 0.86667 0.28902 -0.41200
O 	O 	0.01880 0.31185 0.91017 -0.22700
O 	O 	0.13660 0.24948 0.83784 -0.39100
O 	O 	0.20060 0.34339 0.92752 -0.38600
O 	O 	0.31050 0.78264 0.84574 -0.38500
O 	O 	0.17470 0.69820 0.88371 -0.38500
O 	O 	0.34720 0.69210 0.94091 -0.45100
H 	H 	0.36150 0.65680 0.91750 0.29200
O 	O 	0.62520 0.06911 0.32348 -0.37900
O 	O 	0.58610 0.93416 0.35412 -0.39600
O 	O 	0.50490 0.03990 0.40833 -0.38800
P 	P 	0.86771 0.93245 0.31539 0.40800
P 	P 	0.12658 0.28290 0.90484 0.40300
P 	P 	0.26749 0.74179 0.90210 0.42900
P 	P 	0.54901 0.01383 0.34480 0.40300
Si	Si	0.19393 0.00707 0.11050 0.81200
C 	C 	0.18160 0.52190 0.71120 0.11100
C 	C 	0.07060 0.59240 0.66570 0.02400
N 	N 	0.16140 0.48990 0.65420 -0.12900
C 	C 	0.05230 0.44670 0.53630 -0.01000
H 	H 	0.08830 0.41080 0.56130 0.05100
C 	C 	0.04300 0.51810 0.56120 -0.02800
C 	C 	0.99110 0.57150 0.52480 0.00000
H 	H 	0.98530 0.61970 0.54160 0.03800
C 	C 	0.09040 0.53570 0.62450 0.03900
N 	N 	0.12820 0.58390 0.71920 -0.22300
Cu	Cu	-0.00000 0.50000 -0.00000 0.83300
Cu	Cu	0.50000 0.00000 0.50000 0.84000
