data_crystal

_cell_length_a 8.56920
_cell_length_b 8.56920
_cell_length_c 14.62100
_cell_angle_alpha 90.68700
_cell_angle_beta  90.68700
_cell_angle_gamma 90.52480

_symmetry_space_group_name_	'P 1'
_symmetry_space_group_name_H-M	'P 1'

loop_
_symmetry_equiv_pos_as_xyz
  x,y,z

loop_
_atom_site_label
_atom_site_type_symbol
_atom_site_fract_x
_atom_site_fract_y
_atom_site_fract_z
_atom_site_charge
Cd	Cd	0.49348 0.50652 0.75000 1.16200
Cd	Cd	0.50652 0.49348 0.25000 1.15700
Cd	Cd	-0.00000 0.50000 -0.00000 1.11100
Cd	Cd	0.50000 0.00000 0.50000 1.14000
H 	H 	0.09964 0.18670 0.95058 -0.03500
H 	H 	0.89203 0.18879 0.94639 0.03600
H 	H 	0.99150 0.17400 0.05344 -0.02400
H 	H 	0.81330 0.90036 0.54942 0.10400
H 	H 	0.81121 0.10797 0.55361 0.03000
H 	H 	0.82600 0.00850 0.44656 0.01900
H 	H 	0.90036 0.81330 0.04942 0.08500
H 	H 	0.10797 0.81121 0.05361 0.01400
H 	H 	0.00850 0.82600 0.94656 0.07900
H 	H 	0.18670 0.09964 0.45058 -0.05800
H 	H 	0.18879 0.89203 0.44639 0.01800
H 	H 	0.17400 0.99150 0.55344 0.03300
C 	C 	0.28590 0.50710 0.83640 -0.26800
C 	C 	0.49160 0.30100 0.65860 -0.28200
C 	C 	0.49290 0.71410 0.66360 -0.25200
C 	C 	0.69900 0.50840 0.84140 -0.24000
C 	C 	0.71410 0.49290 0.16360 -0.27500
C 	C 	0.50840 0.69900 0.34140 -0.26100
C 	C 	0.50710 0.28590 0.33640 -0.29100
C 	C 	0.30100 0.49160 0.15860 -0.30400
N 	N 	0.18350 0.51150 0.88390 -0.19200
N 	N 	0.19960 0.49020 0.10850 -0.23100
N 	N 	0.99510 0.22550 0.98570 -0.18200
N 	N 	0.48850 0.81650 0.61610 -0.17700
N 	N 	0.50980 0.80040 0.39150 -0.17700
N 	N 	0.77450 0.00490 0.51430 -0.34300
N 	N 	0.81650 0.48850 0.11610 -0.19000
N 	N 	0.80040 0.50980 0.89150 -0.15700
N 	N 	0.00490 0.77450 0.01430 -0.38900
N 	N 	0.51150 0.18350 0.38390 -0.21300
N 	N 	0.49020 0.19960 0.60850 -0.21700
N 	N 	0.22550 0.99510 0.48570 -0.23000
