data_crystal

_cell_length_a 12.19510
_cell_length_b 12.07800
_cell_length_c 14.69210
_cell_angle_alpha 90.00000
_cell_angle_beta  93.43600
_cell_angle_gamma 90.00000

_symmetry_space_group_name_	'P 1'
_symmetry_space_group_name_H-M	'P 1'

loop_
_symmetry_equiv_pos_as_xyz
  x,y,z

loop_
_atom_site_label
_atom_site_type_symbol
_atom_site_fract_x
_atom_site_fract_y
_atom_site_fract_z
_atom_site_charge
N 	N 	0.15660 0.31850 0.12280 -0.21500
N 	N 	0.85240 0.63220 0.10020 -0.22300
N 	N 	0.38410 0.38480 0.02360 -0.35500
C 	C 	0.10690 0.37060 0.17030 -0.34900
C 	C 	0.90200 0.57950 0.15190 -0.21300
H 	H 	0.34727 0.46646 0.01331 -0.01500
H 	H 	0.42023 0.37859 0.09309 0.01000
H 	H 	0.44777 0.37291 0.97559 0.10400
N 	N 	0.65660 0.81850 0.12280 -0.20900
N 	N 	0.35240 0.13220 0.10020 -0.22200
N 	N 	0.88410 0.88480 0.02360 -0.35600
C 	C 	0.60690 0.87060 0.17030 -0.28200
C 	C 	0.40200 0.07950 0.15190 -0.30300
H 	H 	0.84727 0.96646 0.01331 0.01500
H 	H 	0.92023 0.87859 0.09309 0.04300
H 	H 	0.94777 0.87291 0.97559 0.14100
N 	N 	0.84340 0.31850 0.37720 -0.20200
N 	N 	0.14760 0.63220 0.39980 -0.20100
N 	N 	0.61590 0.38480 0.47640 -0.29300
C 	C 	0.89310 0.37060 0.32970 -0.19900
C 	C 	0.09800 0.57950 0.34810 -0.33800
H 	H 	0.65273 0.46646 0.48669 0.02900
H 	H 	0.57977 0.37859 0.40691 0.02000
H 	H 	0.55223 0.37291 0.52441 0.02500
N 	N 	0.34340 0.81850 0.37720 -0.20300
N 	N 	0.64760 0.13220 0.39980 -0.19500
N 	N 	0.11590 0.88480 0.47640 -0.29200
C 	C 	0.39310 0.87060 0.32970 -0.28600
C 	C 	0.59800 0.07950 0.34810 -0.27100
H 	H 	0.15273 0.96646 0.48669 -0.00000
H 	H 	0.07977 0.87859 0.40691 -0.01200
H 	H 	0.05223 0.87291 0.52441 -0.01100
N 	N 	0.84340 0.68150 0.87720 -0.17800
N 	N 	0.14760 0.36780 0.89980 -0.17000
N 	N 	0.61590 0.61520 0.97640 -0.22700
C 	C 	0.89310 0.62940 0.82970 -0.17200
C 	C 	0.09800 0.42050 0.84810 -0.30700
H 	H 	0.65273 0.53354 0.98669 0.06200
H 	H 	0.57977 0.62141 0.90691 0.03800
H 	H 	0.55223 0.62709 0.02441 -0.05200
N 	N 	0.34340 0.18150 0.87720 -0.18000
N 	N 	0.64760 0.86780 0.89980 -0.16400
N 	N 	0.11590 0.11520 0.97640 -0.22700
C 	C 	0.39310 0.12940 0.82970 -0.26100
C 	C 	0.59800 0.92050 0.84810 -0.23700
H 	H 	0.15273 0.03354 0.98669 0.03100
H 	H 	0.07977 0.12141 0.90691 0.00400
H 	H 	0.05223 0.12709 0.02441 -0.08600
N 	N 	0.15660 0.68150 0.62280 -0.20000
N 	N 	0.85240 0.36780 0.60020 -0.19900
N 	N 	0.38410 0.61520 0.52360 -0.29500
C 	C 	0.10690 0.62940 0.67030 -0.31900
C 	C 	0.90200 0.42050 0.65190 -0.18200
H 	H 	0.34727 0.53354 0.51331 0.01600
H 	H 	0.42023 0.62141 0.59309 0.02600
H 	H 	0.44777 0.62709 0.47559 0.02600
N 	N 	0.65660 0.18150 0.62280 -0.19400
N 	N 	0.35240 0.86780 0.60020 -0.20000
N 	N 	0.88410 0.11520 0.52360 -0.29700
C 	C 	0.60690 0.12940 0.67030 -0.25600
C 	C 	0.40200 0.92050 0.65190 -0.26900
H 	H 	0.84727 0.03354 0.51331 0.04500
H 	H 	0.92023 0.12141 0.59309 0.05700
H 	H 	0.94777 0.12709 0.47559 0.06200
Cd	Cd	-0.00000 0.47577 0.25000 1.11200
Cd	Cd	0.50000 0.97577 0.25000 1.15600
Cd	Cd	-0.00000 0.52423 0.75000 1.11900
Cd	Cd	0.50000 0.02423 0.75000 1.16100
Cd	Cd	0.25000 0.25000 -0.00000 1.13100
Cd	Cd	0.75000 0.25000 0.50000 1.17700
Cd	Cd	0.75000 0.75000 -0.00000 1.14000
Cd	Cd	0.25000 0.75000 0.50000 1.16700
