data_crystal

_cell_length_a 8.17680
_cell_length_b 8.17680
_cell_length_c 15.83700
_cell_angle_alpha 91.38820
_cell_angle_beta  91.38820
_cell_angle_gamma 95.20280

_symmetry_space_group_name_	'P 1'
_symmetry_space_group_name_H-M	'P 1'

loop_
_symmetry_equiv_pos_as_xyz
  x,y,z

loop_
_atom_site_label
_atom_site_type_symbol
_atom_site_fract_x
_atom_site_fract_y
_atom_site_fract_z
_atom_site_charge
Cd	Cd	0.49269 0.51411 0.74956 1.15700
Cd	Cd	0.00367 0.49633 -0.00000 1.14500
Cd	Cd	0.51411 0.49269 0.24956 1.15500
Cd	Cd	0.49633 0.00367 0.50000 1.16000
H 	H 	0.81951 0.19611 0.95958 0.02600
H 	H 	0.00077 0.20807 0.89921 0.00500
H 	H 	0.14782 0.12218 0.01840 0.02700
H 	H 	0.96086 0.10046 0.07399 0.05500
H 	H 	0.04244 0.89928 0.92028 -0.05200
H 	H 	0.85541 0.87759 0.97581 -0.03100
H 	H 	0.00013 0.79093 0.09216 0.01600
H 	H 	0.17993 0.80107 0.03070 0.01500
H 	H 	0.19611 0.81951 0.45958 0.01600
H 	H 	0.20807 0.00077 0.39921 -0.00900
H 	H 	0.12218 0.14782 0.51840 0.02800
H 	H 	0.10046 0.96086 0.57399 0.05900
H 	H 	0.89928 0.04244 0.42028 -0.05800
H 	H 	0.87759 0.85541 0.47581 -0.03100
H 	H 	0.79093 0.00013 0.59216 0.01400
H 	H 	0.80107 0.17993 0.53070 0.02400
C 	C 	0.28670 0.50330 0.83820 -0.25600
C 	C 	0.72940 0.47980 0.16420 -0.25300
C 	C 	0.48110 0.30750 0.65310 -0.25900
C 	C 	0.69880 0.53060 0.84300 -0.25100
C 	C 	0.01620 0.08720 0.01250 -0.31000
C 	C 	0.98710 0.91250 0.98170 0.24900
C 	C 	0.50330 0.28670 0.33820 -0.27100
C 	C 	0.47980 0.72940 0.66420 -0.23800
C 	C 	0.30750 0.48110 0.15310 -0.26900
C 	C 	0.53060 0.69880 0.34300 -0.26000
C 	C 	0.08720 0.01620 0.51250 -0.22400
C 	C 	0.91250 0.98710 0.48170 0.16600
N 	N 	0.18440 0.50700 0.89070 -0.19300
N 	N 	0.81200 0.47860 0.11110 -0.19700
N 	N 	0.47160 0.21100 0.60120 -0.20400
N 	N 	0.79620 0.53440 0.89640 -0.17200
N 	N 	0.95330 0.21390 0.96280 -0.17500
N 	N 	0.04610 0.78630 0.02820 -0.32500
N 	N 	0.50700 0.18440 0.39070 -0.21000
N 	N 	0.47860 0.81200 0.61110 -0.18500
N 	N 	0.21100 0.47160 0.10120 -0.21000
N 	N 	0.53440 0.79620 0.39640 -0.18100
N 	N 	0.21390 0.95330 0.46280 -0.19800
N 	N 	0.78630 0.04610 0.52820 -0.29500
