data_crystal

_cell_length_a 17.25000
_cell_length_b 17.57000
_cell_length_c 16.79000
_cell_angle_alpha 90.00000
_cell_angle_beta  90.00000
_cell_angle_gamma 90.00000

_symmetry_space_group_name_	'P 1'
_symmetry_space_group_name_H-M	'P 1'

loop_
_symmetry_equiv_pos_as_xyz
  x,y,z

loop_
_atom_site_label
_atom_site_type_symbol
_atom_site_fract_x
_atom_site_fract_y
_atom_site_fract_z
_atom_site_charge
N 	N 	0.19320 0.29510 0.36580 -0.27900
C 	C 	0.20870 0.27840 0.29970 0.18800
N 	N 	0.69320 0.79510 0.86580 -0.25500
C 	C 	0.70870 0.77840 0.79970 0.20900
N 	N 	0.80680 0.70490 0.36580 -0.27900
C 	C 	0.79130 0.72160 0.29970 0.18800
N 	N 	0.30680 0.20490 0.86580 -0.25600
C 	C 	0.29130 0.22160 0.79970 0.20800
N 	N 	0.30680 0.79510 0.63420 -0.27900
C 	C 	0.29130 0.77840 0.70030 0.20400
N 	N 	0.80680 0.29510 0.13420 -0.28100
C 	C 	0.79130 0.27840 0.20030 0.18700
N 	N 	0.69320 0.20490 0.63420 -0.27900
C 	C 	0.70870 0.22160 0.70030 0.20400
N 	N 	0.19320 0.70490 0.13420 -0.28100
C 	C 	0.20870 0.72160 0.20030 0.18700
N 	N 	0.80680 0.70490 0.63420 -0.27900
C 	C 	0.79130 0.72160 0.70030 0.20400
N 	N 	0.30680 0.20490 0.13420 -0.28100
C 	C 	0.29130 0.22160 0.20030 0.18700
N 	N 	0.19320 0.29510 0.63420 -0.27900
C 	C 	0.20870 0.27840 0.70030 0.20400
N 	N 	0.69320 0.79510 0.13420 -0.28100
C 	C 	0.70870 0.77840 0.20030 0.18700
N 	N 	0.69320 0.20490 0.36580 -0.28000
C 	C 	0.70870 0.22160 0.29970 0.18700
N 	N 	0.19320 0.70490 0.86580 -0.25600
C 	C 	0.20870 0.72160 0.79970 0.20700
N 	N 	0.30680 0.79510 0.36580 -0.28000
C 	C 	0.29130 0.77840 0.29970 0.18700
N 	N 	0.80680 0.29510 0.86580 -0.25600
C 	C 	0.79130 0.27840 0.79970 0.20700
N 	N 	0.47640 0.29530 0.50000 -0.17800
C 	C 	0.40070 0.30560 0.50000 0.16700
N 	N 	0.33740 0.28720 0.50000 -0.27500
Cd	Cd	0.20374 0.28802 0.50000 1.20400
N 	N 	0.20060 0.15730 0.50000 -0.28500
C 	C 	0.20100 0.09420 0.50000 0.18600
N 	N 	0.19920 0.01990 0.50000 -0.18700
N 	N 	0.29900 0.92280 0.50000 -0.25300
C 	C 	0.26160 0.97650 0.50000 0.15300
C 	C 	0.50960 0.22680 0.50000 0.14100
N 	N 	0.56810 0.19290 0.50000 -0.24500
N 	N 	0.97640 0.79530 -0.00000 -0.18200
C 	C 	0.90070 0.80560 -0.00000 0.15200
N 	N 	0.83740 0.78720 -0.00000 -0.28200
Cd	Cd	0.70374 0.78802 -0.00000 1.19500
N 	N 	0.70060 0.65730 -0.00000 -0.29200
C 	C 	0.70100 0.59420 -0.00000 0.17100
N 	N 	0.69920 0.51990 -0.00000 -0.19000
N 	N 	0.79900 0.42280 -0.00000 -0.26100
C 	C 	0.76160 0.47650 -0.00000 0.13900
C 	C 	0.00960 0.72680 -0.00000 0.12600
N 	N 	0.06810 0.69290 -0.00000 -0.25300
N 	N 	0.52360 0.70470 0.50000 -0.17800
C 	C 	0.59930 0.69440 0.50000 0.16700
N 	N 	0.66260 0.71280 0.50000 -0.27500
Cd	Cd	0.79626 0.71198 0.50000 1.20400
N 	N 	0.79940 0.84270 0.50000 -0.28500
C 	C 	0.79900 0.90580 0.50000 0.18600
N 	N 	0.80080 0.98010 0.50000 -0.18700
N 	N 	0.70100 0.07720 0.50000 -0.25300
C 	C 	0.73840 0.02350 0.50000 0.15300
C 	C 	0.49040 0.77320 0.50000 0.14100
N 	N 	0.43190 0.80710 0.50000 -0.24500
N 	N 	0.02360 0.20470 -0.00000 -0.18200
C 	C 	0.09930 0.19440 -0.00000 0.15200
N 	N 	0.16260 0.21280 -0.00000 -0.28200
Cd	Cd	0.29626 0.21198 -0.00000 1.19500
N 	N 	0.29940 0.34270 -0.00000 -0.29200
C 	C 	0.29900 0.40580 -0.00000 0.17100
N 	N 	0.30080 0.48010 -0.00000 -0.19000
N 	N 	0.20100 0.57720 -0.00000 -0.26100
C 	C 	0.23840 0.52350 -0.00000 0.13900
C 	C 	0.99040 0.27320 -0.00000 0.12600
N 	N 	0.93190 0.30710 -0.00000 -0.25300
N 	N 	0.02360 0.79530 0.50000 -0.17800
C 	C 	0.09930 0.80560 0.50000 0.16700
N 	N 	0.16260 0.78720 0.50000 -0.27500
Cd	Cd	0.29626 0.78802 0.50000 1.20400
N 	N 	0.29940 0.65730 0.50000 -0.28500
C 	C 	0.29900 0.59420 0.50000 0.18600
N 	N 	0.30080 0.51990 0.50000 -0.18600
N 	N 	0.20100 0.42280 0.50000 -0.25300
C 	C 	0.23840 0.47650 0.50000 0.15300
C 	C 	0.99040 0.72680 0.50000 0.14100
N 	N 	0.93190 0.69290 0.50000 -0.24500
N 	N 	0.52360 0.29530 -0.00000 -0.18200
C 	C 	0.59930 0.30560 -0.00000 0.15200
N 	N 	0.66260 0.28720 -0.00000 -0.28200
Cd	Cd	0.79626 0.28802 -0.00000 1.19500
N 	N 	0.79940 0.15730 -0.00000 -0.29200
C 	C 	0.79900 0.09420 -0.00000 0.17200
N 	N 	0.80080 0.01990 -0.00000 -0.19000
N 	N 	0.70100 0.92280 -0.00000 -0.26100
C 	C 	0.73840 0.97650 -0.00000 0.13900
C 	C 	0.49040 0.22680 -0.00000 0.12600
N 	N 	0.43190 0.19290 -0.00000 -0.25300
N 	N 	0.97640 0.20470 0.50000 -0.17800
C 	C 	0.90070 0.19440 0.50000 0.16700
N 	N 	0.83740 0.21280 0.50000 -0.27500
Cd	Cd	0.70374 0.21198 0.50000 1.20400
N 	N 	0.70060 0.34270 0.50000 -0.28500
C 	C 	0.70100 0.40580 0.50000 0.18600
N 	N 	0.69920 0.48010 0.50000 -0.18600
N 	N 	0.79900 0.57720 0.50000 -0.25300
C 	C 	0.76160 0.52350 0.50000 0.15300
C 	C 	0.00960 0.27320 0.50000 0.14100
N 	N 	0.06810 0.30710 0.50000 -0.24500
N 	N 	0.47640 0.70470 -0.00000 -0.18200
C 	C 	0.40070 0.69440 -0.00000 0.15200
N 	N 	0.33740 0.71280 -0.00000 -0.28200
Cd	Cd	0.20374 0.71198 -0.00000 1.19500
N 	N 	0.20060 0.84270 -0.00000 -0.29200
C 	C 	0.20100 0.90580 -0.00000 0.17200
N 	N 	0.19920 0.98010 -0.00000 -0.19000
N 	N 	0.29900 0.07720 -0.00000 -0.26100
C 	C 	0.26160 0.02350 -0.00000 0.13900
C 	C 	0.50960 0.77320 -0.00000 0.12600
N 	N 	0.56810 0.80710 -0.00000 -0.25300
N 	N 	0.25000 0.25000 0.25000 -0.22200
N 	N 	0.75000 0.75000 0.25000 -0.22200
N 	N 	0.25000 0.75000 0.75000 -0.22100
N 	N 	0.75000 0.25000 0.75000 -0.22100
N 	N 	0.75000 0.75000 0.75000 -0.22100
N 	N 	0.25000 0.25000 0.75000 -0.22100
N 	N 	0.75000 0.25000 0.25000 -0.22200
N 	N 	0.25000 0.75000 0.25000 -0.22200
