data_crystal

_cell_length_a 10.64200
_cell_length_b 16.47200
_cell_length_c 12.47000
_cell_angle_alpha 90.00000
_cell_angle_beta  90.00000
_cell_angle_gamma 90.00000

_symmetry_space_group_name_	'P 1'
_symmetry_space_group_name_H-M	'P 1'

loop_
_symmetry_equiv_pos_as_xyz
  x,y,z

loop_
_atom_site_label
_atom_site_type_symbol
_atom_site_fract_x
_atom_site_fract_y
_atom_site_fract_z
_atom_site_charge
Cd	Cd	0.52841 0.05537 0.80700 1.20200
C 	C 	0.61130 0.87110 0.69350 0.18900
N 	N 	0.53290 0.68060 0.62920 -0.27700
C 	C 	0.58250 0.74020 0.64200 0.18500
N 	N 	0.63830 0.80980 0.62700 -0.11100
N 	N 	0.58780 0.93110 0.73230 -0.27500
N 	N 	0.83880 0.88480 0.17710 -0.24900
N 	N 	0.83300 0.93700 0.99270 -0.17600
C 	C 	0.75850 0.99300 0.95990 0.15600
C 	C 	0.83080 0.91130 0.09230 0.13600
N 	N 	0.69750 0.04380 0.92200 -0.26400
C 	C 	0.18930 0.92960 0.10830 0.22200
N 	N 	0.13210 0.93610 0.18140 -0.28700
C 	C 	0.32970 0.95760 0.97600 0.22300
N 	N 	0.21800 0.92270 0.99820 -0.14000
N 	N 	0.39680 0.99120 0.92480 -0.29300
N 	N 	0.66150 0.79790 0.67700 -0.10400
N 	N 	0.29200 0.90100 0.05510 -0.13800
Cd	Cd	0.97159 0.94463 0.30700 1.20200
C 	C 	0.88870 0.12890 0.19350 0.19000
N 	N 	0.96710 0.31940 0.12920 -0.27600
C 	C 	0.91750 0.25980 0.14200 0.18600
N 	N 	0.86170 0.19020 0.12700 -0.11000
N 	N 	0.91220 0.06890 0.23230 -0.27400
N 	N 	0.66120 0.11520 0.67710 -0.24900
N 	N 	0.66700 0.06300 0.49270 -0.17600
C 	C 	0.74150 0.00700 0.45990 0.15700
C 	C 	0.66920 0.08870 0.59230 0.13800
N 	N 	0.80250 0.95620 0.42200 -0.26400
C 	C 	0.31070 0.07040 0.60830 0.22200
N 	N 	0.36790 0.06390 0.68140 -0.28800
C 	C 	0.17030 0.04240 0.47600 0.22200
N 	N 	0.28200 0.07730 0.49820 -0.14100
N 	N 	0.10320 0.00880 0.42480 -0.29400
N 	N 	0.83850 0.20210 0.17700 -0.10400
N 	N 	0.20800 0.09900 0.55510 -0.13700
Cd	Cd	0.47159 0.55537 0.69300 1.20200
C 	C 	0.38870 0.37110 0.80650 0.18800
N 	N 	0.46710 0.18060 0.87080 -0.27800
C 	C 	0.41750 0.24020 0.85800 0.18500
N 	N 	0.36170 0.30980 0.87300 -0.11100
N 	N 	0.41220 0.43110 0.76770 -0.27500
N 	N 	0.16120 0.38480 0.32290 -0.24900
N 	N 	0.16700 0.43700 0.50730 -0.17600
C 	C 	0.24150 0.49300 0.54010 0.15400
C 	C 	0.16920 0.41130 0.40770 0.13700
N 	N 	0.30250 0.54380 0.57800 -0.26300
C 	C 	0.81070 0.42960 0.39170 0.22300
N 	N 	0.86790 0.43610 0.31860 -0.28700
C 	C 	0.67030 0.45760 0.52400 0.22200
N 	N 	0.78200 0.42270 0.50180 -0.14100
N 	N 	0.60320 0.49120 0.57520 -0.29300
N 	N 	0.33850 0.29790 0.82300 -0.10400
N 	N 	0.70800 0.40100 0.44490 -0.13700
Cd	Cd	0.02841 0.44463 0.19300 1.20200
C 	C 	0.11130 0.62890 0.30650 0.18900
N 	N 	0.03290 0.81940 0.37080 -0.27600
C 	C 	0.08250 0.75980 0.35800 0.18600
N 	N 	0.13830 0.69020 0.37300 -0.11100
N 	N 	0.08780 0.56890 0.26770 -0.27500
N 	N 	0.33880 0.61520 0.82290 -0.24900
N 	N 	0.33300 0.56300 0.00730 -0.17600
C 	C 	0.25850 0.50700 0.04010 0.15400
C 	C 	0.33080 0.58870 0.90770 0.13700
N 	N 	0.19750 0.45620 0.07800 -0.26300
C 	C 	0.68930 0.57040 0.89170 0.22200
N 	N 	0.63210 0.56390 0.81860 -0.28800
C 	C 	0.82970 0.54240 0.02400 0.22300
N 	N 	0.71800 0.57730 0.00180 -0.14100
N 	N 	0.89680 0.50880 0.07520 -0.29300
N 	N 	0.16150 0.70210 0.32300 -0.10400
N 	N 	0.79200 0.59900 0.94490 -0.13700
