data_crystal

_cell_length_a 7.73730
_cell_length_b 16.12030
_cell_length_c 15.21350
_cell_angle_alpha 90.00000
_cell_angle_beta  90.00000
_cell_angle_gamma 90.00000

_symmetry_space_group_name_	'P 1'
_symmetry_space_group_name_H-M	'P 1'

loop_
_symmetry_equiv_pos_as_xyz
  x,y,z

loop_
_atom_site_label
_atom_site_type_symbol
_atom_site_fract_x
_atom_site_fract_y
_atom_site_fract_z
_atom_site_charge
Mn	Mn	0.48210 0.12634 0.54802 1.19800
Mn	Mn	0.51790 0.87366 0.04802 1.16200
Mn	Mn	0.01790 0.62634 0.54802 1.19700
Mn	Mn	0.98210 0.37366 0.04802 1.16300
Hg	Hg	0.54699 0.43373 0.35315 -0.03000
Hg	Hg	0.45301 0.56627 0.85315 0.03400
Hg	Hg	0.95301 0.93373 0.35315 -0.02900
Hg	Hg	0.04699 0.06627 0.85315 0.03000
C 	C 	0.64090 0.24690 0.38660 0.10000
C 	C 	0.82670 0.00280 0.53850 0.09700
C 	C 	0.32480 0.00760 0.38760 0.10700
C 	C 	0.30820 0.00860 0.70720 0.09900
C 	C 	0.35910 0.75310 0.88660 0.12100
C 	C 	0.17330 0.99720 0.03850 0.07500
C 	C 	0.67520 0.99240 0.88760 0.12900
C 	C 	0.69180 0.99140 0.20720 0.09700
C 	C 	0.85910 0.74690 0.38660 0.10000
C 	C 	0.67330 0.50280 0.53850 0.09900
C 	C 	0.17520 0.50760 0.38760 0.10500
C 	C 	0.19180 0.50860 0.70720 0.09900
C 	C 	0.14090 0.25310 0.88660 0.12000
C 	C 	0.32670 0.49720 0.03850 0.07900
C 	C 	0.82480 0.49240 0.88760 0.12900
C 	C 	0.80820 0.49140 0.20720 0.09800
S 	S 	0.70180 0.30430 0.30240 -0.13000
S 	S 	0.97590 0.93400 0.52020 -0.10800
S 	S 	0.26070 0.95440 0.30050 -0.11600
S 	S 	0.24100 0.95190 0.79000 -0.06900
S 	S 	0.29820 0.69570 0.80240 -0.10500
S 	S 	0.02410 0.06600 0.02020 -0.20500
S 	S 	0.73930 0.04560 0.80050 -0.09300
S 	S 	0.75900 0.04810 0.29000 -0.09600
S 	S 	0.79820 0.80430 0.30240 -0.13000
S 	S 	0.52410 0.43400 0.52020 -0.11000
S 	S 	0.23930 0.45440 0.30050 -0.11300
S 	S 	0.25900 0.45190 0.79000 -0.06700
S 	S 	0.20180 0.19570 0.80240 -0.10400
S 	S 	0.47590 0.56600 0.02020 -0.21400
S 	S 	0.76070 0.54560 0.80050 -0.09100
S 	S 	0.74100 0.54810 0.29000 -0.09700
N 	N 	0.60040 0.20640 0.44450 -0.29300
N 	N 	0.72000 0.05010 0.55230 -0.28400
N 	N 	0.37370 0.04640 0.44480 -0.28800
N 	N 	0.35320 0.04930 0.65150 -0.28900
N 	N 	0.39960 0.79360 0.94450 -0.25300
N 	N 	0.28000 0.94990 0.05230 -0.30900
N 	N 	0.62630 0.95360 0.94480 -0.24600
N 	N 	0.64680 0.95070 0.15150 -0.30400
N 	N 	0.89960 0.70640 0.44450 -0.29200
N 	N 	0.78000 0.55010 0.55230 -0.28300
N 	N 	0.12630 0.54640 0.44480 -0.28700
N 	N 	0.14680 0.54930 0.65150 -0.28900
N 	N 	0.10040 0.29360 0.94450 -0.25400
N 	N 	0.22000 0.44990 0.05230 -0.31000
N 	N 	0.87370 0.45360 0.94480 -0.24600
N 	N 	0.85320 0.45070 0.15150 -0.30400
