data_crystal

_cell_length_a 10.05800
_cell_length_b 16.60000
_cell_length_c 14.73900
_cell_angle_alpha 90.00000
_cell_angle_beta  94.75000
_cell_angle_gamma 90.00000

_symmetry_space_group_name_	'P 1'
_symmetry_space_group_name_H-M	'P 1'

loop_
_symmetry_equiv_pos_as_xyz
  x,y,z

loop_
_atom_site_label
_atom_site_type_symbol
_atom_site_fract_x
_atom_site_fract_y
_atom_site_fract_z
_atom_site_charge
Zn	Zn	0.22781 0.87867 0.51417 1.16700
Zn	Zn	0.46304 0.82228 0.68425 1.24000
O 	O 	0.54550 0.44150 0.31590 -0.46400
O 	O 	0.65950 0.47540 0.44700 -0.50000
C 	C 	0.57670 0.48810 0.38070 0.41300
C 	C 	0.50790 0.56770 0.38100 -0.09200
C 	C 	0.44000 0.68670 0.45800 -0.09300
C 	C 	0.50710 0.61380 0.45820 0.03000
H 	H 	0.55370 0.59540 0.51300 0.04100
C 	C 	0.37150 0.66870 0.30270 0.11700
C 	C 	0.43460 0.59340 0.30240 -0.05700
H 	H 	0.42730 0.56060 0.24930 0.08800
C 	C 	0.37200 0.71210 0.38030 -0.06100
H 	H 	0.32380 0.76130 0.38020 0.00700
O 	O 	0.16560 0.84900 0.63910 -0.53000
O 	O 	0.30540 0.79930 0.75090 -0.45400
C 	C 	0.19210 0.82140 0.71430 0.41900
C 	C 	0.07750 0.80860 0.77400 -0.09800
C 	C 	0.84220 0.80510 0.78620 -0.06100
C 	C 	0.94710 0.81650 0.73520 0.02600
H 	H 	0.93130 0.83000 0.67260 0.03800
C 	C 	0.86210 0.78590 0.87640 -0.01500
H 	H 	0.78910 0.77730 0.91220 0.08200
C 	C 	0.10020 0.79150 0.86490 -0.00700
H 	H 	0.18880 0.78810 0.89250 0.06900
C 	C 	0.99560 0.77936 0.91470 0.02500
O 	O 	0.60550 0.80140 0.78940 -0.37700
C 	C 	0.44290 0.73530 0.54420 0.33900
O 	O 	0.40390 0.80760 0.54020 -0.55900
O 	O 	0.68720 0.82980 0.65880 -0.34900
C 	C 	0.70240 0.81410 0.74060 0.29700
N 	N 	0.01990 0.75955 0.00570 0.47300
N 	N 	0.92930 0.71970 0.05060 0.00200
N 	N 	0.98430 0.71110 0.13490 -0.10800
C 	C 	0.10730 0.74520 0.14130 0.33200
C 	C 	0.13210 0.77620 0.05970 -1.05200
H 	H 	0.21000 0.80340 0.04380 0.31300
C 	C 	0.18800 0.74350 0.22780 -0.22800
H 	H 	0.23460 0.79560 0.23810 0.07400
H 	H 	0.13030 0.73470 0.27810 0.09000
O 	O 	0.28320 0.67970 0.22590 -0.17700
O 	O 	0.48120 0.70430 0.61920 -0.38100
N 	N 	0.32480 0.71180 0.21410 0.04200
N 	N 	0.34840 0.68560 0.13150 -0.05100
N 	N 	0.26700 0.72640 0.07340 -0.01900
C 	C 	0.19200 0.77770 0.11970 0.07800
C 	C 	0.22930 0.76880 0.21120 0.03000
H 	H 	0.19550 0.79660 0.26080 -0.02500
C 	C 	0.09240 0.83220 0.07390 1.11400
H 	H 	0.05490 0.86710 0.11990 -0.30900
H 	H 	0.13660 0.86740 0.03120 -0.28200
O 	O 	0.98760 0.78930 0.02550 -0.61800
Zn	Zn	0.77219 0.37867 0.48583 1.16700
Zn	Zn	0.53696 0.32228 0.31575 1.23900
O 	O 	0.45450 0.94150 0.68410 -0.46400
O 	O 	0.34050 0.97540 0.55300 -0.50200
C 	C 	0.42330 0.98810 0.61930 0.39600
C 	C 	0.49210 0.06770 0.61900 -0.07100
C 	C 	0.56000 0.18670 0.54200 -0.08400
C 	C 	0.49290 0.11380 0.54180 0.01900
H 	H 	0.44630 0.09540 0.48700 0.04800
C 	C 	0.62850 0.16870 0.69730 0.12500
C 	C 	0.56540 0.09340 0.69760 -0.06700
H 	H 	0.57270 0.06060 0.75070 0.09600
C 	C 	0.62800 0.21210 0.61970 -0.06800
H 	H 	0.67620 0.26130 0.61980 0.01100
O 	O 	0.83440 0.34900 0.36090 -0.52700
O 	O 	0.69460 0.29930 0.24910 -0.45200
C 	C 	0.80790 0.32140 0.28570 0.41800
C 	C 	0.92250 0.30860 0.22600 -0.09200
C 	C 	0.15780 0.30510 0.21380 -0.05700
C 	C 	0.05290 0.31650 0.26480 0.02000
H 	H 	0.06870 0.33000 0.32740 0.04000
C 	C 	0.13790 0.28590 0.12360 -0.01800
H 	H 	0.21090 0.27730 0.08780 0.08400
C 	C 	0.89980 0.29150 0.13510 -0.00700
H 	H 	0.81120 0.28810 0.10750 0.07000
C 	C 	0.00440 0.27936 0.08530 0.02800
O 	O 	0.39450 0.30140 0.21060 -0.37500
C 	C 	0.55710 0.23530 0.45580 0.33600
O 	O 	0.59610 0.30760 0.45980 -0.55700
O 	O 	0.31280 0.32980 0.34120 -0.34700
C 	C 	0.29760 0.31410 0.25940 0.29600
N 	N 	0.98010 0.25955 0.99430 0.45300
N 	N 	0.07070 0.21970 0.94940 0.00200
N 	N 	0.01570 0.21110 0.86510 -0.10700
C 	C 	0.89270 0.24520 0.85870 0.32300
C 	C 	0.86790 0.27620 0.94030 -0.98500
H 	H 	0.79000 0.30340 0.95620 0.29800
C 	C 	0.81200 0.24350 0.77220 -0.21900
H 	H 	0.76540 0.29560 0.76190 0.07400
H 	H 	0.86970 0.23470 0.72190 0.08900
O 	O 	0.71680 0.17970 0.77410 -0.18000
O 	O 	0.51880 0.20430 0.38080 -0.37800
N 	N 	0.67520 0.21180 0.78590 0.04300
N 	N 	0.65160 0.18560 0.86850 -0.04900
N 	N 	0.73300 0.22640 0.92660 -0.02100
C 	C 	0.80800 0.27770 0.88030 0.06700
C 	C 	0.77070 0.26880 0.78880 0.03000
H 	H 	0.80450 0.29660 0.73920 -0.02600
C 	C 	0.90760 0.33220 0.92610 1.04500
H 	H 	0.94510 0.36710 0.88010 -0.28400
H 	H 	0.86340 0.36740 0.96880 -0.26000
O 	O 	0.01240 0.28930 0.97450 -0.59900
