data_crystal

_cell_length_a 20.07870
_cell_length_b 20.07870
_cell_length_c 20.07870
_cell_angle_alpha 90.00000
_cell_angle_beta  90.00000
_cell_angle_gamma 90.00000

_symmetry_space_group_name_	'P 1'
_symmetry_space_group_name_H-M	'P 1'

loop_
_symmetry_equiv_pos_as_xyz
  x,y,z

loop_
_atom_site_label
_atom_site_type_symbol
_atom_site_fract_x
_atom_site_fract_y
_atom_site_fract_z
_atom_site_charge
Zn	Zn	0.25119 0.27053 0.14570 1.19000
N 	N 	0.34264 0.24318 0.17105 -0.26500
C 	C 	0.40210 0.26890 0.15940 0.09700
H 	H 	0.41050 0.30360 0.12990 0.00300
C 	C 	0.45015 0.23670 0.19730 -0.14600
N 	N 	0.35026 0.19397 0.21748 -0.26400
O 	O 	0.54899 0.29235 0.16480 -0.35900
C 	C 	0.52180 0.25030 0.20070 0.34100
C 	C 	0.41470 0.18970 0.23280 0.09500
H 	H 	0.43300 0.15960 0.26290 0.00300
O 	O 	0.55496 0.21668 0.24317 -0.45500
Zn	Zn	0.24881 0.72947 0.64570 1.19000
N 	N 	0.15736 0.75682 0.67105 -0.26500
C 	C 	0.09790 0.73110 0.65940 0.09700
H 	H 	0.08950 0.69640 0.62990 0.00300
C 	C 	0.04985 0.76330 0.69730 -0.14600
N 	N 	0.14974 0.80603 0.71748 -0.26500
O 	O 	0.95101 0.70765 0.66480 -0.36000
C 	C 	0.97820 0.74970 0.70070 0.34000
C 	C 	0.08530 0.81030 0.73280 0.09400
H 	H 	0.06700 0.84040 0.76290 0.00200
O 	O 	0.94504 0.78332 0.74317 -0.45600
Zn	Zn	0.74881 0.77053 0.35430 1.18900
N 	N 	0.65736 0.74318 0.32895 -0.26600
C 	C 	0.59790 0.76890 0.34060 0.09600
H 	H 	0.58950 0.80360 0.37010 0.00200
C 	C 	0.54985 0.73670 0.30270 -0.14700
N 	N 	0.64974 0.69397 0.28252 -0.26500
O 	O 	0.45101 0.79235 0.33520 -0.36000
C 	C 	0.47820 0.75030 0.29930 0.34000
C 	C 	0.58530 0.68970 0.26720 0.09400
H 	H 	0.56700 0.65960 0.23710 0.00200
O 	O 	0.44504 0.71668 0.25683 -0.45600
Zn	Zn	0.75119 0.22947 0.85430 1.18900
N 	N 	0.84264 0.25682 0.82895 -0.26600
C 	C 	0.90210 0.23110 0.84060 0.09600
H 	H 	0.91050 0.19640 0.87010 0.00200
C 	C 	0.95015 0.26330 0.80270 -0.14700
N 	N 	0.85026 0.30603 0.78252 -0.26500
O 	O 	0.04899 0.20765 0.83520 -0.36000
C 	C 	0.02180 0.24970 0.79930 0.34000
C 	C 	0.91470 0.31030 0.76720 0.09400
H 	H 	0.93300 0.34040 0.73710 0.00200
O 	O 	0.05496 0.28332 0.75683 -0.45600
Zn	Zn	0.14570 0.25119 0.27053 1.18900
N 	N 	0.17105 0.34264 0.24318 -0.26600
C 	C 	0.15940 0.40210 0.26890 0.09600
H 	H 	0.12990 0.41050 0.30360 0.00200
C 	C 	0.19730 0.45015 0.23670 -0.14700
N 	N 	0.21748 0.35026 0.19397 -0.26500
O 	O 	0.16480 0.54899 0.29235 -0.36000
C 	C 	0.20070 0.52180 0.25030 0.34000
C 	C 	0.23280 0.41470 0.18970 0.09400
H 	H 	0.26290 0.43300 0.15960 0.00200
O 	O 	0.24317 0.55496 0.21668 -0.45600
Zn	Zn	0.64570 0.24881 0.72947 1.18900
N 	N 	0.67105 0.15736 0.75682 -0.26600
C 	C 	0.65940 0.09790 0.73110 0.09600
H 	H 	0.62990 0.08950 0.69640 0.00200
C 	C 	0.69730 0.04985 0.76330 -0.14700
N 	N 	0.71748 0.14974 0.80603 -0.26500
O 	O 	0.66480 0.95101 0.70765 -0.36000
C 	C 	0.70070 0.97820 0.74970 0.34000
C 	C 	0.73280 0.08530 0.81030 0.09400
H 	H 	0.76290 0.06700 0.84040 0.00200
O 	O 	0.74317 0.94504 0.78332 -0.45600
Zn	Zn	0.35430 0.74881 0.77053 1.18900
N 	N 	0.32895 0.65736 0.74318 -0.26600
C 	C 	0.34060 0.59790 0.76890 0.09600
H 	H 	0.37010 0.58950 0.80360 0.00200
C 	C 	0.30270 0.54985 0.73670 -0.14700
N 	N 	0.28252 0.64974 0.69397 -0.26500
O 	O 	0.33520 0.45101 0.79235 -0.36000
C 	C 	0.29930 0.47820 0.75030 0.34000
C 	C 	0.26720 0.58530 0.68970 0.09400
H 	H 	0.23710 0.56700 0.65960 0.00200
O 	O 	0.25683 0.44504 0.71668 -0.45600
Zn	Zn	0.85430 0.75119 0.22947 1.18900
N 	N 	0.82895 0.84264 0.25682 -0.26600
C 	C 	0.84060 0.90210 0.23110 0.09600
H 	H 	0.87010 0.91050 0.19640 0.00200
C 	C 	0.80270 0.95015 0.26330 -0.14700
N 	N 	0.78252 0.85026 0.30603 -0.26500
O 	O 	0.83520 0.04899 0.20765 -0.36000
C 	C 	0.79930 0.02180 0.24970 0.34000
C 	C 	0.76720 0.91470 0.31030 0.09400
H 	H 	0.73710 0.93300 0.34040 0.00200
O 	O 	0.75683 0.05496 0.28332 -0.45600
Zn	Zn	0.27053 0.14570 0.25119 1.18900
N 	N 	0.24318 0.17105 0.34264 -0.26600
C 	C 	0.26890 0.15940 0.40210 0.09600
H 	H 	0.30360 0.12990 0.41050 0.00200
C 	C 	0.23670 0.19730 0.45015 -0.14700
N 	N 	0.19397 0.21748 0.35026 -0.26500
O 	O 	0.29235 0.16480 0.54899 -0.36000
C 	C 	0.25030 0.20070 0.52180 0.34000
C 	C 	0.18970 0.23280 0.41470 0.09400
H 	H 	0.15960 0.26290 0.43300 0.00200
O 	O 	0.21668 0.24317 0.55496 -0.45600
Zn	Zn	0.72947 0.64570 0.24881 1.18900
N 	N 	0.75682 0.67105 0.15736 -0.26600
C 	C 	0.73110 0.65940 0.09790 0.09600
H 	H 	0.69640 0.62990 0.08950 0.00200
C 	C 	0.76330 0.69730 0.04985 -0.14700
N 	N 	0.80603 0.71748 0.14974 -0.26500
O 	O 	0.70765 0.66480 0.95101 -0.36000
C 	C 	0.74970 0.70070 0.97820 0.34000
C 	C 	0.81030 0.73280 0.08530 0.09400
H 	H 	0.84040 0.76290 0.06700 0.00200
O 	O 	0.78332 0.74317 0.94504 -0.45600
Zn	Zn	0.77053 0.35430 0.74881 1.18900
N 	N 	0.74318 0.32895 0.65736 -0.26600
C 	C 	0.76890 0.34060 0.59790 0.09600
H 	H 	0.80360 0.37010 0.58950 0.00200
C 	C 	0.73670 0.30270 0.54985 -0.14700
N 	N 	0.69397 0.28252 0.64974 -0.26500
O 	O 	0.79235 0.33520 0.45101 -0.36000
C 	C 	0.75030 0.29930 0.47820 0.34000
C 	C 	0.68970 0.26720 0.58530 0.09400
H 	H 	0.65960 0.23710 0.56700 0.00200
O 	O 	0.71668 0.25683 0.44504 -0.45600
Zn	Zn	0.22947 0.85430 0.75119 1.18900
N 	N 	0.25682 0.82895 0.84264 -0.26600
C 	C 	0.23110 0.84060 0.90210 0.09600
H 	H 	0.19640 0.87010 0.91050 0.00200
C 	C 	0.26330 0.80270 0.95015 -0.14700
N 	N 	0.30603 0.78252 0.85026 -0.26500
O 	O 	0.20765 0.83520 0.04899 -0.36000
C 	C 	0.24970 0.79930 0.02180 0.34000
C 	C 	0.31030 0.76720 0.91470 0.09400
H 	H 	0.34040 0.73710 0.93300 0.00200
O 	O 	0.28332 0.75683 0.05496 -0.45600
Zn	Zn	0.74881 0.72947 0.85430 1.18900
N 	N 	0.65736 0.75682 0.82895 -0.26600
C 	C 	0.59790 0.73110 0.84060 0.09600
H 	H 	0.58950 0.69640 0.87010 0.00200
C 	C 	0.54985 0.76330 0.80270 -0.14700
N 	N 	0.64974 0.80603 0.78252 -0.26500
O 	O 	0.45101 0.70765 0.83520 -0.36000
C 	C 	0.47820 0.74970 0.79930 0.34000
C 	C 	0.58530 0.81030 0.76720 0.09400
H 	H 	0.56700 0.84040 0.73710 0.00200
O 	O 	0.44504 0.78332 0.75683 -0.45600
Zn	Zn	0.75119 0.27053 0.35430 1.18900
N 	N 	0.84264 0.24318 0.32895 -0.26600
C 	C 	0.90210 0.26890 0.34060 0.09600
H 	H 	0.91050 0.30360 0.37010 0.00200
C 	C 	0.95015 0.23670 0.30270 -0.14700
N 	N 	0.85026 0.19397 0.28252 -0.26500
O 	O 	0.04899 0.29235 0.33520 -0.36000
C 	C 	0.02180 0.25030 0.29930 0.34000
C 	C 	0.91470 0.18970 0.26720 0.09400
H 	H 	0.93300 0.15960 0.23710 0.00200
O 	O 	0.05496 0.21668 0.25683 -0.45600
Zn	Zn	0.25119 0.22947 0.64570 1.18900
N 	N 	0.34264 0.25682 0.67105 -0.26600
C 	C 	0.40210 0.23110 0.65940 0.09600
H 	H 	0.41050 0.19640 0.62990 0.00200
C 	C 	0.45015 0.26330 0.69730 -0.14700
N 	N 	0.35026 0.30603 0.71748 -0.26500
O 	O 	0.54899 0.20765 0.66480 -0.36000
C 	C 	0.52180 0.24970 0.70070 0.34000
C 	C 	0.41470 0.31030 0.73280 0.09400
H 	H 	0.43300 0.34040 0.76290 0.00200
O 	O 	0.55496 0.28332 0.74317 -0.45600
Zn	Zn	0.24881 0.77053 0.14570 1.18900
N 	N 	0.15736 0.74318 0.17105 -0.26600
C 	C 	0.09790 0.76890 0.15940 0.09600
H 	H 	0.08950 0.80360 0.12990 0.00200
C 	C 	0.04985 0.73670 0.19730 -0.14700
N 	N 	0.14974 0.69397 0.21748 -0.26500
O 	O 	0.95101 0.79235 0.16480 -0.36000
C 	C 	0.97820 0.75030 0.20070 0.34000
C 	C 	0.08530 0.68970 0.23280 0.09400
H 	H 	0.06700 0.65960 0.26290 0.00200
O 	O 	0.94504 0.71668 0.24317 -0.45600
Zn	Zn	0.85430 0.74881 0.72947 1.18900
N 	N 	0.82895 0.65736 0.75682 -0.26600
C 	C 	0.84060 0.59790 0.73110 0.09600
H 	H 	0.87010 0.58950 0.69640 0.00200
C 	C 	0.80270 0.54985 0.76330 -0.14700
N 	N 	0.78252 0.64974 0.80603 -0.26500
O 	O 	0.83520 0.45101 0.70765 -0.36000
C 	C 	0.79930 0.47820 0.74970 0.34000
C 	C 	0.76720 0.58530 0.81030 0.09400
H 	H 	0.73710 0.56700 0.84040 0.00200
O 	O 	0.75683 0.44504 0.78332 -0.45600
Zn	Zn	0.35430 0.75119 0.27053 1.18900
N 	N 	0.32895 0.84264 0.24318 -0.26600
C 	C 	0.34060 0.90210 0.26890 0.09600
H 	H 	0.37010 0.91050 0.30360 0.00200
C 	C 	0.30270 0.95015 0.23670 -0.14700
N 	N 	0.28252 0.85026 0.19397 -0.26500
O 	O 	0.33520 0.04899 0.29235 -0.36000
C 	C 	0.29930 0.02180 0.25030 0.34000
C 	C 	0.26720 0.91470 0.18970 0.09400
H 	H 	0.23710 0.93300 0.15960 0.00200
O 	O 	0.25683 0.05496 0.21668 -0.45600
Zn	Zn	0.64570 0.25119 0.22947 1.18900
N 	N 	0.67105 0.34264 0.25682 -0.26600
C 	C 	0.65940 0.40210 0.23110 0.09600
H 	H 	0.62990 0.41050 0.19640 0.00200
C 	C 	0.69730 0.45015 0.26330 -0.14700
N 	N 	0.71748 0.35026 0.30603 -0.26500
O 	O 	0.66480 0.54899 0.20765 -0.36000
C 	C 	0.70070 0.52180 0.24970 0.34000
C 	C 	0.73280 0.41470 0.31030 0.09400
H 	H 	0.76290 0.43300 0.34040 0.00200
O 	O 	0.74317 0.55496 0.28332 -0.45600
Zn	Zn	0.14570 0.24881 0.77053 1.18900
N 	N 	0.17105 0.15736 0.74318 -0.26600
C 	C 	0.15940 0.09790 0.76890 0.09600
H 	H 	0.12990 0.08950 0.80360 0.00200
C 	C 	0.19730 0.04985 0.73670 -0.14700
N 	N 	0.21748 0.14974 0.69397 -0.26500
O 	O 	0.16480 0.95101 0.79235 -0.36000
C 	C 	0.20070 0.97820 0.75030 0.34000
C 	C 	0.23280 0.08530 0.68970 0.09400
H 	H 	0.26290 0.06700 0.65960 0.00200
O 	O 	0.24317 0.94504 0.71668 -0.45600
Zn	Zn	0.72947 0.85430 0.74881 1.18900
N 	N 	0.75682 0.82895 0.65736 -0.26600
C 	C 	0.73110 0.84060 0.59790 0.09600
H 	H 	0.69640 0.87010 0.58950 0.00200
C 	C 	0.76330 0.80270 0.54985 -0.14700
N 	N 	0.80603 0.78252 0.64974 -0.26500
O 	O 	0.70765 0.83520 0.45101 -0.36000
C 	C 	0.74970 0.79930 0.47820 0.34000
C 	C 	0.81030 0.76720 0.58530 0.09400
H 	H 	0.84040 0.73710 0.56700 0.00200
O 	O 	0.78332 0.75683 0.44504 -0.45600
Zn	Zn	0.27053 0.35430 0.75119 1.18900
N 	N 	0.24318 0.32895 0.84264 -0.26600
C 	C 	0.26890 0.34060 0.90210 0.09600
H 	H 	0.30360 0.37010 0.91050 0.00200
C 	C 	0.23670 0.30270 0.95015 -0.14700
N 	N 	0.19397 0.28252 0.85026 -0.26500
O 	O 	0.29235 0.33520 0.04899 -0.36000
C 	C 	0.25030 0.29930 0.02180 0.34000
C 	C 	0.18970 0.26720 0.91470 0.09400
H 	H 	0.15960 0.23710 0.93300 0.00200
O 	O 	0.21668 0.25683 0.05496 -0.45600
Zn	Zn	0.22947 0.64570 0.25119 1.18900
N 	N 	0.25682 0.67105 0.34264 -0.26600
C 	C 	0.23110 0.65940 0.40210 0.09600
H 	H 	0.19640 0.62990 0.41050 0.00200
C 	C 	0.26330 0.69730 0.45015 -0.14700
N 	N 	0.30603 0.71748 0.35026 -0.26500
O 	O 	0.20765 0.66480 0.54899 -0.36000
C 	C 	0.24970 0.70070 0.52180 0.34000
C 	C 	0.31030 0.73280 0.41470 0.09400
H 	H 	0.34040 0.76290 0.43300 0.00200
O 	O 	0.28332 0.74317 0.55496 -0.45600
Zn	Zn	0.77053 0.14570 0.24881 1.18900
N 	N 	0.74318 0.17105 0.15736 -0.26600
C 	C 	0.76890 0.15940 0.09790 0.09600
H 	H 	0.80360 0.12990 0.08950 0.00200
C 	C 	0.73670 0.19730 0.04985 -0.14700
N 	N 	0.69397 0.21748 0.14974 -0.26500
O 	O 	0.79235 0.16480 0.95101 -0.36000
C 	C 	0.75030 0.20070 0.97820 0.34000
C 	C 	0.68970 0.23280 0.08530 0.09400
H 	H 	0.65960 0.26290 0.06700 0.00200
O 	O 	0.71668 0.24317 0.94504 -0.45600
O 	O 	0.20120 0.20120 0.20120 -0.68900
O 	O 	0.29880 0.79880 0.70120 -0.68900
O 	O 	0.79880 0.70120 0.29880 -0.68900
O 	O 	0.70120 0.29880 0.79880 -0.68900
O 	O 	0.79880 0.79880 0.79880 -0.68900
O 	O 	0.70120 0.20120 0.29880 -0.68900
O 	O 	0.20120 0.29880 0.70120 -0.68900
O 	O 	0.29880 0.70120 0.20120 -0.68900
