data_crystal

_cell_length_a 10.89240
_cell_length_b 10.96310
_cell_length_c 16.77400
_cell_angle_alpha 90.00000
_cell_angle_beta  90.00000
_cell_angle_gamma 102.25400

_symmetry_space_group_name_	'P 1'
_symmetry_space_group_name_H-M	'P 1'

loop_
_symmetry_equiv_pos_as_xyz
  x,y,z

loop_
_atom_site_label
_atom_site_type_symbol
_atom_site_fract_x
_atom_site_fract_y
_atom_site_fract_z
_atom_site_charge
Tb	Tb	0.34901 0.08321 0.88764 1.67700
Tb	Tb	0.15099 0.41679 0.38764 1.69100
Tb	Tb	0.65099 0.91679 0.11237 1.67700
Tb	Tb	0.84901 0.58321 0.61236 1.69200
H 	H 	0.17730 0.75720 0.68060 -0.01300
H 	H 	0.39350 0.57020 0.55770 0.02500
H 	H 	0.53930 0.79130 0.73900 0.03000
H 	H 	0.32270 0.74280 0.18060 -0.01300
H 	H 	0.10650 0.92980 0.05770 0.02500
H 	H 	0.96070 0.70870 0.23900 0.02800
H 	H 	0.82270 0.24280 0.31940 -0.01300
H 	H 	0.60650 0.42980 0.44230 0.02500
H 	H 	0.46070 0.20870 0.26100 0.03000
H 	H 	0.67730 0.25720 0.81940 -0.01300
H 	H 	0.89350 0.07020 0.94230 0.02500
H 	H 	0.03930 0.29130 0.76100 0.02800
C 	C 	0.34300 0.87860 0.78800 0.33000
C 	C 	0.35480 0.78780 0.72160 -0.14300
C 	C 	0.25490 0.73680 0.67210 0.10700
C 	C 	0.26750 0.65620 0.61040 -0.20700
C 	C 	0.38460 0.62540 0.59830 0.09400
C 	C 	0.48880 0.67590 0.64610 -0.14300
C 	C 	0.47130 0.75660 0.70680 0.06500
C 	C 	0.15850 0.60470 0.55460 0.52600
C 	C 	0.61250 0.64260 0.63480 0.34300
C 	C 	0.15700 0.62140 0.28800 0.33100
C 	C 	0.14520 0.71220 0.22160 -0.14400
C 	C 	0.24510 0.76320 0.17210 0.10500
C 	C 	0.23250 0.84380 0.11040 -0.20300
C 	C 	0.11540 0.87460 0.09830 0.09100
C 	C 	0.01120 0.82410 0.14610 -0.14100
C 	C 	0.02870 0.74340 0.20680 0.06500
C 	C 	0.34150 0.89530 0.05460 0.51300
C 	C 	0.88750 0.85740 0.13480 0.34100
C 	C 	0.65700 0.12140 0.21200 0.33000
C 	C 	0.64520 0.21220 0.27840 -0.14300
C 	C 	0.74510 0.26320 0.32790 0.10700
C 	C 	0.73250 0.34380 0.38960 -0.20700
C 	C 	0.61540 0.37460 0.40170 0.09400
C 	C 	0.51120 0.32410 0.35390 -0.14300
C 	C 	0.52870 0.24340 0.29320 0.06500
C 	C 	0.84150 0.39530 0.44540 0.52600
C 	C 	0.38750 0.35740 0.36520 0.34300
C 	C 	0.84300 0.37860 0.71200 0.33100
C 	C 	0.85480 0.28780 0.77840 -0.14400
C 	C 	0.75490 0.23680 0.82790 0.10500
C 	C 	0.76750 0.15620 0.88960 -0.20300
C 	C 	0.88460 0.12540 0.90170 0.09100
C 	C 	0.98880 0.17590 0.85390 -0.14100
C 	C 	0.97130 0.25660 0.79320 0.06500
C 	C 	0.65850 0.10470 0.94540 0.51300
C 	C 	0.11250 0.14260 0.86520 0.34100
O 	O 	0.24380 0.91730 0.79590 -0.39700
O 	O 	0.43680 0.91900 0.83100 -0.41500
O 	O 	0.69790 0.67980 0.68440 -0.43300
O 	O 	0.62970 0.57760 0.57580 -0.40200
O 	O 	0.18180 0.54000 0.49780 -0.51700
O 	O 	0.05720 0.63500 0.56810 -0.52900
O 	O 	0.25620 0.58270 0.29590 -0.40300
O 	O 	0.06320 0.58100 0.33100 -0.41900
O 	O 	0.80210 0.82020 0.18440 -0.43300
O 	O 	0.87030 0.92240 0.07580 -0.40300
O 	O 	0.31820 0.96000 0.99780 -0.50300
O 	O 	0.44280 0.86500 0.06810 -0.52700
O 	O 	0.75620 0.08270 0.20410 -0.39700
O 	O 	0.56320 0.08100 0.16900 -0.41500
O 	O 	0.30210 0.32020 0.31560 -0.43300
O 	O 	0.37030 0.42240 0.42420 -0.40200
O 	O 	0.81820 0.46000 0.50220 -0.51700
O 	O 	0.94280 0.36500 0.43190 -0.52900
O 	O 	0.74380 0.41730 0.70410 -0.40300
O 	O 	0.93680 0.41900 0.66900 -0.41900
O 	O 	0.19790 0.17980 0.81560 -0.43200
O 	O 	0.12970 0.07760 0.92420 -0.40300
O 	O 	0.68180 0.04000 0.00220 -0.50300
O 	O 	0.55720 0.13500 0.93190 -0.52700
