data_crystal

_cell_length_a 20.01640
_cell_length_b 7.39720
_cell_length_c 25.71200
_cell_angle_alpha 90.00000
_cell_angle_beta  105.09300
_cell_angle_gamma 90.00000

_symmetry_space_group_name_	'P 1'
_symmetry_space_group_name_H-M	'P 1'

loop_
_symmetry_equiv_pos_as_xyz
  x,y,z

loop_
_atom_site_label
_atom_site_type_symbol
_atom_site_fract_x
_atom_site_fract_y
_atom_site_fract_z
_atom_site_charge
C 	C 	0.07403 0.97604 0.09608 0.07400
H 	H 	0.05650 0.85970 0.08890 0.03000
C 	C 	0.20945 0.95983 0.47847 0.01500
C 	C 	0.14977 0.18815 0.15679 0.29300
C 	C 	0.14117 0.85632 0.18221 0.43800
C 	C 	0.12149 0.01063 0.14491 -0.27700
C 	C 	0.22269 0.99740 0.42914 0.05600
H 	H 	0.24570 0.91280 0.41340 0.02800
C 	C 	0.20175 0.16103 0.40315 -0.25400
C 	C 	0.05209 0.10931 0.05786 -0.01100
C 	C 	0.12489 0.32140 0.11765 -0.27100
H 	H 	0.14100 0.43920 0.12440 0.10400
C 	C 	0.07774 0.28415 0.06990 0.06700
H 	H 	0.06260 0.37650 0.04510 0.02000
C 	C 	0.15246 0.24621 0.47640 -0.22700
H 	H 	0.12810 0.32780 0.49200 0.13200
C 	C 	0.21631 0.20075 0.35033 0.47000
C 	C 	0.16724 0.28742 0.42801 0.31200
C 	C 	0.17404 0.08417 0.50123 0.04400
H 	H 	0.16460 0.05770 0.53400 0.03300
Ce	Ce	0.20261 0.53716 0.24894 2.11000
H 	H 	0.16040 0.46610 0.37700 0.23100
N 	N 	0.23072 0.79919 0.50886 -0.07100
N 	N 	0.00692 0.08100 0.00571 -0.07400
O 	O 	0.19700 0.23033 0.20192 -0.61700
O 	O 	0.19110 0.86942 0.22445 -0.67300
O 	O 	0.10987 0.70813 0.17297 -0.48300
O 	O 	0.20535 0.36010 0.33246 -0.56300
O 	O 	0.23798 0.07631 0.32581 -0.52200
O 	O 	0.14794 0.45176 0.40600 -0.42400
C 	C 	0.57403 0.47604 0.09608 0.04600
H 	H 	0.55650 0.35970 0.08890 0.03900
C 	C 	0.70945 0.45983 0.47847 0.02000
C 	C 	0.64977 0.68815 0.15679 0.28500
C 	C 	0.64117 0.35632 0.18221 0.42500
C 	C 	0.62149 0.51063 0.14491 -0.25200
C 	C 	0.72269 0.49740 0.42914 0.04600
H 	H 	0.74570 0.41280 0.41340 0.03000
C 	C 	0.70175 0.66103 0.40315 -0.24700
C 	C 	0.55209 0.60931 0.05786 0.00600
C 	C 	0.62489 0.82140 0.11765 -0.25900
H 	H 	0.64100 0.93920 0.12440 0.10300
C 	C 	0.57774 0.78415 0.06990 0.05600
H 	H 	0.56260 0.87650 0.04510 0.02400
C 	C 	0.65246 0.74621 0.47640 -0.22300
H 	H 	0.62810 0.82780 0.49200 0.13100
C 	C 	0.71631 0.70075 0.35033 0.46700
C 	C 	0.66724 0.78742 0.42801 0.30900
C 	C 	0.67404 0.58417 0.50123 0.04000
H 	H 	0.66460 0.55770 0.53400 0.03300
Ce	Ce	0.70261 0.03716 0.24894 2.10600
H 	H 	0.66040 0.96610 0.37700 0.23200
N 	N 	0.73072 0.29919 0.50886 -0.07100
N 	N 	0.50692 0.58100 0.00571 -0.07600
O 	O 	0.69700 0.73033 0.20192 -0.61000
O 	O 	0.69110 0.36942 0.22445 -0.67400
O 	O 	0.60987 0.20813 0.17297 -0.48300
O 	O 	0.70535 0.86010 0.33246 -0.55800
O 	O 	0.73798 0.57631 0.32581 -0.51800
O 	O 	0.64794 0.95176 0.40600 -0.42100
C 	C 	0.92597 0.97604 0.40392 0.07300
H 	H 	0.94350 0.85970 0.41110 0.03100
C 	C 	0.79055 0.95983 0.02153 0.01500
C 	C 	0.85023 0.18815 0.34321 0.29300
C 	C 	0.85883 0.85632 0.31779 0.43700
C 	C 	0.87851 0.01063 0.35509 -0.27500
C 	C 	0.77731 0.99740 0.07086 0.05800
H 	H 	0.75430 0.91280 0.08660 0.02800
C 	C 	0.79825 0.16103 0.09685 -0.25600
C 	C 	0.94791 0.10931 0.44214 -0.00900
C 	C 	0.87511 0.32140 0.38235 -0.27000
H 	H 	0.85900 0.43920 0.37560 0.10400
C 	C 	0.92226 0.28415 0.43010 0.06600
H 	H 	0.93740 0.37650 0.45490 0.02000
C 	C 	0.84754 0.24621 0.02360 -0.23000
H 	H 	0.87190 0.32780 0.00800 0.13300
C 	C 	0.78369 0.20075 0.14967 0.47000
C 	C 	0.83276 0.28742 0.07199 0.31300
C 	C 	0.82596 0.08417 0.99877 0.04600
H 	H 	0.83540 0.05770 0.96600 0.03300
Ce	Ce	0.79739 0.53716 0.25106 2.11000
H 	H 	0.83960 0.46610 0.12300 0.23100
N 	N 	0.76928 0.79919 0.99114 -0.07100
N 	N 	0.99308 0.08100 0.49429 -0.07400
O 	O 	0.80300 0.23033 0.29808 -0.61600
O 	O 	0.80890 0.86942 0.27555 -0.67300
O 	O 	0.89013 0.70813 0.32703 -0.48200
O 	O 	0.79465 0.36010 0.16754 -0.56300
O 	O 	0.76202 0.07631 0.17419 -0.52200
O 	O 	0.85206 0.45176 0.09400 -0.42400
C 	C 	0.42597 0.47604 0.40392 0.04600
H 	H 	0.44350 0.35970 0.41110 0.03900
C 	C 	0.29055 0.45983 0.02153 0.02100
C 	C 	0.35023 0.68815 0.34321 0.28400
C 	C 	0.35883 0.35632 0.31779 0.42500
C 	C 	0.37851 0.51063 0.35509 -0.25200
C 	C 	0.27731 0.49740 0.07086 0.04600
H 	H 	0.25430 0.41280 0.08660 0.03000
C 	C 	0.29825 0.66103 0.09685 -0.24600
C 	C 	0.44791 0.60931 0.44214 0.00600
C 	C 	0.37511 0.82140 0.38235 -0.25900
H 	H 	0.35900 0.93920 0.37560 0.10300
C 	C 	0.42226 0.78415 0.43010 0.05500
H 	H 	0.43740 0.87650 0.45490 0.02400
C 	C 	0.34754 0.74621 0.02360 -0.22200
H 	H 	0.37190 0.82780 0.00800 0.13000
C 	C 	0.28369 0.70075 0.14967 0.46700
C 	C 	0.33276 0.78742 0.07199 0.30800
C 	C 	0.32596 0.58417 0.99877 0.03900
H 	H 	0.33540 0.55770 0.96600 0.03400
Ce	Ce	0.29739 0.03716 0.25106 2.10600
H 	H 	0.33960 0.96610 0.12300 0.23200
N 	N 	0.26928 0.29919 0.99114 -0.07100
N 	N 	0.49308 0.58100 0.49429 -0.07600
O 	O 	0.30300 0.73033 0.29808 -0.61000
O 	O 	0.30890 0.36942 0.27555 -0.67400
O 	O 	0.39013 0.20813 0.32703 -0.48300
O 	O 	0.29465 0.86010 0.16754 -0.55800
O 	O 	0.26202 0.57631 0.17419 -0.51700
O 	O 	0.35206 0.95176 0.09400 -0.42100
C 	C 	0.92597 0.02396 0.90392 0.07500
H 	H 	0.94350 0.14030 0.91110 0.03100
C 	C 	0.79055 0.04017 0.52153 0.01600
C 	C 	0.85023 0.81185 0.84321 0.29400
C 	C 	0.85883 0.14368 0.81779 0.43800
C 	C 	0.87851 0.98937 0.85509 -0.27700
C 	C 	0.77731 0.00260 0.57086 0.05600
H 	H 	0.75430 0.08720 0.58660 0.02800
C 	C 	0.79825 0.83897 0.59685 -0.25400
C 	C 	0.94791 0.89069 0.94214 -0.01100
C 	C 	0.87511 0.67860 0.88235 -0.27100
H 	H 	0.85900 0.56080 0.87560 0.10400
C 	C 	0.92226 0.71585 0.93010 0.06700
H 	H 	0.93740 0.62350 0.95490 0.02000
C 	C 	0.84754 0.75379 0.52360 -0.22700
H 	H 	0.87190 0.67220 0.50800 0.13200
C 	C 	0.78369 0.79925 0.64967 0.47000
C 	C 	0.83276 0.71258 0.57199 0.31200
C 	C 	0.82596 0.91583 0.49877 0.04400
H 	H 	0.83540 0.94230 0.46600 0.03300
Ce	Ce	0.79739 0.46284 0.75106 2.11000
H 	H 	0.83960 0.53390 0.62300 0.23100
N 	N 	0.76928 0.20081 0.49114 -0.07100
N 	N 	0.99308 0.91900 0.99429 -0.07400
O 	O 	0.80300 0.76967 0.79808 -0.61700
O 	O 	0.80890 0.13058 0.77555 -0.67300
O 	O 	0.89013 0.29187 0.82703 -0.48300
O 	O 	0.79465 0.63990 0.66754 -0.56300
O 	O 	0.76202 0.92369 0.67419 -0.52200
O 	O 	0.85206 0.54824 0.59400 -0.42400
C 	C 	0.42597 0.52396 0.90392 0.04600
H 	H 	0.44350 0.64030 0.91110 0.03900
C 	C 	0.29055 0.54017 0.52153 0.02000
C 	C 	0.35023 0.31185 0.84321 0.28500
C 	C 	0.35883 0.64368 0.81779 0.42500
C 	C 	0.37851 0.48937 0.85509 -0.25200
C 	C 	0.27731 0.50260 0.57086 0.04600
H 	H 	0.25430 0.58720 0.58660 0.03000
C 	C 	0.29825 0.33897 0.59685 -0.24700
C 	C 	0.44791 0.39069 0.94214 0.00600
C 	C 	0.37511 0.17860 0.88235 -0.25900
H 	H 	0.35900 0.06080 0.87560 0.10300
C 	C 	0.42226 0.21585 0.93010 0.05600
H 	H 	0.43740 0.12350 0.95490 0.02400
C 	C 	0.34754 0.25379 0.52360 -0.22300
H 	H 	0.37190 0.17220 0.50800 0.13100
C 	C 	0.28369 0.29925 0.64967 0.46700
C 	C 	0.33276 0.21258 0.57199 0.30900
C 	C 	0.32596 0.41583 0.49877 0.04000
H 	H 	0.33540 0.44230 0.46600 0.03300
Ce	Ce	0.29739 0.96284 0.75106 2.10600
H 	H 	0.33960 0.03390 0.62300 0.23200
N 	N 	0.26928 0.70081 0.49114 -0.07100
N 	N 	0.49308 0.41900 0.99429 -0.07600
O 	O 	0.30300 0.26967 0.79808 -0.61000
O 	O 	0.30890 0.63058 0.77555 -0.67400
O 	O 	0.39013 0.79187 0.82703 -0.48300
O 	O 	0.29465 0.13990 0.66754 -0.55800
O 	O 	0.26202 0.42369 0.67419 -0.51800
O 	O 	0.35206 0.04824 0.59400 -0.42100
C 	C 	0.07403 0.02396 0.59608 0.07300
H 	H 	0.05650 0.14030 0.58890 0.03100
C 	C 	0.20945 0.04017 0.97847 0.01500
C 	C 	0.14977 0.81185 0.65679 0.29300
C 	C 	0.14117 0.14368 0.68221 0.43700
C 	C 	0.12149 0.98937 0.64491 -0.27500
C 	C 	0.22269 0.00260 0.92914 0.05800
H 	H 	0.24570 0.08720 0.91340 0.02800
C 	C 	0.20175 0.83897 0.90315 -0.25600
C 	C 	0.05209 0.89069 0.55786 -0.00900
C 	C 	0.12489 0.67860 0.61765 -0.27000
H 	H 	0.14100 0.56080 0.62440 0.10400
C 	C 	0.07774 0.71585 0.56990 0.06600
H 	H 	0.06260 0.62350 0.54510 0.02000
C 	C 	0.15246 0.75379 0.97640 -0.23000
H 	H 	0.12810 0.67220 0.99200 0.13300
C 	C 	0.21631 0.79925 0.85033 0.47000
C 	C 	0.16724 0.71258 0.92801 0.31300
C 	C 	0.17404 0.91583 0.00123 0.04600
H 	H 	0.16460 0.94230 0.03400 0.03300
Ce	Ce	0.20261 0.46284 0.74894 2.11000
H 	H 	0.16040 0.53390 0.87700 0.23100
N 	N 	0.23072 0.20081 0.00886 -0.07100
N 	N 	0.00692 0.91900 0.50571 -0.07400
O 	O 	0.19700 0.76967 0.70192 -0.61600
O 	O 	0.19110 0.13058 0.72445 -0.67300
O 	O 	0.10987 0.29187 0.67297 -0.48200
O 	O 	0.20535 0.63990 0.83246 -0.56300
O 	O 	0.23798 0.92369 0.82581 -0.52200
O 	O 	0.14794 0.54824 0.90600 -0.42400
C 	C 	0.57403 0.52396 0.59608 0.04600
H 	H 	0.55650 0.64030 0.58890 0.03900
C 	C 	0.70945 0.54017 0.97847 0.02100
C 	C 	0.64977 0.31185 0.65679 0.28400
C 	C 	0.64117 0.64368 0.68221 0.42500
C 	C 	0.62149 0.48937 0.64491 -0.25200
C 	C 	0.72269 0.50260 0.92914 0.04600
H 	H 	0.74570 0.58720 0.91340 0.03000
C 	C 	0.70175 0.33897 0.90315 -0.24600
C 	C 	0.55209 0.39069 0.55786 0.00600
C 	C 	0.62489 0.17860 0.61765 -0.25900
H 	H 	0.64100 0.06080 0.62440 0.10300
C 	C 	0.57774 0.21585 0.56990 0.05500
H 	H 	0.56260 0.12350 0.54510 0.02400
C 	C 	0.65246 0.25379 0.97640 -0.22200
H 	H 	0.62810 0.17220 0.99200 0.13000
C 	C 	0.71631 0.29925 0.85033 0.46700
C 	C 	0.66724 0.21258 0.92801 0.30800
C 	C 	0.67404 0.41583 0.00123 0.03900
H 	H 	0.66460 0.44230 0.03400 0.03400
Ce	Ce	0.70261 0.96284 0.74894 2.10600
H 	H 	0.66040 0.03390 0.87700 0.23200
N 	N 	0.73072 0.70081 0.00886 -0.07100
N 	N 	0.50692 0.41900 0.50571 -0.07600
O 	O 	0.69700 0.26967 0.70192 -0.61000
O 	O 	0.69110 0.63058 0.72445 -0.67400
O 	O 	0.60987 0.79187 0.67297 -0.48300
O 	O 	0.70535 0.13990 0.83246 -0.55800
O 	O 	0.73798 0.42369 0.82581 -0.51700
O 	O 	0.64794 0.04824 0.90600 -0.42100
