data_crystal

_cell_length_a 15.52800
_cell_length_b 15.99900
_cell_length_c 13.51900
_cell_angle_alpha 90.00000
_cell_angle_beta  112.64300
_cell_angle_gamma 90.00000

_symmetry_space_group_name_	'P 1'
_symmetry_space_group_name_H-M	'P 1'

loop_
_symmetry_equiv_pos_as_xyz
  x,y,z

loop_
_atom_site_label
_atom_site_type_symbol
_atom_site_fract_x
_atom_site_fract_y
_atom_site_fract_z
_atom_site_charge
Nd	Nd	0.42680 0.04172 0.59229 2.31000
O 	O 	0.41410 0.01050 0.76430 -0.70800
O 	O 	0.28390 0.99050 0.57070 -0.54700
O 	O 	0.44350 0.88760 0.59220 -0.51000
O 	O 	0.38910 0.01040 0.40760 -0.69100
O 	O 	0.49960 0.15340 0.52790 -0.55500
C 	C 	0.35750 0.99120 0.80940 0.65500
C 	C 	0.22880 0.97440 0.62360 0.43300
C 	C 	0.46600 0.83360 0.54340 0.52600
C 	C 	0.25970 0.98170 0.73440 -0.39100
C 	C 	0.13540 0.95750 0.56300 -0.31900
C 	C 	0.44910 0.74470 0.56060 -0.21000
C 	C 	0.19710 0.97210 0.78450 0.13700
H 	H 	0.11480 0.95270 0.48890 0.15500
C 	C 	0.07290 0.94790 0.61310 0.10100
C 	C 	0.48240 0.68000 0.51580 0.03100
C 	C 	0.40310 0.72870 0.63400 0.24800
C 	C 	0.10380 0.95520 0.72390 -0.04800
H 	H 	0.21780 0.97700 0.85860 -0.02900
H 	H 	0.01040 0.93660 0.57260 0.00400
H 	H 	0.51700 0.69150 0.47440 0.02700
C 	C 	0.46300 0.59760 0.53400 0.02700
C 	C 	0.38700 0.64410 0.65400 -0.17300
O 	O 	0.37250 0.78490 0.67990 -0.21900
N 	N 	0.04280 0.95340 0.78210 -0.07500
C 	C 	0.41600 0.58030 0.60200 0.00200
N 	N 	0.50400 0.53670 0.48700 -0.08200
H 	H 	0.35790 0.63110 0.70040 0.10400
H 	H 	0.40290 0.52500 0.61350 0.04100
Nd	Nd	0.57320 0.04172 0.90771 2.29200
O 	O 	0.58590 0.01050 0.73570 -0.70700
O 	O 	0.71610 0.99050 0.92930 -0.54100
O 	O 	0.55650 0.88760 0.90780 -0.51000
O 	O 	0.61090 0.01040 0.09240 -0.68600
O 	O 	0.50040 0.15340 0.97210 -0.56100
C 	C 	0.64250 0.99120 0.69060 0.65100
C 	C 	0.77120 0.97440 0.87640 0.42100
C 	C 	0.53400 0.83360 0.95660 0.53300
C 	C 	0.74030 0.98170 0.76560 -0.38600
C 	C 	0.86460 0.95750 0.93700 -0.29300
C 	C 	0.55090 0.74470 0.93940 -0.21600
C 	C 	0.80290 0.97210 0.71550 0.13000
H 	H 	0.88520 0.95270 0.01110 0.13800
C 	C 	0.92710 0.94790 0.88690 0.08500
C 	C 	0.51760 0.68000 0.98420 0.04100
C 	C 	0.59690 0.72870 0.86600 0.25000
C 	C 	0.89620 0.95520 0.77610 -0.04200
H 	H 	0.78220 0.97700 0.64140 -0.02900
H 	H 	0.98960 0.93660 0.92740 0.01100
H 	H 	0.48300 0.69150 0.02560 0.02200
C 	C 	0.53700 0.59760 0.96600 0.02400
C 	C 	0.61300 0.64410 0.84600 -0.17500
O 	O 	0.62750 0.78490 0.82010 -0.22000
N 	N 	0.95720 0.95340 0.71790 -0.07800
C 	C 	0.58400 0.58030 0.89800 0.00500
N 	N 	0.49600 0.53670 0.01300 -0.08200
H 	H 	0.64210 0.63110 0.79960 0.10500
H 	H 	0.59710 0.52500 0.88650 0.04000
Nd	Nd	0.57320 0.95828 0.40771 2.30900
O 	O 	0.58590 0.98950 0.23570 -0.70900
O 	O 	0.71610 0.00950 0.42930 -0.54800
O 	O 	0.55650 0.11240 0.40780 -0.51100
O 	O 	0.61090 0.98960 0.59240 -0.69200
O 	O 	0.50040 0.84660 0.47210 -0.55600
C 	C 	0.64250 0.00880 0.19060 0.65400
C 	C 	0.77120 0.02560 0.37640 0.43200
C 	C 	0.53400 0.16640 0.45660 0.52500
C 	C 	0.74030 0.01830 0.26560 -0.39200
C 	C 	0.86460 0.04250 0.43700 -0.32000
C 	C 	0.55090 0.25530 0.43940 -0.21100
C 	C 	0.80290 0.02790 0.21550 0.13700
H 	H 	0.88520 0.04730 0.51110 0.15500
C 	C 	0.92710 0.05210 0.38690 0.10100
C 	C 	0.51760 0.32000 0.48420 0.03100
C 	C 	0.59690 0.27130 0.36600 0.24800
C 	C 	0.89620 0.04480 0.27610 -0.04800
H 	H 	0.78220 0.02300 0.14140 -0.02900
H 	H 	0.98960 0.06340 0.42740 0.00400
H 	H 	0.48300 0.30850 0.52560 0.02700
C 	C 	0.53700 0.40240 0.46600 0.02700
C 	C 	0.61300 0.35590 0.34600 -0.17300
O 	O 	0.62750 0.21510 0.32010 -0.21900
N 	N 	0.95720 0.04660 0.21790 -0.07500
C 	C 	0.58400 0.41970 0.39800 0.00200
N 	N 	0.49600 0.46330 0.51300 -0.08200
H 	H 	0.64210 0.36890 0.29960 0.10400
H 	H 	0.59710 0.47500 0.38650 0.04100
Nd	Nd	0.42680 0.95828 0.09229 2.29200
O 	O 	0.41410 0.98950 0.26430 -0.70700
O 	O 	0.28390 0.00950 0.07070 -0.54100
O 	O 	0.44350 0.11240 0.09220 -0.51000
O 	O 	0.38910 0.98960 0.90760 -0.68600
O 	O 	0.49960 0.84660 0.02790 -0.56100
C 	C 	0.35750 0.00880 0.30940 0.65100
C 	C 	0.22880 0.02560 0.12360 0.42100
C 	C 	0.46600 0.16640 0.04340 0.53300
C 	C 	0.25970 0.01830 0.23440 -0.38600
C 	C 	0.13540 0.04250 0.06300 -0.29300
C 	C 	0.44910 0.25530 0.06060 -0.21600
C 	C 	0.19710 0.02790 0.28450 0.13000
H 	H 	0.11480 0.04730 0.98890 0.13800
C 	C 	0.07290 0.05210 0.11310 0.08500
C 	C 	0.48240 0.32000 0.01580 0.04100
C 	C 	0.40310 0.27130 0.13400 0.25000
C 	C 	0.10380 0.04480 0.22390 -0.04200
H 	H 	0.21780 0.02300 0.35860 -0.02900
H 	H 	0.01040 0.06340 0.07260 0.01100
H 	H 	0.51700 0.30850 0.97440 0.02200
C 	C 	0.46300 0.40240 0.03400 0.02400
C 	C 	0.38700 0.35590 0.15400 -0.17500
O 	O 	0.37250 0.21510 0.17990 -0.22000
N 	N 	0.04280 0.04660 0.28210 -0.07800
C 	C 	0.41600 0.41970 0.10200 0.00500
N 	N 	0.50400 0.46330 0.98700 -0.08200
H 	H 	0.35790 0.36890 0.20040 0.10500
H 	H 	0.40290 0.47500 0.11350 0.04000
O 	O 	0.50000 0.15320 0.75000 -0.46000
O 	O 	0.50000 0.84680 0.25000 -0.46000
