data_crystal

_cell_length_a 8.75250
_cell_length_b 8.74920
_cell_length_c 27.49800
_cell_angle_alpha 90.00000
_cell_angle_beta  102.07400
_cell_angle_gamma 90.00000

_symmetry_space_group_name_	'P 1'
_symmetry_space_group_name_H-M	'P 1'

loop_
_symmetry_equiv_pos_as_xyz
  x,y,z

loop_
_atom_site_label
_atom_site_type_symbol
_atom_site_fract_x
_atom_site_fract_y
_atom_site_fract_z
_atom_site_charge
Dy	Dy	0.49668 0.06372 0.23349 1.68600
O 	O 	0.57130 0.84300 0.28149 -0.57700
O 	O 	0.39820 0.14120 0.30323 -0.51800
O 	O 	0.71390 0.12620 0.29112 -0.46600
O 	O 	0.50110 0.87210 0.17620 -0.51600
O 	O 	0.33730 0.17860 0.16025 -0.45600
C 	C 	0.65560 0.81410 0.32457 0.42000
C 	C 	0.43980 0.24990 0.33421 0.50100
C 	C 	0.76250 0.08490 0.33803 0.29000
C 	C 	0.74150 0.93620 0.35588 -0.21900
C 	C 	0.41580 0.22830 0.38579 -0.27100
C 	C 	0.84440 0.19120 0.37230 -0.21800
C 	C 	0.80960 0.89980 0.40528 0.05600
C 	C 	0.34370 0.09610 0.39927 0.31900
C 	C 	0.46310 0.34090 0.42094 0.07000
H 	H 	0.85540 0.29080 0.36170 0.10800
C 	C 	0.90800 0.15410 0.42025 0.04200
C 	C 	0.89370 0.00440 0.43770 -0.01000
H 	H 	0.79750 0.80130 0.41660 0.03500
C 	C 	0.32250 0.08100 0.44755 -0.27700
O 	O 	0.29450 0.98240 0.36667 -0.41200
C 	C 	0.43670 0.32620 0.46868 -0.00500
H 	H 	0.51320 0.42760 0.41250 0.02700
H 	H 	0.96120 0.22780 0.44170 0.03100
N 	N 	0.96220 0.95080 0.48572 -0.06600
H 	H 	0.27650 0.99280 0.45680 0.16200
C 	C 	0.36830 0.19380 0.48160 0.07400
H 	H 	0.32400 0.00000 0.33990 0.23000
N 	N 	0.47600 0.43840 0.50688 -0.07300
H 	H 	0.35350 0.18170 0.51390 0.01900
Dy	Dy	0.50332 0.56372 0.26651 1.72100
O 	O 	0.42870 0.34300 0.21851 -0.58800
O 	O 	0.60180 0.64120 0.19677 -0.51800
O 	O 	0.28610 0.62620 0.20888 -0.46700
O 	O 	0.49890 0.37210 0.32380 -0.52700
O 	O 	0.66270 0.67860 0.33975 -0.45200
C 	C 	0.34440 0.31410 0.17543 0.42300
C 	C 	0.56020 0.74990 0.16579 0.50100
C 	C 	0.23750 0.58490 0.16197 0.30900
C 	C 	0.25850 0.43620 0.14412 -0.23700
C 	C 	0.58420 0.72830 0.11421 -0.27100
C 	C 	0.15560 0.69120 0.12770 -0.21800
C 	C 	0.19040 0.39980 0.09472 0.03400
C 	C 	0.65630 0.59610 0.10073 0.33400
C 	C 	0.53690 0.84090 0.07906 0.06800
H 	H 	0.14460 0.79080 0.13830 0.11100
C 	C 	0.09200 0.65410 0.07975 0.03400
C 	C 	0.10630 0.50440 0.06230 0.02000
H 	H 	0.20250 0.30130 0.08340 0.04000
C 	C 	0.67750 0.58100 0.05245 -0.25200
O 	O 	0.70550 0.48240 0.13333 -0.45100
C 	C 	0.56330 0.82620 0.03132 0.00300
H 	H 	0.48680 0.92760 0.08750 0.03200
H 	H 	0.03880 0.72780 0.05830 0.03600
N 	N 	0.03780 0.45080 0.01428 -0.08000
H 	H 	0.72350 0.49280 0.04320 0.14400
C 	C 	0.63170 0.69380 0.01840 0.06100
H 	H 	0.67600 0.50000 0.16010 0.25600
N 	N 	0.52400 0.93840 0.99312 -0.06800
H 	H 	0.64650 0.68170 0.98610 0.02600
Dy	Dy	0.50332 0.93628 0.76651 1.72600
O 	O 	0.42870 0.15700 0.71851 -0.59100
O 	O 	0.60180 0.85880 0.69677 -0.51800
O 	O 	0.28610 0.87380 0.70888 -0.46900
O 	O 	0.49890 0.12790 0.82380 -0.53000
O 	O 	0.66270 0.82140 0.83975 -0.45300
C 	C 	0.34440 0.18590 0.67543 0.42200
C 	C 	0.56020 0.75010 0.66579 0.50300
C 	C 	0.23750 0.91510 0.66197 0.30800
C 	C 	0.25850 0.06380 0.64412 -0.23300
C 	C 	0.58420 0.77170 0.61421 -0.27100
C 	C 	0.15560 0.80880 0.62770 -0.21000
C 	C 	0.19040 0.10020 0.59472 0.01500
C 	C 	0.65630 0.90390 0.60073 0.33000
C 	C 	0.53690 0.65910 0.57906 0.06500
H 	H 	0.14460 0.70920 0.63830 0.10500
C 	C 	0.09200 0.84590 0.57975 0.02200
C 	C 	0.10630 0.99560 0.56230 0.04200
H 	H 	0.20250 0.19870 0.58340 0.04800
C 	C 	0.67750 0.91900 0.55245 -0.22600
O 	O 	0.70550 0.01760 0.63333 -0.45300
C 	C 	0.56330 0.67380 0.53132 0.00600
H 	H 	0.48680 0.57240 0.58750 0.02800
H 	H 	0.03880 0.77220 0.55830 0.03900
N 	N 	0.03780 0.04920 0.51428 -0.09100
H 	H 	0.72350 0.00720 0.54320 0.12900
C 	C 	0.63170 0.80620 0.51840 0.04600
H 	H 	0.67600 0.00000 0.66010 0.25500
N 	N 	0.52400 0.56160 0.49312 -0.07400
H 	H 	0.64650 0.81830 0.48610 0.03300
Dy	Dy	0.49668 0.43628 0.73349 1.71900
O 	O 	0.57130 0.65700 0.78149 -0.59000
O 	O 	0.39820 0.35880 0.80323 -0.52000
O 	O 	0.71390 0.37380 0.79112 -0.46900
O 	O 	0.50110 0.62790 0.67620 -0.52800
O 	O 	0.33730 0.32140 0.66025 -0.45400
C 	C 	0.65560 0.68590 0.82457 0.42300
C 	C 	0.43980 0.25010 0.83421 0.50500
C 	C 	0.76250 0.41510 0.83803 0.30700
C 	C 	0.74150 0.56380 0.85588 -0.23400
C 	C 	0.41580 0.27170 0.88579 -0.27700
C 	C 	0.84440 0.30880 0.87230 -0.21600
C 	C 	0.80960 0.60020 0.90528 0.03200
C 	C 	0.34370 0.40390 0.89927 0.33600
C 	C 	0.46310 0.15910 0.92094 0.07100
H 	H 	0.85540 0.20920 0.86170 0.10600
C 	C 	0.90800 0.34590 0.92025 0.03200
C 	C 	0.89370 0.49560 0.93770 0.02100
H 	H 	0.79750 0.69870 0.91660 0.04300
C 	C 	0.32250 0.41900 0.94755 -0.25400
O 	O 	0.29450 0.51760 0.86667 -0.45000
C 	C 	0.43670 0.17380 0.96868 -0.00300
H 	H 	0.51320 0.07240 0.91250 0.02500
H 	H 	0.96120 0.27220 0.94170 0.03400
N 	N 	0.96220 0.54920 0.98572 -0.08000
H 	H 	0.27650 0.50720 0.95680 0.14600
C 	C 	0.36830 0.30620 0.98160 0.06200
H 	H 	0.32400 0.50000 0.83990 0.25600
N 	N 	0.47600 0.06160 0.00688 -0.08000
H 	H 	0.35350 0.31830 0.01390 0.02400
