data_crystal

_cell_length_a 8.81810
_cell_length_b 8.78790
_cell_length_c 27.53870
_cell_angle_alpha 90.00000
_cell_angle_beta  102.18300
_cell_angle_gamma 90.00000

_symmetry_space_group_name_	'P 1'
_symmetry_space_group_name_H-M	'P 1'

loop_
_symmetry_equiv_pos_as_xyz
  x,y,z

loop_
_atom_site_label
_atom_site_type_symbol
_atom_site_fract_x
_atom_site_fract_y
_atom_site_fract_z
_atom_site_charge
C 	C 	0.55990 0.25290 0.66486 0.47100
C 	C 	0.58380 0.27290 0.61349 -0.25900
C 	C 	0.53720 0.15950 0.57871 0.06000
H 	H 	0.48810 0.07320 0.58750 0.03100
C 	C 	0.56300 0.17320 0.53088 0.00700
C 	C 	0.63220 0.30430 0.51786 0.05200
H 	H 	0.64730 0.31530 0.48560 0.02800
C 	C 	0.67870 0.41770 0.55177 -0.24300
H 	H 	0.72580 0.50470 0.54250 0.14300
C 	C 	0.65580 0.40350 0.59968 0.32500
C 	C 	0.34250 0.68730 0.67507 0.40500
C 	C 	0.25710 0.56490 0.64393 -0.21500
C 	C 	0.23640 0.41670 0.66178 0.28900
C 	C 	0.15490 0.31080 0.62769 -0.20300
H 	H 	0.14360 0.21190 0.63840 0.10600
C 	C 	0.09190 0.34740 0.57955 0.02400
H 	H 	0.04000 0.27380 0.55800 0.03800
C 	C 	0.10540 0.49610 0.56243 0.02900
C 	C 	0.18910 0.60060 0.59450 0.02100
H 	H 	0.20100 0.69840 0.58300 0.04800
Gd	Gd	0.50385 0.43828 0.76681 1.49400
H 	H 	0.67000 0.50000 0.65790 0.25700
N 	N 	0.52420 0.06120 0.49315 -0.08100
N 	N 	0.03780 0.54910 0.51422 -0.08000
O 	O 	0.49940 0.13240 0.67557 -0.48000
O 	O 	0.33510 0.82130 0.65927 -0.41500
O 	O 	0.60130 0.36200 0.69562 -0.47200
O 	O 	0.28370 0.37670 0.70875 -0.42100
O 	O 	0.42600 0.65940 0.71798 -0.53100
O 	O 	0.70500 0.51700 0.63210 -0.44000
C 	C 	0.44010 0.75290 0.83514 0.46800
C 	C 	0.41620 0.77290 0.88651 -0.25400
C 	C 	0.46280 0.65950 0.92129 0.05300
H 	H 	0.51190 0.57320 0.91250 0.03400
C 	C 	0.43700 0.67320 0.96912 0.01500
C 	C 	0.36780 0.80430 0.98214 0.03600
H 	H 	0.35270 0.81530 0.01440 0.03700
C 	C 	0.32130 0.91770 0.94823 -0.21500
H 	H 	0.27420 0.00470 0.95750 0.12700
C 	C 	0.34420 0.90350 0.90032 0.32000
C 	C 	0.65750 0.18730 0.82493 0.40500
C 	C 	0.74290 0.06490 0.85607 -0.21500
C 	C 	0.76360 0.91670 0.83822 0.29100
C 	C 	0.84510 0.81080 0.87231 -0.19800
H 	H 	0.85640 0.71190 0.86160 0.10500
C 	C 	0.90810 0.84740 0.92045 0.01400
H 	H 	0.96000 0.77380 0.94200 0.04300
C 	C 	0.89460 0.99610 0.93757 0.04900
C 	C 	0.81090 0.10060 0.90550 0.00500
H 	H 	0.79900 0.19840 0.91700 0.05200
Gd	Gd	0.49615 0.93828 0.73319 1.50300
H 	H 	0.33000 -0.00000 0.84210 0.25600
N 	N 	0.47580 0.56120 0.00685 -0.07500
N 	N 	0.96220 0.04910 0.98578 -0.09100
O 	O 	0.50060 0.63240 0.82443 -0.47700
O 	O 	0.66490 0.32130 0.84073 -0.41600
O 	O 	0.39870 0.86200 0.80438 -0.47000
O 	O 	0.71630 0.87670 0.79125 -0.42100
O 	O 	0.57400 0.15940 0.78202 -0.53300
O 	O 	0.29500 0.01700 0.86790 -0.44300
C 	C 	0.44010 0.74710 0.33514 0.46600
C 	C 	0.41620 0.72710 0.38651 -0.25400
C 	C 	0.46280 0.84050 0.42129 0.05600
H 	H 	0.51190 0.92680 0.41250 0.03800
C 	C 	0.43700 0.82680 0.46912 0.01200
C 	C 	0.36780 0.69570 0.48214 0.04900
H 	H 	0.35270 0.68470 0.51440 0.03000
C 	C 	0.32130 0.58230 0.44823 -0.23900
H 	H 	0.27420 0.49530 0.45750 0.14100
C 	C 	0.34420 0.59650 0.40032 0.32300
C 	C 	0.65750 0.31270 0.32493 0.40600
C 	C 	0.74290 0.43510 0.35607 -0.21700
C 	C 	0.76360 0.58330 0.33822 0.29100
C 	C 	0.84510 0.68920 0.37231 -0.20500
H 	H 	0.85640 0.78810 0.36160 0.11100
C 	C 	0.90810 0.65260 0.42045 0.02500
H 	H 	0.96000 0.72620 0.44200 0.04000
C 	C 	0.89460 0.50390 0.43757 0.02800
C 	C 	0.81090 0.39940 0.40550 0.02300
H 	H 	0.79900 0.30160 0.41700 0.04500
Gd	Gd	0.49615 0.56171 0.23319 1.49600
H 	H 	0.33000 0.50000 0.34210 0.25700
N 	N 	0.47580 0.93880 0.50685 -0.06800
N 	N 	0.96220 0.45090 0.48578 -0.08100
O 	O 	0.50060 0.86760 0.32443 -0.46600
O 	O 	0.66490 0.17870 0.34073 -0.41900
O 	O 	0.39870 0.63800 0.30438 -0.46900
O 	O 	0.71630 0.62330 0.29125 -0.41900
O 	O 	0.57400 0.34060 0.28202 -0.53000
O 	O 	0.29500 0.48300 0.36790 -0.44100
C 	C 	0.55990 0.24710 0.16486 0.46600
C 	C 	0.58380 0.22710 0.11349 -0.25400
C 	C 	0.53720 0.34050 0.07871 0.05800
H 	H 	0.48810 0.42680 0.08750 0.03300
C 	C 	0.56300 0.32680 0.03088 0.00400
C 	C 	0.63220 0.19570 0.01786 0.06000
H 	H 	0.64730 0.18470 0.98560 0.02400
C 	C 	0.67870 0.08230 0.05177 -0.26500
H 	H 	0.72580 0.99530 0.04250 0.15900
C 	C 	0.65580 0.09650 0.09968 0.30900
C 	C 	0.34250 0.81270 0.17507 0.40300
C 	C 	0.25710 0.93510 0.14393 -0.20100
C 	C 	0.23640 0.08330 0.16178 0.27300
C 	C 	0.15490 0.18920 0.12769 -0.20700
H 	H 	0.14360 0.28810 0.13840 0.10800
C 	C 	0.09190 0.15260 0.07955 0.03500
H 	H 	0.04000 0.22620 0.05800 0.03500
C 	C 	0.10540 0.00390 0.06243 -0.00400
C 	C 	0.18910 0.89940 0.09450 0.04700
H 	H 	0.20100 0.80160 0.08300 0.03900
Gd	Gd	0.50385 0.06172 0.26681 1.46600
H 	H 	0.67000 0.00000 0.15790 0.23200
N 	N 	0.52420 0.43880 0.99315 -0.07300
N 	N 	0.03780 0.95090 0.01422 -0.06600
O 	O 	0.49940 0.36760 0.17557 -0.47600
O 	O 	0.33510 0.67870 0.15927 -0.41500
O 	O 	0.60130 0.13800 0.19562 -0.47000
O 	O 	0.28370 0.12330 0.20875 -0.41900
O 	O 	0.42600 0.84060 0.21798 -0.52000
O 	O 	0.70500 0.98300 0.13210 -0.40300
