data_crystal

_cell_length_a 15.51600
_cell_length_b 15.89900
_cell_length_c 13.27000
_cell_angle_alpha 90.00000
_cell_angle_beta  112.46900
_cell_angle_gamma 90.00000

_symmetry_space_group_name_	'P 1'
_symmetry_space_group_name_H-M	'P 1'

loop_
_symmetry_equiv_pos_as_xyz
  x,y,z

loop_
_atom_site_label
_atom_site_type_symbol
_atom_site_fract_x
_atom_site_fract_y
_atom_site_fract_z
_atom_site_charge
Eu	Eu	0.57264 0.54262 0.40634 1.75000
O 	O 	0.71450 0.48710 0.43060 -0.48400
O 	O 	0.55260 0.39300 0.40430 -0.43100
O 	O 	0.58080 0.51360 0.23340 -0.68300
O 	O 	0.61320 0.48880 0.09040 -0.56900
O 	O 	0.50010 0.34910 0.52990 -0.52600
C 	C 	0.76750 0.47550 0.37870 0.38400
C 	C 	0.53280 0.33640 0.45850 0.48000
C 	C 	0.64080 0.49390 0.19210 0.56600
C 	C 	0.86310 0.45730 0.43780 -0.29200
C 	C 	0.73820 0.47890 0.26240 -0.34700
C 	C 	0.54850 0.24620 0.43410 -0.19700
C 	C 	0.92490 0.44750 0.38900 0.08600
H 	H 	0.88430 0.45180 0.51320 0.14100
C 	C 	0.80250 0.46910 0.21520 0.11200
C 	C 	0.51590 0.18130 0.47890 0.00600
C 	C 	0.59570 0.22670 0.36460 0.25200
C 	C 	0.59100 0.83700 0.28400 -1.23100
H 	H 	0.98680 0.43490 0.43110 0.00400
C 	C 	0.89650 0.45600 0.27560 -0.03900
H 	H 	0.78210 0.47150 0.13960 -0.01400
H 	H 	0.48280 0.19350 0.52260 0.04000
C 	C 	0.53190 0.09800 0.45970 0.00500
C 	C 	0.61310 0.14430 0.35100 -0.21900
O 	O 	0.62990 0.28650 0.32010 -0.20900
H 	H 	0.60720 0.84530 0.22140 0.36200
H 	H 	0.63470 0.79980 0.33430 0.30200
H 	H 	0.59220 0.89060 0.31840 0.39900
N 	N 	0.95720 0.45450 0.21950 -0.08000
C 	C 	0.58300 0.08180 0.39500 0.04200
N 	N 	0.49200 0.03760 0.50950 -0.09200
H 	H 	0.64760 0.13150 0.30910 0.11000
H 	H 	0.59610 0.02660 0.38270 0.00100
H 	H 	0.55760 0.71990 0.25930 1.88300
Eu	Eu	0.42736 0.54262 0.09366 1.75000
O 	O 	0.28550 0.48710 0.06940 -0.48400
O 	O 	0.44740 0.39300 0.09570 -0.43100
O 	O 	0.41920 0.51360 0.26660 -0.68300
O 	O 	0.38680 0.48880 0.40960 -0.56900
O 	O 	0.49990 0.34910 0.97010 -0.52600
C 	C 	0.23250 0.47550 0.12130 0.38300
C 	C 	0.46720 0.33640 0.04150 0.48000
C 	C 	0.35920 0.49390 0.30790 0.56600
C 	C 	0.13690 0.45730 0.06220 -0.29100
C 	C 	0.26180 0.47890 0.23760 -0.34700
C 	C 	0.45150 0.24620 0.06590 -0.19700
C 	C 	0.07510 0.44750 0.11100 0.08600
H 	H 	0.11570 0.45180 0.98680 0.14000
C 	C 	0.19750 0.46910 0.28480 0.11200
C 	C 	0.48410 0.18130 0.02110 0.00600
C 	C 	0.40430 0.22670 0.13540 0.25200
C 	C 	0.40900 0.83700 0.21600 -1.23100
H 	H 	0.01320 0.43490 0.06890 0.00400
C 	C 	0.10350 0.45600 0.22440 -0.03900
H 	H 	0.21790 0.47150 0.36040 -0.01400
H 	H 	0.51720 0.19350 0.97740 0.04000
C 	C 	0.46810 0.09800 0.04030 0.00500
C 	C 	0.38690 0.14430 0.14900 -0.21900
O 	O 	0.37010 0.28650 0.17990 -0.20900
H 	H 	0.39280 0.84530 0.27860 0.36200
H 	H 	0.36530 0.79980 0.16570 0.30200
H 	H 	0.40780 0.89060 0.18160 0.39900
N 	N 	0.04280 0.45450 0.28050 -0.08000
C 	C 	0.41700 0.08180 0.10500 0.04200
N 	N 	0.50800 0.03760 0.99050 -0.09200
H 	H 	0.35240 0.13150 0.19090 0.11100
H 	H 	0.40390 0.02660 0.11730 0.00100
H 	H 	0.44240 0.71990 0.24070 1.88300
Eu	Eu	0.42736 0.45738 0.59366 1.75000
O 	O 	0.28550 0.51290 0.56940 -0.48400
O 	O 	0.44740 0.60700 0.59570 -0.43100
O 	O 	0.41920 0.48640 0.76660 -0.68300
O 	O 	0.38680 0.51120 0.90960 -0.56900
O 	O 	0.49990 0.65090 0.47010 -0.52600
C 	C 	0.23250 0.52450 0.62130 0.38400
C 	C 	0.46720 0.66360 0.54150 0.48000
C 	C 	0.35920 0.50610 0.80790 0.56600
C 	C 	0.13690 0.54270 0.56220 -0.29200
C 	C 	0.26180 0.52110 0.73760 -0.34700
C 	C 	0.45150 0.75380 0.56590 -0.19700
C 	C 	0.07510 0.55250 0.61100 0.08600
H 	H 	0.11570 0.54820 0.48680 0.14100
C 	C 	0.19750 0.53090 0.78480 0.11200
C 	C 	0.48410 0.81870 0.52110 0.00600
C 	C 	0.40430 0.77330 0.63540 0.25200
C 	C 	0.40900 0.16300 0.71600 -1.23100
H 	H 	0.01320 0.56510 0.56890 0.00400
C 	C 	0.10350 0.54400 0.72440 -0.03900
H 	H 	0.21790 0.52850 0.86040 -0.01400
H 	H 	0.51720 0.80650 0.47740 0.04000
C 	C 	0.46810 0.90200 0.54030 0.00500
C 	C 	0.38690 0.85570 0.64900 -0.21900
O 	O 	0.37010 0.71350 0.67990 -0.20900
H 	H 	0.39280 0.15470 0.77860 0.36200
H 	H 	0.36530 0.20020 0.66570 0.30200
H 	H 	0.40780 0.10940 0.68160 0.39900
N 	N 	0.04280 0.54550 0.78050 -0.08000
C 	C 	0.41700 0.91820 0.60500 0.04200
N 	N 	0.50800 0.96240 0.49050 -0.09200
H 	H 	0.35240 0.86850 0.69090 0.11000
H 	H 	0.40390 0.97340 0.61730 0.00100
H 	H 	0.44240 0.28010 0.74070 1.88300
Eu	Eu	0.57264 0.45738 0.90634 1.75000
O 	O 	0.71450 0.51290 0.93060 -0.48400
O 	O 	0.55260 0.60700 0.90430 -0.43100
O 	O 	0.58080 0.48640 0.73340 -0.68300
O 	O 	0.61320 0.51120 0.59040 -0.56900
O 	O 	0.50010 0.65090 0.02990 -0.52600
C 	C 	0.76750 0.52450 0.87870 0.38300
C 	C 	0.53280 0.66360 0.95850 0.48000
C 	C 	0.64080 0.50610 0.69210 0.56600
C 	C 	0.86310 0.54270 0.93780 -0.29100
C 	C 	0.73820 0.52110 0.76240 -0.34700
C 	C 	0.54850 0.75380 0.93410 -0.19700
C 	C 	0.92490 0.55250 0.88900 0.08600
H 	H 	0.88430 0.54820 0.01320 0.14000
C 	C 	0.80250 0.53090 0.71520 0.11200
C 	C 	0.51590 0.81870 0.97890 0.00600
C 	C 	0.59570 0.77330 0.86460 0.25200
C 	C 	0.59100 0.16300 0.78400 -1.23100
H 	H 	0.98680 0.56510 0.93110 0.00400
C 	C 	0.89650 0.54400 0.77560 -0.03900
H 	H 	0.78210 0.52850 0.63960 -0.01400
H 	H 	0.48280 0.80650 0.02260 0.04000
C 	C 	0.53190 0.90200 0.95970 0.00500
C 	C 	0.61310 0.85570 0.85100 -0.21900
O 	O 	0.62990 0.71350 0.82010 -0.20900
H 	H 	0.60720 0.15470 0.72140 0.36200
H 	H 	0.63470 0.20020 0.83430 0.30200
H 	H 	0.59220 0.10940 0.81840 0.39900
N 	N 	0.95720 0.54550 0.71950 -0.08000
C 	C 	0.58300 0.91820 0.89500 0.04200
N 	N 	0.49200 0.96240 0.00950 -0.09200
H 	H 	0.64760 0.86850 0.80910 0.11100
H 	H 	0.59610 0.97340 0.88270 0.00100
H 	H 	0.55760 0.28010 0.75930 1.88300
O 	O 	0.50000 0.65330 0.25000 1.05800
C 	C 	0.50000 0.71700 0.25000 -4.91700
N 	N 	0.50000 0.79900 0.25000 0.83500
O 	O 	0.50000 0.34670 0.75000 1.05800
C 	C 	0.50000 0.28300 0.75000 -4.91700
N 	N 	0.50000 0.20100 0.75000 0.83500
