data_crystal

_cell_length_a 8.74200
_cell_length_b 8.72900
_cell_length_c 27.41500
_cell_angle_alpha 90.00000
_cell_angle_beta  102.19300
_cell_angle_gamma 90.00000

_symmetry_space_group_name_	'P 1'
_symmetry_space_group_name_H-M	'P 1'

loop_
_symmetry_equiv_pos_as_xyz
  x,y,z

loop_
_atom_site_label
_atom_site_type_symbol
_atom_site_fract_x
_atom_site_fract_y
_atom_site_fract_z
_atom_site_charge
Tb	Tb	0.50338 0.56274 0.76666 1.79400
O 	O 	0.66300 0.67870 0.84019 -0.46600
O 	O 	0.57220 0.84190 0.78165 -0.60700
C 	C 	0.65640 0.81420 0.82479 0.44000
C 	C 	0.74220 0.93590 0.85600 -0.24400
O 	O 	0.49980 0.87000 0.67584 -0.54600
O 	O 	0.71450 0.12460 0.79096 -0.48600
O 	O 	0.39850 0.13960 0.80380 -0.54000
C 	C 	0.81070 0.89940 0.90540 0.05100
C 	C 	0.76280 0.08440 0.83815 0.31400
C 	C 	0.44050 0.24930 0.83451 0.53100
H 	H 	0.79920 0.80060 0.91690 0.03700
C 	C 	0.89410 0.00420 0.93738 0.00500
C 	C 	0.84400 0.19090 0.87215 -0.22800
C 	C 	0.41590 0.22750 0.88595 -0.30700
C 	C 	0.90810 0.15350 0.92052 0.04200
N 	N 	0.96250 0.95040 0.98602 -0.07600
H 	H 	0.85480 0.29060 0.86140 0.10900
C 	C 	0.34360 0.09660 0.89978 0.36600
C 	C 	0.46350 0.34050 0.92109 0.09200
H 	H 	0.96080 0.22730 0.94220 0.03200
C 	C 	0.32090 0.08180 0.94768 -0.28900
O 	O 	0.29560 0.98220 0.86721 -0.49600
C 	C 	0.43770 0.32600 0.96886 -0.01700
H 	H 	0.51350 0.42740 0.91250 0.01900
C 	C 	0.36750 0.19470 0.98187 0.08500
H 	H 	0.27340 0.99410 0.95680 0.16200
H 	H 	0.32130 0.00360 0.84190 0.29300
N 	N 	0.47490 0.43860 0.00689 -0.07100
H 	H 	0.35190 0.18340 0.01420 0.01800
Tb	Tb	0.49662 0.06274 0.73334 1.77600
O 	O 	0.33700 0.17870 0.65981 -0.46900
O 	O 	0.42780 0.34190 0.71835 -0.61400
C 	C 	0.34360 0.31420 0.67521 0.44200
C 	C 	0.25780 0.43590 0.64400 -0.25500
O 	O 	0.50020 0.37000 0.82416 -0.55100
O 	O 	0.28550 0.62460 0.70904 -0.48700
O 	O 	0.60150 0.63960 0.69620 -0.54100
C 	C 	0.18930 0.39940 0.59460 0.04700
C 	C 	0.23720 0.58440 0.66185 0.32500
C 	C 	0.55950 0.74930 0.66549 0.53200
H 	H 	0.20080 0.30060 0.58310 0.03700
C 	C 	0.10590 0.50420 0.56262 0.01200
C 	C 	0.15600 0.69090 0.62785 -0.23100
C 	C 	0.58410 0.72750 0.61405 -0.31100
C 	C 	0.09190 0.65350 0.57948 0.04300
N 	N 	0.03750 0.45040 0.51398 -0.07900
H 	H 	0.14520 0.79060 0.63860 0.11200
C 	C 	0.65640 0.59660 0.60022 0.37700
C 	C 	0.53650 0.84050 0.57891 0.09500
H 	H 	0.03920 0.72730 0.55780 0.03200
C 	C 	0.67910 0.58180 0.55232 -0.28900
O 	O 	0.70440 0.48220 0.63279 -0.51800
C 	C 	0.56230 0.82600 0.53114 -0.01800
H 	H 	0.48650 0.92740 0.58750 0.02000
C 	C 	0.63250 0.69470 0.51813 0.08700
H 	H 	0.72660 0.49410 0.54320 0.15900
H 	H 	0.67870 0.50360 0.65810 0.30700
N 	N 	0.52510 0.93860 0.49311 -0.07200
H 	H 	0.64810 0.68340 0.48580 0.01700
Tb	Tb	0.49662 0.43726 0.23334 1.79300
O 	O 	0.33700 0.32130 0.15981 -0.46700
O 	O 	0.42780 0.15810 0.21835 -0.60800
C 	C 	0.34360 0.18580 0.17521 0.43900
C 	C 	0.25780 0.06410 0.14400 -0.24400
O 	O 	0.50020 0.13000 0.32416 -0.54600
O 	O 	0.28550 0.87540 0.20904 -0.48600
O 	O 	0.60150 0.86040 0.19620 -0.54000
C 	C 	0.18930 0.10060 0.09460 0.05100
C 	C 	0.23720 0.91560 0.16185 0.31400
C 	C 	0.55950 0.75070 0.16549 0.53100
H 	H 	0.20080 0.19940 0.08310 0.03700
C 	C 	0.10590 0.99580 0.06262 0.00500
C 	C 	0.15600 0.80910 0.12785 -0.22800
C 	C 	0.58410 0.77250 0.11405 -0.30700
C 	C 	0.09190 0.84650 0.07948 0.04200
N 	N 	0.03750 0.04960 0.01398 -0.07600
H 	H 	0.14520 0.70940 0.13860 0.10900
C 	C 	0.65640 0.90340 0.10022 0.36600
C 	C 	0.53650 0.65950 0.07891 0.09200
H 	H 	0.03920 0.77270 0.05780 0.03200
C 	C 	0.67910 0.91820 0.05232 -0.28900
O 	O 	0.70440 0.01780 0.13279 -0.49600
C 	C 	0.56230 0.67400 0.03114 -0.01700
H 	H 	0.48650 0.57260 0.08750 0.01900
C 	C 	0.63250 0.80530 0.01813 0.08500
H 	H 	0.72660 0.00590 0.04320 0.16200
H 	H 	0.67870 0.99640 0.15810 0.29300
N 	N 	0.52510 0.56140 0.99311 -0.07100
H 	H 	0.64810 0.81660 0.98580 0.01800
Tb	Tb	0.50338 0.93726 0.26666 1.77600
O 	O 	0.66300 0.82130 0.34019 -0.46900
O 	O 	0.57220 0.65810 0.28165 -0.61400
C 	C 	0.65640 0.68580 0.32479 0.44200
C 	C 	0.74220 0.56410 0.35600 -0.25500
O 	O 	0.49980 0.63000 0.17584 -0.55100
O 	O 	0.71450 0.37540 0.29096 -0.48700
O 	O 	0.39850 0.36040 0.30380 -0.54100
C 	C 	0.81070 0.60060 0.40540 0.04700
C 	C 	0.76280 0.41560 0.33815 0.32500
C 	C 	0.44050 0.25070 0.33451 0.53200
H 	H 	0.79920 0.69940 0.41690 0.03700
C 	C 	0.89410 0.49580 0.43738 0.01200
C 	C 	0.84400 0.30910 0.37215 -0.23100
C 	C 	0.41590 0.27250 0.38595 -0.31100
C 	C 	0.90810 0.34650 0.42052 0.04300
N 	N 	0.96250 0.54960 0.48602 -0.07900
H 	H 	0.85480 0.20940 0.36140 0.11200
C 	C 	0.34360 0.40340 0.39978 0.37700
C 	C 	0.46350 0.15950 0.42109 0.09500
H 	H 	0.96080 0.27270 0.44220 0.03200
C 	C 	0.32090 0.41820 0.44768 -0.28900
O 	O 	0.29560 0.51780 0.36721 -0.51800
C 	C 	0.43770 0.17400 0.46886 -0.01800
H 	H 	0.51350 0.07260 0.41250 0.02000
C 	C 	0.36750 0.30530 0.48187 0.08700
H 	H 	0.27340 0.50590 0.45680 0.15900
H 	H 	0.32130 0.49640 0.34190 0.30700
N 	N 	0.47490 0.06140 0.50689 -0.07200
H 	H 	0.35190 0.31660 0.51420 0.01700
