data_crystal

_cell_length_a 15.53540
_cell_length_b 15.89810
_cell_length_c 13.31110
_cell_angle_alpha 90.00000
_cell_angle_beta  112.59200
_cell_angle_gamma 90.00000

_symmetry_space_group_name_	'P 1'
_symmetry_space_group_name_H-M	'P 1'

loop_
_symmetry_equiv_pos_as_xyz
  x,y,z

loop_
_atom_site_label
_atom_site_type_symbol
_atom_site_fract_x
_atom_site_fract_y
_atom_site_fract_z
_atom_site_charge
C 	C 	0.10500 0.04470 0.72500 -0.04600
C 	C 	0.19680 0.02910 0.78520 0.12300
H 	H 	0.21630 0.02420 0.86030 -0.01700
C 	C 	0.23070 0.02520 0.62100 0.41800
C 	C 	0.13730 0.04440 0.56290 -0.32100
H 	H 	0.11660 0.05150 0.48790 0.15500
C 	C 	0.07520 0.05330 0.61130 0.10900
H 	H 	0.01300 0.06500 0.56940 0.00100
C 	C 	0.44860 0.25340 0.56760 -0.21100
C 	C 	0.26360 0.02010 0.73720 -0.37000
C 	C 	0.46870 0.40080 0.54060 0.02200
C 	C 	0.48230 0.31920 0.52220 0.02800
H 	H 	0.51480 0.30630 0.47840 0.02900
C 	C 	0.35940 0.00390 0.80630 0.62900
C 	C 	0.46650 0.16210 0.54280 0.53500
C 	C 	0.41710 0.41820 0.60200 0.01800
H 	H 	0.40490 0.47410 0.61250 0.03900
C 	C 	0.38300 0.35660 0.64840 -0.19300
H 	H 	0.34810 0.37020 0.68930 0.11100
C 	C 	0.40190 0.27330 0.63290 0.25900
C 	C 	0.59500 0.66000 0.77300 0.00400
N 	N 	0.50870 0.46320 0.49240 -0.07800
N 	N 	0.04250 0.04480 0.78110 -0.07400
O 	O 	0.44520 0.10870 0.59500 -0.50300
O 	O 	0.36860 0.21380 0.67860 -0.21000
O 	O 	0.38700 0.01050 0.90910 -0.63700
O 	O 	0.49980 0.15050 0.47150 -0.56900
O 	O 	0.41830 0.98460 0.76590 -0.70400
O 	O 	0.28500 0.01270 0.56840 -0.52500
Sm	Sm	0.42709 0.95720 0.59258 2.20400
C 	C 	0.89500 0.04470 0.77500 -0.04000
C 	C 	0.80320 0.02910 0.71480 0.11700
H 	H 	0.78370 0.02420 0.63970 -0.01600
C 	C 	0.76930 0.02520 0.87900 0.40700
C 	C 	0.86270 0.04440 0.93710 -0.29500
H 	H 	0.88340 0.05150 0.01210 0.14000
C 	C 	0.92480 0.05330 0.88870 0.09400
H 	H 	0.98700 0.06500 0.93060 0.00800
C 	C 	0.55140 0.25340 0.93240 -0.21500
C 	C 	0.73640 0.02010 0.76280 -0.36400
C 	C 	0.53130 0.40080 0.95940 0.01900
C 	C 	0.51770 0.31920 0.97780 0.03700
H 	H 	0.48520 0.30630 0.02160 0.02300
C 	C 	0.64060 0.00390 0.69370 0.62600
C 	C 	0.53350 0.16210 0.95720 0.54300
C 	C 	0.58290 0.41820 0.89800 0.02100
H 	H 	0.59510 0.47410 0.88750 0.03800
C 	C 	0.61700 0.35660 0.85160 -0.19600
H 	H 	0.65190 0.37020 0.81070 0.11200
C 	C 	0.59810 0.27330 0.86710 0.26200
C 	C 	0.40500 0.66000 0.72700 0.00300
N 	N 	0.49130 0.46320 0.00760 -0.07800
N 	N 	0.95750 0.04480 0.71890 -0.07700
O 	O 	0.55480 0.10870 0.90500 -0.50300
O 	O 	0.63140 0.21380 0.82140 -0.21100
O 	O 	0.61300 0.01050 0.59090 -0.64200
O 	O 	0.50020 0.15050 0.02850 -0.57400
O 	O 	0.58170 0.98460 0.73410 -0.70200
O 	O 	0.71500 0.01270 0.93160 -0.51800
Sm	Sm	0.57291 0.95720 0.90742 2.19000
C 	C 	0.89500 0.95530 0.27500 -0.04600
C 	C 	0.80320 0.97090 0.21480 0.12300
H 	H 	0.78370 0.97580 0.13970 -0.01700
C 	C 	0.76930 0.97480 0.37900 0.41800
C 	C 	0.86270 0.95560 0.43710 -0.32100
H 	H 	0.88340 0.94850 0.51210 0.15500
C 	C 	0.92480 0.94670 0.38870 0.10900
H 	H 	0.98700 0.93500 0.43060 0.00100
C 	C 	0.55140 0.74660 0.43240 -0.21100
C 	C 	0.73640 0.97990 0.26280 -0.37000
C 	C 	0.53130 0.59920 0.45940 0.02200
C 	C 	0.51770 0.68080 0.47780 0.02800
H 	H 	0.48520 0.69370 0.52160 0.02900
C 	C 	0.64060 0.99610 0.19370 0.62900
C 	C 	0.53350 0.83790 0.45720 0.53500
C 	C 	0.58290 0.58180 0.39800 0.01800
H 	H 	0.59510 0.52590 0.38750 0.03900
C 	C 	0.61700 0.64340 0.35160 -0.19300
H 	H 	0.65190 0.62980 0.31070 0.11100
C 	C 	0.59810 0.72670 0.36710 0.25900
C 	C 	0.40500 0.34000 0.22700 0.00400
N 	N 	0.49130 0.53680 0.50760 -0.07800
N 	N 	0.95750 0.95520 0.21890 -0.07400
O 	O 	0.55480 0.89130 0.40500 -0.50300
O 	O 	0.63140 0.78620 0.32140 -0.21000
O 	O 	0.61300 0.98950 0.09090 -0.63700
O 	O 	0.50020 0.84950 0.52850 -0.56900
O 	O 	0.58170 0.01540 0.23410 -0.70400
O 	O 	0.71500 0.98730 0.43160 -0.52500
Sm	Sm	0.57291 0.04280 0.40742 2.20400
C 	C 	0.10500 0.95530 0.22500 -0.04000
C 	C 	0.19680 0.97090 0.28520 0.11700
H 	H 	0.21630 0.97580 0.36030 -0.01600
C 	C 	0.23070 0.97480 0.12100 0.40700
C 	C 	0.13730 0.95560 0.06290 -0.29500
H 	H 	0.11660 0.94850 0.98790 0.14000
C 	C 	0.07520 0.94670 0.11130 0.09400
H 	H 	0.01300 0.93500 0.06940 0.00800
C 	C 	0.44860 0.74660 0.06760 -0.21500
C 	C 	0.26360 0.97990 0.23720 -0.36400
C 	C 	0.46870 0.59920 0.04060 0.01900
C 	C 	0.48230 0.68080 0.02220 0.03700
H 	H 	0.51480 0.69370 0.97840 0.02300
C 	C 	0.35940 0.99610 0.30630 0.62600
C 	C 	0.46650 0.83790 0.04280 0.54300
C 	C 	0.41710 0.58180 0.10200 0.02100
H 	H 	0.40490 0.52590 0.11250 0.03800
C 	C 	0.38300 0.64340 0.14840 -0.19600
H 	H 	0.34810 0.62980 0.18930 0.11200
C 	C 	0.40190 0.72670 0.13290 0.26200
C 	C 	0.59500 0.34000 0.27300 0.00300
N 	N 	0.50870 0.53680 0.99240 -0.07800
N 	N 	0.04250 0.95520 0.28110 -0.07700
O 	O 	0.44520 0.89130 0.09500 -0.50300
O 	O 	0.36860 0.78620 0.17860 -0.21100
O 	O 	0.38700 0.98950 0.40910 -0.64200
O 	O 	0.49980 0.84950 0.97150 -0.57400
O 	O 	0.41830 0.01540 0.26590 -0.70200
O 	O 	0.28500 0.98730 0.06840 -0.51800
Sm	Sm	0.42709 0.04280 0.09258 2.19000
C 	C 	0.50000 0.78400 0.75000 0.46700
N 	N 	0.50000 0.69200 0.75000 -0.19900
O 	O 	0.50000 0.84420 0.75000 -0.70300
C 	C 	0.50000 0.21600 0.25000 0.46700
N 	N 	0.50000 0.30800 0.25000 -0.19900
O 	O 	0.50000 0.15580 0.25000 -0.70300
