data_crystal

_cell_length_a 8.83040
_cell_length_b 8.82570
_cell_length_c 27.64400
_cell_angle_alpha 90.00000
_cell_angle_beta  102.14200
_cell_angle_gamma 90.00000

_symmetry_space_group_name_	'P 1'
_symmetry_space_group_name_H-M	'P 1'

loop_
_symmetry_equiv_pos_as_xyz
  x,y,z

loop_
_atom_site_label
_atom_site_type_symbol
_atom_site_fract_x
_atom_site_fract_y
_atom_site_fract_z
_atom_site_charge
C 	C 	0.55930 0.75310 0.16440 0.47200
C 	C 	0.58410 0.77360 0.11300 -0.25600
C 	C 	0.65470 0.90330 0.09900 0.31200
C 	C 	0.67670 0.91550 0.05100 -0.24300
H 	H 	0.72370 0.00180 0.04160 0.14400
C 	C 	0.63080 0.80360 0.01740 0.05200
H 	H 	0.64530 0.81500 0.98520 0.02900
C 	C 	0.56240 0.67220 0.03060 0.00800
C 	C 	0.53730 0.65950 0.07860 0.05600
H 	H 	0.48870 0.57360 0.08750 0.03100
C 	C 	0.34100 0.18790 0.17430 0.40900
C 	C 	0.25500 0.06650 0.14360 -0.21000
C 	C 	0.23540 0.91830 0.16210 0.28100
C 	C 	0.15430 0.81250 0.12750 -0.19900
H 	H 	0.14400 0.71350 0.13800 0.10300
C 	C 	0.09090 0.84950 0.07980 0.02400
H 	H 	0.03750 0.77650 0.05850 0.03800
C 	C 	0.10550 0.99640 0.06250 0.01900
C 	C 	0.18760 0.10050 0.09440 0.02900
H 	H 	0.19910 0.19780 0.08280 0.04400
H 	H 	0.67300 0.99100 0.15690 0.24600
Ho	Ho	0.50379 0.93907 0.26706 1.56500
N 	N 	0.52420 0.55990 0.99320 -0.07400
N 	N 	0.03740 0.04800 0.01410 -0.07800
O 	O 	0.49830 0.63450 0.17514 -0.49500
O 	O 	0.33380 0.32050 0.15876 -0.42900
O 	O 	0.60010 0.86330 0.19481 -0.48300
O 	O 	0.70330 0.01690 0.13100 -0.42600
O 	O 	0.28210 0.87870 0.20872 -0.43500
O 	O 	0.42480 0.15950 0.21738 -0.54300
C 	C 	0.44070 0.25310 0.33560 0.47200
C 	C 	0.41590 0.27360 0.38700 -0.25900
C 	C 	0.34530 0.40330 0.40100 0.32100
C 	C 	0.32330 0.41550 0.44900 -0.24200
H 	H 	0.27630 0.50180 0.45840 0.14100
C 	C 	0.36920 0.30360 0.48260 0.05300
H 	H 	0.35470 0.31500 0.51480 0.02800
C 	C 	0.43760 0.17220 0.46940 0.00800
C 	C 	0.46270 0.15950 0.42140 0.05800
H 	H 	0.51130 0.07360 0.41250 0.03200
C 	C 	0.65900 0.68790 0.32570 0.41100
C 	C 	0.74500 0.56650 0.35640 -0.21900
C 	C 	0.76460 0.41830 0.33790 0.29000
C 	C 	0.84570 0.31250 0.37250 -0.20200
H 	H 	0.85600 0.21350 0.36200 0.10500
C 	C 	0.90910 0.34950 0.42020 0.02400
H 	H 	0.96250 0.27650 0.44150 0.03900
C 	C 	0.89450 0.49640 0.43750 0.02600
C 	C 	0.81240 0.60050 0.40560 0.02500
H 	H 	0.80090 0.69780 0.41720 0.04500
H 	H 	0.32700 0.49100 0.34310 0.25600
Ho	Ho	0.49621 0.43907 0.23294 1.57900
N 	N 	0.47580 0.05990 0.50680 -0.07400
N 	N 	0.96260 0.54800 0.48590 -0.08000
O 	O 	0.50170 0.13450 0.32486 -0.49000
O 	O 	0.66620 0.82050 0.34124 -0.43000
O 	O 	0.39990 0.36330 0.30519 -0.48300
O 	O 	0.29670 0.51690 0.36900 -0.44100
O 	O 	0.71790 0.37870 0.29128 -0.43500
O 	O 	0.57520 0.65950 0.28262 -0.54800
C 	C 	0.44070 0.24690 0.83560 0.47100
C 	C 	0.41590 0.22640 0.88700 -0.25700
C 	C 	0.34530 0.09670 0.90100 0.31200
C 	C 	0.32330 0.08450 0.94900 -0.24300
H 	H 	0.27630 0.99820 0.95840 0.14400
C 	C 	0.36920 0.19640 0.98260 0.05200
H 	H 	0.35470 0.18500 0.01480 0.02900
C 	C 	0.43760 0.32780 0.96940 0.00800
C 	C 	0.46270 0.34050 0.92140 0.05600
H 	H 	0.51130 0.42640 0.91250 0.03100
C 	C 	0.65900 0.81210 0.82570 0.40900
C 	C 	0.74500 0.93350 0.85640 -0.21000
C 	C 	0.76460 0.08170 0.83790 0.28100
C 	C 	0.84570 0.18750 0.87250 -0.19900
H 	H 	0.85600 0.28650 0.86200 0.10300
C 	C 	0.90910 0.15050 0.92020 0.02400
H 	H 	0.96250 0.22350 0.94150 0.03800
C 	C 	0.89450 0.00360 0.93750 0.01900
C 	C 	0.81240 0.89950 0.90560 0.02900
H 	H 	0.80090 0.80220 0.91720 0.04400
H 	H 	0.32700 0.00900 0.84310 0.24600
Ho	Ho	0.49621 0.06093 0.73294 1.56500
N 	N 	0.47580 0.44010 0.00680 -0.07400
N 	N 	0.96260 0.95200 0.98590 -0.07800
O 	O 	0.50170 0.36550 0.82486 -0.49500
O 	O 	0.66620 0.67950 0.84124 -0.42900
O 	O 	0.39990 0.13670 0.80519 -0.48300
O 	O 	0.29670 0.98310 0.86900 -0.42600
O 	O 	0.71790 0.12130 0.79128 -0.43500
O 	O 	0.57520 0.84050 0.78262 -0.54300
C 	C 	0.55930 0.74690 0.66440 0.47200
C 	C 	0.58410 0.72640 0.61300 -0.25900
C 	C 	0.65470 0.59670 0.59900 0.32100
C 	C 	0.67670 0.58450 0.55100 -0.24200
H 	H 	0.72370 0.49820 0.54160 0.14100
C 	C 	0.63080 0.69640 0.51740 0.05300
H 	H 	0.64530 0.68500 0.48520 0.02800
C 	C 	0.56240 0.82780 0.53060 0.00800
C 	C 	0.53730 0.84050 0.57860 0.05800
H 	H 	0.48870 0.92640 0.58750 0.03200
C 	C 	0.34100 0.31210 0.67430 0.41100
C 	C 	0.25500 0.43350 0.64360 -0.21900
C 	C 	0.23540 0.58170 0.66210 0.29000
C 	C 	0.15430 0.68750 0.62750 -0.20200
H 	H 	0.14400 0.78650 0.63800 0.10500
C 	C 	0.09090 0.65050 0.57980 0.02400
H 	H 	0.03750 0.72350 0.55850 0.03900
C 	C 	0.10550 0.50360 0.56250 0.02600
C 	C 	0.18760 0.39950 0.59440 0.02500
H 	H 	0.19910 0.30220 0.58280 0.04500
H 	H 	0.67300 0.50900 0.65690 0.25600
Ho	Ho	0.50379 0.56093 0.76706 1.57900
N 	N 	0.52420 0.94010 0.49320 -0.07400
N 	N 	0.03740 0.45200 0.51410 -0.08000
O 	O 	0.49830 0.86550 0.67514 -0.49000
O 	O 	0.33380 0.17950 0.65876 -0.43000
O 	O 	0.60010 0.63670 0.69481 -0.48300
O 	O 	0.70330 0.48310 0.63100 -0.44100
O 	O 	0.28210 0.62130 0.70872 -0.43500
O 	O 	0.42480 0.34050 0.71738 -0.54800
