data_crystal

_cell_length_a 11.16400
_cell_length_b 11.16400
_cell_length_c 10.63800
_cell_angle_alpha 90.00000
_cell_angle_beta  90.00000
_cell_angle_gamma 90.00000

_symmetry_space_group_name_	'P 1'
_symmetry_space_group_name_H-M	'P 1'

loop_
_symmetry_equiv_pos_as_xyz
  x,y,z

loop_
_atom_site_label
_atom_site_type_symbol
_atom_site_fract_x
_atom_site_fract_y
_atom_site_fract_z
_atom_site_charge
Cu	Cu	0.91399 0.08601 0.21482 0.80200
Cu	Cu	0.58511 0.41489 0.05521 0.72400
S 	S 	0.69474 0.30526 0.91107 -0.10200
N 	N 	0.82340 0.17660 0.09020 -0.25500
C 	C 	0.77150 0.22850 0.01650 -0.07500
Cu	Cu	0.08601 0.91399 0.21482 0.80200
Cu	Cu	0.41489 0.58511 0.05521 0.72400
S 	S 	0.30526 0.69474 0.91107 -0.10200
N 	N 	0.17660 0.82340 0.09020 -0.25500
C 	C 	0.22850 0.77150 0.01650 -0.07500
Cu	Cu	0.91399 0.91399 0.71482 0.81400
Cu	Cu	0.58511 0.58511 0.55521 0.79600
S 	S 	0.69474 0.69474 0.41107 -0.29400
N 	N 	0.82340 0.82340 0.59020 -0.27700
C 	C 	0.77150 0.77150 0.51650 0.09200
Cu	Cu	0.08601 0.08601 0.71482 0.81400
Cu	Cu	0.41489 0.41489 0.55521 0.79600
S 	S 	0.30526 0.30526 0.41107 -0.29400
N 	N 	0.17660 0.17660 0.59020 -0.27700
C 	C 	0.22850 0.22850 0.51650 0.09200
S 	S 	0.12252 0.12252 0.15749 -0.36900
N 	N 	0.10930 0.10930 0.89340 -0.17800
C 	C 	0.11330 0.11330 0.00150 -0.06500
S 	S 	0.87748 0.87748 0.15749 -0.36900
N 	N 	0.89070 0.89070 0.89340 -0.17800
C 	C 	0.88670 0.88670 0.00150 -0.06500
S 	S 	0.87748 0.12252 0.65749 -0.34800
N 	N 	0.89070 0.10930 0.39340 -0.29000
C 	C 	0.88670 0.11330 0.50150 0.08600
S 	S 	0.12252 0.87748 0.65749 -0.34800
N 	N 	0.10930 0.89070 0.39340 -0.29000
C 	C 	0.11330 0.88670 0.50150 0.08600
S 	S 	0.62448 0.62448 0.99766 -0.24300
N 	N 	0.60880 0.60880 0.73470 -0.28200
C 	C 	0.61420 0.61420 0.84170 0.07300
S 	S 	0.37552 0.37552 0.99766 -0.24300
N 	N 	0.39120 0.39120 0.73470 -0.28200
C 	C 	0.38580 0.38580 0.84170 0.07300
S 	S 	0.37552 0.62448 0.49766 -0.37600
N 	N 	0.39120 0.60880 0.23470 -0.30900
C 	C 	0.38580 0.61420 0.34170 0.07600
S 	S 	0.62448 0.37552 0.49766 -0.37600
N 	N 	0.60880 0.39120 0.23470 -0.30900
C 	C 	0.61420 0.38580 0.34170 0.07600
