data_crystal

_cell_length_a 8.89650
_cell_length_b 11.71930
_cell_length_c 52.41400
_cell_angle_alpha 90.00000
_cell_angle_beta  97.73400
_cell_angle_gamma 90.00000

_symmetry_space_group_name_	'P 1'
_symmetry_space_group_name_H-M	'P 1'

loop_
_symmetry_equiv_pos_as_xyz
  x,y,z

loop_
_atom_site_label
_atom_site_type_symbol
_atom_site_fract_x
_atom_site_fract_y
_atom_site_fract_z
_atom_site_charge
Cd	Cd	0.32424 0.11561 0.06917 1.16700
Cd	Cd	0.36123 0.15717 0.17937 1.16900
Cd	Cd	0.88661 0.44135 0.18323 1.16800
Cd	Cd	0.83484 0.41036 0.07268 1.15500
Cd	Cd	0.87510 0.90377 0.21059 1.15800
Cd	Cd	0.78286 0.86560 0.03895 1.15200
C 	C 	0.34690 0.12380 0.13560 -0.21300
N 	N 	0.34020 0.11600 0.11400 -0.21400
C 	C 	0.64080 0.29260 0.06860 -0.28900
N 	N 	0.53610 0.23230 0.06980 -0.20500
C 	C 	0.99520 0.95230 0.05480 -0.29300
N 	N 	0.10440 0.99780 0.06290 -0.19800
C 	C 	0.27050 0.13120 0.00310 -0.29600
N 	N 	0.29580 0.12650 0.02530 -0.20800
C 	C 	0.59040 0.92150 0.05900 -0.28700
N 	N 	0.48810 0.95870 0.06750 -0.20200
C 	C 	0.05240 0.32770 0.06840 -0.28500
N 	N 	0.15990 0.27690 0.06760 -0.19200
C 	C 	0.10520 0.37400 0.17460 -0.25100
N 	N 	0.21310 0.32450 0.17100 -0.19300
C 	C 	0.04360 0.00150 0.19120 -0.25000
N 	N 	0.14060 0.05380 0.18440 -0.20500
C 	C 	0.64120 0.97140 0.20130 -0.26400
N 	N 	0.52830 0.01300 0.19400 -0.19100
C 	C 	0.68780 0.33170 0.18030 -0.25800
N 	N 	0.57830 0.27160 0.17830 -0.19700
C 	C 	0.83580 0.45300 0.11450 -0.26000
N 	N 	0.82530 0.46640 0.13610 -0.18700
C 	C 	0.87370 0.62670 0.19100 -0.24000
N 	N 	0.87230 0.72180 0.19630 -0.22400
C 	C 	0.02690 0.39770 0.24890 -0.25500
N 	N 	0.96280 0.40360 0.22800 -0.19400
C 	C 	0.81440 0.58110 0.05430 -0.28800
N 	N 	0.80990 0.67790 0.04880 -0.23200
N 	N 	0.35410 0.22950 0.22250 -0.32800
H 	H 	0.26420 0.20300 0.21820 0.05800
H 	H 	0.38670 0.28460 0.21390 0.06400
C 	C 	0.45070 0.18140 0.24440 0.17500
C 	C 	0.39800 0.09370 0.25800 -0.25900
H 	H 	0.29910 0.06730 0.25410 0.08600
C 	C 	0.50000 0.04360 0.27860 0.14300
H 	H 	0.46500 0.98730 0.28880 -0.06600
C 	C 	0.65100 0.07960 0.28310 -0.25800
H 	H 	0.71860 0.04540 0.29580 0.08900
C 	C 	0.69500 0.16400 0.26860 0.15700
H 	H 	0.79500 0.19020 0.27210 -0.06700
C 	C 	0.60000 0.21460 0.24910 -0.27700
H 	H 	0.63630 0.27090 0.23900 0.09700
Cd	Cd	0.67576 0.61561 0.43083 1.16700
Cd	Cd	0.63877 0.65717 0.32063 1.16900
Cd	Cd	0.11339 0.94135 0.31677 1.16500
Cd	Cd	0.16516 0.91036 0.42732 1.15300
Cd	Cd	0.12490 0.40377 0.28941 1.16000
Cd	Cd	0.21714 0.36560 0.46105 1.15200
C 	C 	0.65310 0.62380 0.36440 -0.21500
N 	N 	0.65980 0.61600 0.38600 -0.21500
C 	C 	0.35920 0.79260 0.43140 -0.29000
N 	N 	0.46390 0.73230 0.43020 -0.20500
C 	C 	0.00480 0.45230 0.44520 -0.29400
N 	N 	0.89560 0.49780 0.43710 -0.19400
C 	C 	0.72950 0.63120 0.49690 -0.29600
N 	N 	0.70420 0.62650 0.47470 -0.20900
C 	C 	0.40960 0.42150 0.44100 -0.28500
N 	N 	0.51190 0.45870 0.43250 -0.20000
C 	C 	0.94760 0.82770 0.43160 -0.28600
N 	N 	0.84010 0.77690 0.43240 -0.19300
C 	C 	0.89480 0.87400 0.32540 -0.25300
N 	N 	0.78690 0.82450 0.32900 -0.19300
C 	C 	0.95640 0.50150 0.30880 -0.25800
N 	N 	0.85940 0.55380 0.31560 -0.20400
C 	C 	0.35880 0.47140 0.29870 -0.25000
N 	N 	0.47170 0.51300 0.30600 -0.20000
C 	C 	0.31220 0.83170 0.31970 -0.26000
N 	N 	0.42170 0.77160 0.32170 -0.19700
C 	C 	0.16420 0.95300 0.38550 -0.26300
N 	N 	0.17470 0.96640 0.36390 -0.18900
C 	C 	0.12630 0.12670 0.30900 -0.23200
N 	N 	0.12770 0.22180 0.30370 -0.22400
C 	C 	0.97310 0.89770 0.25110 -0.25700
N 	N 	0.03720 0.90360 0.27200 -0.19700
C 	C 	0.18560 0.08110 0.44570 -0.28300
N 	N 	0.19010 0.17790 0.45120 -0.23200
N 	N 	0.64590 0.72950 0.27750 -0.32400
H 	H 	0.73580 0.70300 0.28180 0.05600
H 	H 	0.61330 0.78460 0.28610 0.06200
C 	C 	0.54930 0.68140 0.25560 0.15600
C 	C 	0.60200 0.59370 0.24200 -0.23100
H 	H 	0.70090 0.56730 0.24590 0.07300
C 	C 	0.50000 0.54360 0.22140 0.09200
H 	H 	0.53500 0.48730 0.21120 -0.04100
C 	C 	0.34900 0.57960 0.21690 -0.22000
H 	H 	0.28140 0.54540 0.20420 0.07200
C 	C 	0.30500 0.66400 0.23140 0.12400
H 	H 	0.20500 0.69020 0.22790 -0.05800
C 	C 	0.40000 0.71460 0.25090 -0.25300
H 	H 	0.36370 0.77090 0.26100 0.08700
Cd	Cd	0.67576 0.88439 0.93083 1.16800
Cd	Cd	0.63877 0.84283 0.82063 1.17000
Cd	Cd	0.11339 0.55865 0.81677 1.16800
Cd	Cd	0.16516 0.58964 0.92732 1.15500
Cd	Cd	0.12490 0.09623 0.78941 1.15800
Cd	Cd	0.21714 0.13440 0.96105 1.15200
C 	C 	0.65310 0.87620 0.86440 -0.21300
N 	N 	0.65980 0.88400 0.88600 -0.21400
C 	C 	0.35920 0.70740 0.93140 -0.28900
N 	N 	0.46390 0.76770 0.93020 -0.20500
C 	C 	0.00480 0.04770 0.94520 -0.29300
N 	N 	0.89560 0.00220 0.93710 -0.19800
C 	C 	0.72950 0.86880 0.99690 -0.29600
N 	N 	0.70420 0.87350 0.97470 -0.20800
C 	C 	0.40960 0.07850 0.94100 -0.28700
N 	N 	0.51190 0.04130 0.93250 -0.20200
C 	C 	0.94760 0.67230 0.93160 -0.28500
N 	N 	0.84010 0.72310 0.93240 -0.19200
C 	C 	0.89480 0.62600 0.82540 -0.25100
N 	N 	0.78690 0.67550 0.82900 -0.19300
C 	C 	0.95640 0.99850 0.80880 -0.25000
N 	N 	0.85940 0.94620 0.81560 -0.20500
C 	C 	0.35880 0.02860 0.79870 -0.26400
N 	N 	0.47170 0.98700 0.80600 -0.19100
C 	C 	0.31220 0.66830 0.81970 -0.25800
N 	N 	0.42170 0.72840 0.82170 -0.19700
C 	C 	0.16420 0.54700 0.88550 -0.26000
N 	N 	0.17470 0.53360 0.86390 -0.18700
C 	C 	0.12630 0.37330 0.80900 -0.24000
N 	N 	0.12770 0.27820 0.80370 -0.22400
C 	C 	0.97310 0.60230 0.75110 -0.25500
N 	N 	0.03720 0.59640 0.77200 -0.19400
C 	C 	0.18560 0.41890 0.94570 -0.28800
N 	N 	0.19010 0.32210 0.95120 -0.23200
N 	N 	0.64590 0.77050 0.77750 -0.32800
H 	H 	0.73580 0.79700 0.78180 0.05800
H 	H 	0.61330 0.71540 0.78610 0.06400
C 	C 	0.54930 0.81860 0.75560 0.17500
C 	C 	0.60200 0.90630 0.74200 -0.25900
H 	H 	0.70090 0.93270 0.74590 0.08600
C 	C 	0.50000 0.95640 0.72140 0.14300
H 	H 	0.53500 0.01270 0.71120 -0.06600
C 	C 	0.34900 0.92040 0.71690 -0.25800
H 	H 	0.28140 0.95460 0.70420 0.08900
C 	C 	0.30500 0.83600 0.73140 0.15700
H 	H 	0.20500 0.80980 0.72790 -0.06700
C 	C 	0.40000 0.78540 0.75090 -0.27700
H 	H 	0.36370 0.72910 0.76100 0.09700
Cd	Cd	0.32424 0.38439 0.56917 1.16700
Cd	Cd	0.36123 0.34283 0.67937 1.16900
Cd	Cd	0.88661 0.05865 0.68323 1.16500
Cd	Cd	0.83484 0.08964 0.57268 1.15300
Cd	Cd	0.87510 0.59623 0.71059 1.16000
Cd	Cd	0.78286 0.63440 0.53895 1.15200
C 	C 	0.34690 0.37620 0.63560 -0.21500
N 	N 	0.34020 0.38400 0.61400 -0.21500
C 	C 	0.64080 0.20740 0.56860 -0.29000
N 	N 	0.53610 0.26770 0.56980 -0.20500
C 	C 	0.99520 0.54770 0.55480 -0.29400
N 	N 	0.10440 0.50220 0.56290 -0.19400
C 	C 	0.27050 0.36880 0.50310 -0.29600
N 	N 	0.29580 0.37350 0.52530 -0.20900
C 	C 	0.59040 0.57850 0.55900 -0.28500
N 	N 	0.48810 0.54130 0.56750 -0.20000
C 	C 	0.05240 0.17230 0.56840 -0.28600
N 	N 	0.15990 0.22310 0.56760 -0.19300
C 	C 	0.10520 0.12600 0.67460 -0.25300
N 	N 	0.21310 0.17550 0.67100 -0.19300
C 	C 	0.04360 0.49850 0.69120 -0.25800
N 	N 	0.14060 0.44620 0.68440 -0.20400
C 	C 	0.64120 0.52860 0.70130 -0.25000
N 	N 	0.52830 0.48700 0.69400 -0.20000
C 	C 	0.68780 0.16830 0.68030 -0.26000
N 	N 	0.57830 0.22840 0.67830 -0.19700
C 	C 	0.83580 0.04700 0.61450 -0.26300
N 	N 	0.82530 0.03360 0.63610 -0.18900
C 	C 	0.87370 0.87330 0.69100 -0.23200
N 	N 	0.87230 0.77820 0.69630 -0.22400
C 	C 	0.02690 0.10230 0.74890 -0.25700
N 	N 	0.96280 0.09640 0.72800 -0.19700
C 	C 	0.81440 0.91890 0.55430 -0.28300
N 	N 	0.80990 0.82210 0.54880 -0.23200
N 	N 	0.35410 0.27050 0.72250 -0.32400
H 	H 	0.26420 0.29700 0.71820 0.05600
H 	H 	0.38670 0.21540 0.71390 0.06200
C 	C 	0.45070 0.31860 0.74440 0.15600
C 	C 	0.39800 0.40630 0.75800 -0.23100
H 	H 	0.29910 0.43270 0.75410 0.07300
C 	C 	0.50000 0.45640 0.77860 0.09200
H 	H 	0.46500 0.51270 0.78880 -0.04100
C 	C 	0.65100 0.42040 0.78310 -0.22000
H 	H 	0.71860 0.45460 0.79580 0.07200
C 	C 	0.69500 0.33600 0.76860 0.12400
H 	H 	0.79500 0.30980 0.77210 -0.05800
C 	C 	0.60000 0.28540 0.74910 -0.25300
H 	H 	0.63630 0.22910 0.73900 0.08700
