data_crystal

_cell_length_a 8.71700
_cell_length_b 13.08300
_cell_length_c 31.05000
_cell_angle_alpha 90.00000
_cell_angle_beta  90.00000
_cell_angle_gamma 90.00000

_symmetry_space_group_name_	'P 1'
_symmetry_space_group_name_H-M	'P 1'

loop_
_symmetry_equiv_pos_as_xyz
  x,y,z

loop_
_atom_site_label
_atom_site_type_symbol
_atom_site_fract_x
_atom_site_fract_y
_atom_site_fract_z
_atom_site_charge
Pr	Pr	0.66878 0.23915 0.90670 2.04500
Pr	Pr	0.83122 0.73915 0.09330 2.04200
Pr	Pr	0.33122 0.76085 0.40670 2.04500
Pr	Pr	0.16878 0.26085 0.59330 2.04300
Pr	Pr	0.33122 0.76085 0.09330 2.04500
Pr	Pr	0.16878 0.26085 0.90670 2.04200
Pr	Pr	0.66878 0.23915 0.59330 2.04500
Pr	Pr	0.83122 0.73915 0.40670 2.04300
H 	H 	0.61710 0.87610 0.87380 0.18900
H 	H 	0.76000 0.86750 0.90440 0.19100
H 	H 	0.53360 0.78300 0.93260 -0.09300
H 	H 	0.45700 0.89090 0.93730 -0.07600
H 	H 	0.64490 0.93960 0.98730 0.21200
H 	H 	0.72750 0.83410 0.98170 0.20000
H 	H 	0.99560 0.09280 0.79160 0.20900
H 	H 	0.05610 0.20560 0.79060 0.21300
H 	H 	0.88290 0.37610 0.12620 0.18600
H 	H 	0.74000 0.36750 0.09560 0.18900
H 	H 	0.96640 0.28300 0.06740 -0.09100
H 	H 	0.04300 0.39090 0.06270 -0.07100
H 	H 	0.85510 0.43960 0.01270 0.21200
H 	H 	0.77250 0.33410 0.01830 0.20000
H 	H 	0.50440 0.59280 0.20840 0.22000
H 	H 	0.44390 0.70560 0.20940 0.23500
H 	H 	0.38290 0.12390 0.37380 0.18900
H 	H 	0.24000 0.13250 0.40440 0.19100
H 	H 	0.46640 0.21700 0.43260 -0.09300
H 	H 	0.54300 0.10910 0.43730 -0.07600
H 	H 	0.35510 0.06040 0.48730 0.21200
H 	H 	0.27250 0.16590 0.48170 0.20000
H 	H 	0.00440 0.90720 0.29160 0.20900
H 	H 	0.94390 0.79440 0.29060 0.21300
H 	H 	0.11710 0.62390 0.62620 0.18600
H 	H 	0.26000 0.63250 0.59560 0.18900
H 	H 	0.03360 0.71700 0.56740 -0.09100
H 	H 	0.95700 0.60910 0.56270 -0.07200
H 	H 	0.14490 0.56040 0.51270 0.21200
H 	H 	0.22750 0.66590 0.51830 0.20000
H 	H 	0.49560 0.40720 0.70840 0.22000
H 	H 	0.55610 0.29440 0.70940 0.23500
H 	H 	0.38290 0.12390 0.12620 0.18900
H 	H 	0.24000 0.13250 0.09560 0.19100
H 	H 	0.46640 0.21700 0.06740 -0.09300
H 	H 	0.54300 0.10910 0.06270 -0.07600
H 	H 	0.35510 0.06040 0.01270 0.21200
H 	H 	0.27250 0.16590 0.01830 0.20000
H 	H 	0.00440 0.90720 0.20840 0.20900
H 	H 	0.94390 0.79440 0.20940 0.21300
H 	H 	0.11710 0.62390 0.87380 0.18600
H 	H 	0.26000 0.63250 0.90440 0.18900
H 	H 	0.03360 0.71700 0.93260 -0.09100
H 	H 	0.95700 0.60910 0.93730 -0.07100
H 	H 	0.14490 0.56040 0.98730 0.21200
H 	H 	0.22750 0.66590 0.98170 0.20000
H 	H 	0.49560 0.40720 0.79160 0.22000
H 	H 	0.55610 0.29440 0.79060 0.23500
H 	H 	0.61710 0.87610 0.62620 0.18900
H 	H 	0.76000 0.86750 0.59560 0.19100
H 	H 	0.53360 0.78300 0.56740 -0.09300
H 	H 	0.45700 0.89090 0.56270 -0.07600
H 	H 	0.64490 0.93960 0.51270 0.21200
H 	H 	0.72750 0.83410 0.51830 0.20000
H 	H 	0.99560 0.09280 0.70840 0.20900
H 	H 	0.05610 0.20560 0.70940 0.21300
H 	H 	0.88290 0.37610 0.37380 0.18600
H 	H 	0.74000 0.36750 0.40440 0.18900
H 	H 	0.96640 0.28300 0.43260 -0.09100
H 	H 	0.04300 0.39090 0.43730 -0.07200
H 	H 	0.85510 0.43960 0.48730 0.21200
H 	H 	0.77250 0.33410 0.48170 0.20000
H 	H 	0.50440 0.59280 0.29160 0.22000
H 	H 	0.44390 0.70560 0.29060 0.23500
H 	H 	0.78450 0.13960 0.75000 -0.09000
H 	H 	0.83960 0.25350 0.75000 -0.11000
H 	H 	0.71550 0.63960 0.25000 -0.10300
H 	H 	0.66040 0.75350 0.25000 -0.12500
H 	H 	0.21550 0.86040 0.25000 -0.09000
H 	H 	0.16040 0.74650 0.25000 -0.11000
H 	H 	0.28450 0.36040 0.75000 -0.10300
H 	H 	0.33960 0.24650 0.75000 -0.12500
C 	C 	0.66770 0.01310 0.90388 0.45400
C 	C 	0.65810 0.89640 0.90160 -0.55200
C 	C 	0.55410 0.85480 0.93780 0.36600
C 	C 	0.62800 0.86740 0.98200 -0.61200
C 	C 	0.53540 0.82430 0.01850 0.51700
C 	C 	0.87360 0.18750 0.83093 0.53400
C 	C 	0.96410 0.16390 0.79090 -0.65000
C 	C 	0.83230 0.51310 0.09612 0.45200
C 	C 	0.84190 0.39640 0.09840 -0.54700
C 	C 	0.94590 0.35480 0.06220 0.35700
C 	C 	0.87200 0.36740 0.01800 -0.61000
C 	C 	0.96460 0.32430 0.98150 0.52000
C 	C 	0.62640 0.68750 0.16907 0.54900
C 	C 	0.53590 0.66390 0.20910 -0.70000
C 	C 	0.33230 0.98690 0.40388 0.45500
C 	C 	0.34190 0.10360 0.40160 -0.55200
C 	C 	0.44590 0.14520 0.43780 0.36600
C 	C 	0.37200 0.13260 0.48200 -0.61200
C 	C 	0.46460 0.17570 0.51850 0.51800
C 	C 	0.12640 0.81250 0.33093 0.53400
C 	C 	0.03590 0.83610 0.29090 -0.65000
C 	C 	0.16770 0.48690 0.59612 0.45200
C 	C 	0.15810 0.60360 0.59840 -0.54700
C 	C 	0.05410 0.64520 0.56220 0.35800
C 	C 	0.12800 0.63260 0.51800 -0.61000
C 	C 	0.03540 0.67570 0.48150 0.52000
C 	C 	0.37360 0.31250 0.66907 0.54900
C 	C 	0.46410 0.33610 0.70910 -0.70000
C 	C 	0.33230 0.98690 0.09612 0.45400
C 	C 	0.34190 0.10360 0.09840 -0.55200
C 	C 	0.44590 0.14520 0.06220 0.36600
C 	C 	0.37200 0.13260 0.01800 -0.61200
C 	C 	0.46460 0.17570 0.98150 0.51700
C 	C 	0.12640 0.81250 0.16907 0.53400
C 	C 	0.03590 0.83610 0.20910 -0.65000
C 	C 	0.16770 0.48690 0.90388 0.45200
C 	C 	0.15810 0.60360 0.90160 -0.54700
C 	C 	0.05410 0.64520 0.93780 0.35700
C 	C 	0.12800 0.63260 0.98200 -0.61000
C 	C 	0.03540 0.67570 0.01850 0.52000
C 	C 	0.37360 0.31250 0.83093 0.54900
C 	C 	0.46410 0.33610 0.79090 -0.70000
C 	C 	0.66770 0.01310 0.59612 0.45500
C 	C 	0.65810 0.89640 0.59840 -0.55200
C 	C 	0.55410 0.85480 0.56220 0.36600
C 	C 	0.62800 0.86740 0.51800 -0.61200
C 	C 	0.53540 0.82430 0.48150 0.51800
C 	C 	0.87360 0.18750 0.66907 0.53400
C 	C 	0.96410 0.16390 0.70910 -0.65000
C 	C 	0.83230 0.51310 0.40388 0.45200
C 	C 	0.84190 0.39640 0.40160 -0.54700
C 	C 	0.94590 0.35480 0.43780 0.35800
C 	C 	0.87200 0.36740 0.48200 -0.61000
C 	C 	0.96460 0.32430 0.51850 0.52000
C 	C 	0.62640 0.68750 0.33093 0.54900
C 	C 	0.53590 0.66390 0.29090 -0.70000
C 	C 	0.87460 0.18310 0.75000 0.44500
C 	C 	0.62540 0.68310 0.25000 0.48800
C 	C 	0.12540 0.81690 0.25000 0.44500
C 	C 	0.37460 0.31690 0.75000 0.48800
O 	O 	0.78750 0.05790 0.91538 -0.47300
O 	O 	0.54770 0.06480 0.89508 -0.47100
O 	O 	0.39150 0.82620 0.01751 -0.49500
O 	O 	0.60560 0.78700 0.05114 -0.65800
O 	O 	0.73190 0.17620 0.83135 -0.50200
O 	O 	0.94320 0.21620 0.86528 -0.66400
O 	O 	0.71250 0.55790 0.08462 -0.47400
O 	O 	0.95230 0.56480 0.10492 -0.47300
O 	O 	0.10850 0.32620 0.98249 -0.49800
O 	O 	0.89440 0.28700 0.94886 -0.65600
O 	O 	0.76810 0.67620 0.16865 -0.50800
O 	O 	0.55680 0.71620 0.13472 -0.67200
O 	O 	0.21250 0.94210 0.41538 -0.47300
O 	O 	0.45230 0.93520 0.39508 -0.47100
O 	O 	0.60850 0.17380 0.51751 -0.49500
O 	O 	0.39440 0.21300 0.55114 -0.65800
O 	O 	0.26810 0.82380 0.33135 -0.50200
O 	O 	0.05680 0.78380 0.36528 -0.66400
O 	O 	0.28750 0.44210 0.58462 -0.47400
O 	O 	0.04770 0.43520 0.60492 -0.47300
O 	O 	0.89150 0.67380 0.48249 -0.49800
O 	O 	0.10560 0.71300 0.44886 -0.65600
O 	O 	0.23190 0.32380 0.66865 -0.50800
O 	O 	0.44320 0.28380 0.63472 -0.67200
O 	O 	0.21250 0.94210 0.08462 -0.47300
O 	O 	0.45230 0.93520 0.10492 -0.47100
O 	O 	0.60850 0.17380 0.98249 -0.49500
O 	O 	0.39440 0.21300 0.94886 -0.65800
O 	O 	0.26810 0.82380 0.16865 -0.50200
O 	O 	0.05680 0.78380 0.13472 -0.66400
O 	O 	0.28750 0.44210 0.91538 -0.47400
O 	O 	0.04770 0.43520 0.89508 -0.47300
O 	O 	0.89150 0.67380 0.01751 -0.49800
O 	O 	0.10560 0.71300 0.05114 -0.65600
O 	O 	0.23190 0.32380 0.83135 -0.50800
O 	O 	0.44320 0.28380 0.86528 -0.67200
O 	O 	0.78750 0.05790 0.58462 -0.47300
O 	O 	0.54770 0.06480 0.60492 -0.47100
O 	O 	0.39150 0.82620 0.48249 -0.49500
O 	O 	0.60560 0.78700 0.44886 -0.65800
O 	O 	0.73190 0.17620 0.66865 -0.50200
O 	O 	0.94320 0.21620 0.63472 -0.66400
O 	O 	0.71250 0.55790 0.41538 -0.47400
O 	O 	0.95230 0.56480 0.39508 -0.47300
O 	O 	0.10850 0.32620 0.51751 -0.49800
O 	O 	0.89440 0.28700 0.55114 -0.65600
O 	O 	0.76810 0.67620 0.33135 -0.50800
O 	O 	0.55680 0.71620 0.36528 -0.67200
