data_crystal

_cell_length_a 7.49700
_cell_length_b 13.15400
_cell_length_c 18.20600
_cell_angle_alpha 90.00000
_cell_angle_beta  90.00000
_cell_angle_gamma 90.00000

_symmetry_space_group_name_	'P 1'
_symmetry_space_group_name_H-M	'P 1'

loop_
_symmetry_equiv_pos_as_xyz
  x,y,z

loop_
_atom_site_label
_atom_site_type_symbol
_atom_site_fract_x
_atom_site_fract_y
_atom_site_fract_z
_atom_site_charge
Zn	Zn	0.04302 0.62424 0.03604 1.21300
Zn	Zn	0.04317 0.37161 0.03836 1.21600
Zn	Zn	0.60023 0.37188 0.05862 1.21700
Zn	Zn	0.59798 0.62520 0.05609 1.21700
Zn	Zn	0.65867 0.50330 0.83275 1.23700
P 	P 	0.79170 0.30430 0.91424 0.56000
P 	P 	0.33814 0.49560 0.95996 0.54700
P 	P 	0.79000 0.69980 0.91434 0.55300
P 	P 	0.85512 0.49960 0.15719 0.52300
O 	O 	0.80740 0.38670 0.85610 -0.43900
O 	O 	0.80460 0.35160 0.99150 -0.65800
O 	O 	0.94730 0.23200 0.90540 -0.49400
O 	O 	0.60750 0.25030 0.90910 -0.48500
O 	O 	0.48100 0.49650 0.02280 -0.65700
O 	O 	0.22650 0.39880 0.96830 -0.50400
O 	O 	0.22680 0.59130 0.96460 -0.50100
O 	O 	0.43410 0.49420 0.88582 -0.43800
O 	O 	0.80550 0.64360 0.99110 -0.65800
O 	O 	0.80120 0.62330 0.85210 -0.44000
O 	O 	0.60910 0.75280 0.91310 -0.49800
O 	O 	0.94170 0.77560 0.90830 -0.50300
O 	O 	0.01090 0.49740 0.09859 -0.61500
O 	O 	0.93610 0.50310 0.23328 -0.42000
O 	O 	0.74150 0.59320 0.14280 -0.48900
O 	O 	0.74770 0.40160 0.14490 -0.48400
Zn	Zn	0.45698 0.37576 0.53604 1.21400
Zn	Zn	0.45683 0.62839 0.53836 1.21700
Zn	Zn	0.89977 0.62812 0.55862 1.21600
Zn	Zn	0.90202 0.37480 0.55609 1.21700
Zn	Zn	0.84133 0.49670 0.33275 1.23700
P 	P 	0.70830 0.69570 0.41424 0.56000
P 	P 	0.16186 0.50440 0.45996 0.54700
P 	P 	0.71000 0.30020 0.41434 0.55300
P 	P 	0.64488 0.50040 0.65719 0.52300
O 	O 	0.69260 0.61330 0.35610 -0.44000
O 	O 	0.69540 0.64840 0.49150 -0.66000
O 	O 	0.55270 0.76800 0.40540 -0.49500
O 	O 	0.89250 0.74970 0.40910 -0.48700
O 	O 	0.01900 0.50350 0.52280 -0.65300
O 	O 	0.27350 0.60120 0.46830 -0.50200
O 	O 	0.27320 0.40870 0.46460 -0.50000
O 	O 	0.06590 0.50580 0.38582 -0.43500
O 	O 	0.69450 0.35640 0.49110 -0.66100
O 	O 	0.69880 0.37670 0.35210 -0.44100
O 	O 	0.89090 0.24720 0.41310 -0.50100
O 	O 	0.55830 0.22440 0.40830 -0.50600
O 	O 	0.48910 0.50260 0.59859 -0.61500
O 	O 	0.56390 0.49690 0.73328 -0.41900
O 	O 	0.75850 0.40680 0.64280 -0.49000
O 	O 	0.75230 0.59840 0.64490 -0.48500
Zn	Zn	0.95698 0.12424 0.46396 1.21200
Zn	Zn	0.95683 0.87161 0.46164 1.21600
Zn	Zn	0.39977 0.87188 0.44138 1.21800
Zn	Zn	0.40202 0.12520 0.44391 1.21900
Zn	Zn	0.34133 0.00330 0.66725 1.23700
P 	P 	0.20830 0.80430 0.58576 0.56000
P 	P 	0.66186 0.99560 0.54004 0.54900
P 	P 	0.21000 0.19980 0.58566 0.55300
P 	P 	0.14488 0.99960 0.34281 0.52500
O 	O 	0.19260 0.88670 0.64390 -0.43900
O 	O 	0.19540 0.85160 0.50850 -0.65700
O 	O 	0.05270 0.73200 0.59460 -0.49300
O 	O 	0.39250 0.75030 0.59090 -0.48500
O 	O 	0.51900 0.99650 0.47720 -0.65700
O 	O 	0.77350 0.89880 0.53170 -0.50400
O 	O 	0.77320 0.09130 0.53540 -0.50400
O 	O 	0.56590 0.99420 0.61418 -0.43800
O 	O 	0.19450 0.14360 0.50890 -0.65800
O 	O 	0.19880 0.12330 0.64790 -0.44000
O 	O 	0.39090 0.25280 0.58690 -0.49800
O 	O 	0.05830 0.27560 0.59170 -0.50300
O 	O 	0.98910 0.99740 0.40141 -0.61700
O 	O 	0.06390 0.00310 0.26672 -0.41600
O 	O 	0.25850 0.09320 0.35720 -0.48800
O 	O 	0.25230 0.90160 0.35510 -0.48300
Zn	Zn	0.54302 0.87576 0.96396 1.21500
Zn	Zn	0.54317 0.12839 0.96164 1.21600
Zn	Zn	0.10023 0.12812 0.94138 1.21700
Zn	Zn	0.09798 0.87480 0.94391 1.21800
Zn	Zn	0.15867 0.99670 0.16725 1.23800
P 	P 	0.29170 0.19570 0.08576 0.56000
P 	P 	0.83814 0.00440 0.04004 0.54600
P 	P 	0.29000 0.80020 0.08566 0.55300
P 	P 	0.35512 0.00040 0.84281 0.52000
O 	O 	0.30740 0.11330 0.14390 -0.43900
O 	O 	0.30460 0.14840 0.00850 -0.65800
O 	O 	0.44730 0.26800 0.09460 -0.49500
O 	O 	0.10750 0.24970 0.09090 -0.48400
O 	O 	0.98100 0.00350 0.97720 -0.65600
O 	O 	0.72650 0.10120 0.03170 -0.50300
O 	O 	0.72680 0.90870 0.03540 -0.50100
O 	O 	0.93410 0.00580 0.11418 -0.43900
O 	O 	0.30550 0.85640 0.00890 -0.66100
O 	O 	0.30120 0.87670 0.14790 -0.44100
O 	O 	0.10910 0.74720 0.08690 -0.49900
O 	O 	0.44170 0.72440 0.09170 -0.50600
O 	O 	0.51090 0.00260 0.90141 -0.61600
O 	O 	0.43610 0.99690 0.76672 -0.41600
O 	O 	0.24150 0.90680 0.85720 -0.48800
O 	O 	0.24770 0.09840 0.85510 -0.48400
