data_crystal

_cell_length_a 19.23410
_cell_length_b 11.07300
_cell_length_c 6.88900
_cell_angle_alpha 90.00000
_cell_angle_beta  71.69000
_cell_angle_gamma 90.00000

_symmetry_space_group_name_	'P 1'
_symmetry_space_group_name_H-M	'P 1'

loop_
_symmetry_equiv_pos_as_xyz
  x,y,z

loop_
_atom_site_label
_atom_site_type_symbol
_atom_site_fract_x
_atom_site_fract_y
_atom_site_fract_z
_atom_site_charge
H 	H 	0.20880 0.19190 0.33740 -0.04800
H 	H 	0.18070 0.21510 0.78760 -0.04800
C 	C 	0.18150 0.19460 0.07810 -0.34800
C 	C 	0.22520 0.21570 0.20100 0.22000
C 	C 	0.10850 0.13400 0.15650 0.43500
C 	C 	0.20850 0.22950 0.87400 0.28500
O 	O 	0.07120 0.12600 0.03910 -0.50800
O 	O 	0.08880 0.10060 0.34370 -0.46600
H 	H 	0.50000 0.67211 0.75000 0.21900
H 	H 	0.70880 0.69190 0.33740 -0.02400
H 	H 	0.68070 0.71510 0.78760 -0.02600
C 	C 	0.68150 0.69460 0.07810 -0.31700
C 	C 	0.72520 0.71570 0.20100 0.24000
C 	C 	0.60850 0.63400 0.15650 0.45200
C 	C 	0.70850 0.72950 0.87400 0.30300
O 	O 	0.57120 0.62600 0.03910 -0.45800
O 	O 	0.58880 0.60060 0.34370 -0.41400
H 	H 	0.00000 0.17211 0.75000 0.19200
H 	H 	0.79120 0.19190 0.16260 0.02200
H 	H 	0.81930 0.21510 0.71240 0.06300
C 	C 	0.81850 0.19460 0.42190 -0.08500
C 	C 	0.77480 0.21570 0.29900 -0.01700
C 	C 	0.89150 0.13400 0.34350 0.34900
C 	C 	0.79150 0.22950 0.62600 -0.01800
O 	O 	0.92880 0.12600 0.46090 -0.38100
O 	O 	0.91120 0.10060 0.15630 -0.41100
H 	H 	0.29120 0.69190 0.16260 0.03100
H 	H 	0.31930 0.71510 0.71240 0.06600
C 	C 	0.31850 0.69460 0.42190 -0.08500
C 	C 	0.27480 0.71570 0.29900 0.01100
C 	C 	0.39150 0.63400 0.34350 0.37800
C 	C 	0.29150 0.72950 0.62600 0.01300
O 	O 	0.42880 0.62600 0.46090 -0.40700
O 	O 	0.41120 0.60060 0.15630 -0.42000
H 	H 	0.79120 0.80810 0.66260 0.15700
H 	H 	0.81930 0.78490 0.21240 0.16400
C 	C 	0.81850 0.80540 0.92190 0.21500
C 	C 	0.77480 0.78430 0.79900 -0.25500
C 	C 	0.89150 0.86600 0.84350 0.27200
C 	C 	0.79150 0.77050 0.12600 -0.32300
O 	O 	0.92880 0.87400 0.96090 -0.24300
O 	O 	0.91120 0.89940 0.65630 -0.26700
H 	H 	0.50000 0.32789 0.25000 0.16200
H 	H 	0.29120 0.30810 0.66260 0.12900
H 	H 	0.31930 0.28490 0.21240 0.13400
C 	C 	0.31850 0.30540 0.92190 0.17300
C 	C 	0.27480 0.28430 0.79900 -0.26500
C 	C 	0.39150 0.36600 0.84350 0.28000
C 	C 	0.29150 0.27050 0.12600 -0.33600
O 	O 	0.42880 0.37400 0.96090 -0.35800
O 	O 	0.41120 0.39940 0.65630 -0.38400
H 	H 	-0.00000 0.82789 0.25000 0.14300
H 	H 	0.20880 0.80810 0.83740 0.09200
H 	H 	0.18070 0.78490 0.28760 0.05900
C 	C 	0.18150 0.80540 0.57810 -0.03400
C 	C 	0.22520 0.78430 0.70100 -0.02900
C 	C 	0.10850 0.86600 0.65650 0.35500
C 	C 	0.20850 0.77050 0.37400 -0.03500
O 	O 	0.07120 0.87400 0.53910 -0.36800
O 	O 	0.08880 0.89940 0.84370 -0.30400
H 	H 	0.70880 0.30810 0.83740 0.06900
H 	H 	0.68070 0.28490 0.28760 0.03700
C 	C 	0.68150 0.30540 0.57810 -0.07100
C 	C 	0.72520 0.28430 0.70100 -0.02300
C 	C 	0.60850 0.36600 0.65650 0.35900
C 	C 	0.70850 0.27050 0.37400 -0.03200
O 	O 	0.57120 0.37400 0.53910 -0.42000
O 	O 	0.58880 0.39940 0.84370 -0.36800
Fe	Fe	-0.00000 0.00000 -0.00000 1.10400
Fe	Fe	0.50000 0.50000 -0.00000 1.22300
Fe	Fe	0.00000 -0.00000 0.50000 1.14400
Fe	Fe	0.50000 0.50000 0.50000 1.26200
O 	O 	0.00000 0.08180 0.75000 -0.61100
O 	O 	0.50000 0.58180 0.75000 -0.53500
O 	O 	0.00000 0.91820 0.25000 -0.49700
O 	O 	0.50000 0.41820 0.25000 -0.57300
