data_crystal

_cell_length_a 11.92340
_cell_length_b 11.92340
_cell_length_c 12.67480
_cell_angle_alpha 69.66370
_cell_angle_beta  69.66370
_cell_angle_gamma 88.94220

_symmetry_space_group_name_	'P 1'
_symmetry_space_group_name_H-M	'P 1'

loop_
_symmetry_equiv_pos_as_xyz
  x,y,z

loop_
_atom_site_label
_atom_site_type_symbol
_atom_site_fract_x
_atom_site_fract_y
_atom_site_fract_z
_atom_site_charge
Ba	Ba	0.91363 0.52175 0.17176 2.06800
Ba	Ba	0.47825 0.08637 0.32824 2.08000
Ba	Ba	0.08637 0.47825 0.82824 2.06800
Ba	Ba	0.52175 0.91363 0.67176 2.08000
Ba	Ba	0.86269 0.13731 0.25000 2.72000
Ba	Ba	0.13731 0.86269 0.75000 2.72000
U 	U 	0.71343 0.39397 0.02756 -0.03400
U 	U 	0.86168 0.86887 0.60100 0.02200
U 	U 	0.60603 0.28657 0.47244 -0.03200
U 	U 	0.13113 0.13832 0.89900 0.02000
U 	U 	0.28657 0.60603 0.97244 -0.03400
U 	U 	0.13832 0.13113 0.39900 0.02200
U 	U 	0.39397 0.71343 0.52756 -0.03200
U 	U 	0.86887 0.86168 0.10100 0.02000
P 	P 	0.38299 0.33495 0.13488 0.41500
P 	P 	0.15897 0.29781 0.09309 0.43800
P 	P 	0.66505 0.61701 0.36512 0.41600
P 	P 	0.70219 0.84103 0.40691 0.43900
P 	P 	0.61701 0.66505 0.86512 0.41500
P 	P 	0.84103 0.70219 0.90691 0.43800
P 	P 	0.33495 0.38299 0.63488 0.41600
P 	P 	0.29781 0.15897 0.59309 0.43900
H 	H 	0.32500 0.19420 0.06990 0.11700
H 	H 	0.35670 0.32170 0.96660 0.13300
H 	H 	0.80580 0.67500 0.43010 0.11900
H 	H 	0.67830 0.64330 0.53340 0.13800
H 	H 	0.67500 0.80580 0.93010 0.11700
H 	H 	0.64330 0.67830 0.03340 0.13300
H 	H 	0.19420 0.32500 0.56990 0.11900
H 	H 	0.32170 0.35670 0.46660 0.13800
C 	C 	0.31554 0.27892 0.05259 -0.35500
C 	C 	0.72108 0.68446 0.44741 -0.36000
C 	C 	0.68446 0.72108 0.94741 -0.35500
C 	C 	0.27892 0.31554 0.55259 -0.36000
O 	O 	0.14055 0.42763 0.08118 -0.41200
O 	O 	0.37166 0.46906 0.09934 -0.20700
O 	O 	0.77979 0.97633 0.65532 -0.20600
O 	O 	0.09281 0.21185 0.22399 -0.38700
O 	O 	0.30951 0.26431 0.26953 -0.32600
O 	O 	0.51219 0.30509 0.10708 -0.31400
O 	O 	0.11197 0.26373 0.00900 -0.39300
O 	O 	0.57237 0.85945 0.41882 -0.41700
O 	O 	0.53094 0.62834 0.40066 -0.20800
O 	O 	0.02367 0.22021 0.84468 -0.20800
O 	O 	0.78815 0.90719 0.27601 -0.39000
O 	O 	0.73569 0.69049 0.23047 -0.32600
O 	O 	0.69491 0.48781 0.39292 -0.31300
O 	O 	0.73627 0.88803 0.49100 -0.39900
O 	O 	0.85945 0.57237 0.91882 -0.41200
O 	O 	0.62834 0.53094 0.90066 -0.20700
O 	O 	0.22021 0.02367 0.34468 -0.20600
O 	O 	0.90719 0.78815 0.77601 -0.38700
O 	O 	0.69049 0.73569 0.73047 -0.32600
O 	O 	0.48781 0.69491 0.89292 -0.31400
O 	O 	0.88803 0.73627 0.99100 -0.39300
O 	O 	0.42763 0.14055 0.58118 -0.41700
O 	O 	0.46906 0.37166 0.59934 -0.20800
O 	O 	0.97633 0.77979 0.15532 -0.20800
O 	O 	0.21185 0.09281 0.72399 -0.39000
O 	O 	0.26431 0.30951 0.76953 -0.32600
O 	O 	0.30509 0.51219 0.60708 -0.31300
O 	O 	0.26373 0.11197 0.50900 -0.39900
F 	F 	0.89185 0.36465 0.06631 -0.72000
F 	F 	0.79647 0.30933 0.32771 -0.70300
F 	F 	0.95801 0.02885 0.41673 -0.49500
F 	F 	0.63535 0.10815 0.43369 -0.71800
F 	F 	0.69067 0.20353 0.17229 -0.70400
F 	F 	0.97115 0.04199 0.08327 -0.49800
F 	F 	0.10815 0.63535 0.93369 -0.72000
F 	F 	0.20353 0.69067 0.67229 -0.70300
F 	F 	0.04199 0.97115 0.58327 -0.49500
F 	F 	0.36465 0.89185 0.56631 -0.71800
F 	F 	0.30933 0.79647 0.82771 -0.70400
F 	F 	0.02885 0.95801 0.91673 -0.49800
