data_crystal

_cell_length_a 12.07400
_cell_length_b 12.70900
_cell_length_c 13.94700
_cell_angle_alpha 90.00000
_cell_angle_beta  90.00000
_cell_angle_gamma 115.48100

_symmetry_space_group_name_	'P 1'
_symmetry_space_group_name_H-M	'P 1'

loop_
_symmetry_equiv_pos_as_xyz
  x,y,z

loop_
_atom_site_label
_atom_site_type_symbol
_atom_site_fract_x
_atom_site_fract_y
_atom_site_fract_z
_atom_site_charge
Ba	Ba	0.77810 0.15589 0.39531 2.21200
Ba	Ba	0.60677 0.80395 0.29771 2.20300
Ba	Ba	0.22190 0.34411 0.89531 2.21100
Ba	Ba	0.39323 0.69605 0.79771 2.20400
Ba	Ba	0.22190 0.84411 0.60469 2.21100
Ba	Ba	0.39323 0.19605 0.70229 2.20200
Ba	Ba	0.77810 0.65589 0.10469 2.21000
Ba	Ba	0.60677 0.30395 0.20229 2.20300
U 	U 	0.96864 0.01663 0.21519 -0.00800
U 	U 	0.39060 0.49519 0.17926 0.05700
U 	U 	0.03136 0.48337 0.71519 -0.00700
U 	U 	0.60940 0.00481 0.67926 0.05600
U 	U 	0.03136 0.98337 0.78481 -0.00800
U 	U 	0.60940 0.50481 0.82074 0.05700
U 	U 	0.96864 0.51663 0.28481 -0.00700
U 	U 	0.39060 0.99519 0.32074 0.05600
P 	P 	0.27024 0.20916 0.28944 0.42700
P 	P 	0.10061 0.31932 0.29379 0.41700
P 	P 	0.72976 0.29084 0.78944 0.42800
P 	P 	0.89939 0.18068 0.79379 0.41700
P 	P 	0.72976 0.79084 0.71056 0.42700
P 	P 	0.89939 0.68068 0.70621 0.41700
P 	P 	0.27024 0.70916 0.21056 0.42800
P 	P 	0.10061 0.81932 0.20621 0.41700
H 	H 	0.25400 0.33790 0.40190 0.11000
H 	H 	0.14260 0.21460 0.41330 0.09800
H 	H 	0.74600 0.16210 0.90190 0.11000
H 	H 	0.85740 0.28540 0.91330 0.09900
H 	H 	0.74600 0.66210 0.59810 0.11000
H 	H 	0.85740 0.78540 0.58670 0.09800
H 	H 	0.25400 0.83790 0.09810 0.11000
H 	H 	0.14260 0.71460 0.08670 0.09900
C 	C 	0.19370 0.27210 0.36710 -0.34200
C 	C 	0.80630 0.22790 0.86710 -0.34200
C 	C 	0.80630 0.72790 0.63290 -0.34200
C 	C 	0.19370 0.77210 0.13290 -0.34200
O 	O 	0.37660 0.31050 0.24170 -0.34400
O 	O 	0.17810 0.13640 0.21380 -0.22500
O 	O 	0.18400 0.38730 0.21140 -0.21000
O 	O 	0.31330 0.13510 0.35170 -0.23000
O 	O 	0.05130 0.39350 0.34920 -0.27800
O 	O 	0.99270 0.20710 0.26050 -0.31500
O 	O 	0.42400 0.54910 0.29880 -0.26200
O 	O 	0.35580 0.44680 0.05880 -0.26500
O 	O 	0.77600 0.93060 0.45640 -0.40100
O 	O 	0.62340 0.18950 0.74170 -0.34400
O 	O 	0.82190 0.36360 0.71380 -0.22500
O 	O 	0.81600 0.11270 0.71140 -0.21100
O 	O 	0.68670 0.36490 0.85170 -0.23000
O 	O 	0.94870 0.10650 0.84920 -0.27800
O 	O 	0.00730 0.29290 0.76050 -0.31500
O 	O 	0.57600 0.95090 0.79880 -0.26200
O 	O 	0.64420 0.05320 0.55880 -0.26600
O 	O 	0.22400 0.56940 0.95640 -0.40100
O 	O 	0.62340 0.68950 0.75830 -0.34400
O 	O 	0.82190 0.86360 0.78620 -0.22500
O 	O 	0.81600 0.61270 0.78860 -0.21000
O 	O 	0.68670 0.86490 0.64830 -0.23000
O 	O 	0.94870 0.60650 0.65080 -0.27800
O 	O 	0.00730 0.79290 0.73950 -0.31500
O 	O 	0.57600 0.45090 0.70120 -0.26200
O 	O 	0.64420 0.55320 0.94120 -0.26500
O 	O 	0.22400 0.06940 0.54360 -0.40100
O 	O 	0.37660 0.81050 0.25830 -0.34400
O 	O 	0.17810 0.63640 0.28620 -0.22500
O 	O 	0.18400 0.88730 0.28860 -0.21100
O 	O 	0.31330 0.63510 0.14830 -0.23000
O 	O 	0.05130 0.89350 0.15080 -0.27800
O 	O 	0.99270 0.70710 0.23950 -0.31500
O 	O 	0.42400 0.04910 0.20120 -0.26200
O 	O 	0.35580 0.94680 0.44120 -0.26600
O 	O 	0.77600 0.43060 0.04360 -0.40100
F 	F 	0.56800 0.47970 0.15830 -0.66600
F 	F 	0.55230 0.67140 0.13970 -0.62500
F 	F 	0.78710 0.01590 0.25980 -0.65200
F 	F 	0.80800 0.83630 0.19920 -0.70000
F 	F 	0.43200 0.02030 0.65830 -0.66600
F 	F 	0.44770 0.82860 0.63970 -0.62500
F 	F 	0.21290 0.48410 0.75980 -0.65200
F 	F 	0.19200 0.66370 0.69920 -0.70000
F 	F 	0.43200 0.52030 0.84170 -0.66600
F 	F 	0.44770 0.32860 0.86030 -0.62500
F 	F 	0.21290 0.98410 0.74020 -0.65200
F 	F 	0.19200 0.16370 0.80080 -0.70000
F 	F 	0.56800 0.97970 0.34170 -0.66600
F 	F 	0.55230 0.17140 0.36030 -0.62500
F 	F 	0.78710 0.51590 0.24020 -0.65200
F 	F 	0.80800 0.33630 0.30080 -0.70000
