data_crystal

_cell_length_a 11.24800
_cell_length_b 20.87340
_cell_length_c 14.66410
_cell_angle_alpha 90.00000
_cell_angle_beta  105.31800
_cell_angle_gamma 90.00000

_symmetry_space_group_name_	'P 1'
_symmetry_space_group_name_H-M	'P 1'

loop_
_symmetry_equiv_pos_as_xyz
  x,y,z

loop_
_atom_site_label
_atom_site_type_symbol
_atom_site_fract_x
_atom_site_fract_y
_atom_site_fract_z
_atom_site_charge
U 	U 	0.77722 0.22522 0.55879 0.05500
U 	U 	0.87467 0.01483 0.37284 0.01700
U 	U 	0.92344 0.41889 0.53633 0.05000
P 	P 	0.60186 0.11596 0.38537 0.37800
P 	P 	0.20442 0.44694 0.62824 0.37600
P 	P 	0.12637 0.94630 0.37640 0.38000
P 	P 	0.61711 0.36435 0.42487 0.38500
F 	F 	0.86650 0.32695 0.59440 -0.29500
O 	O 	0.61910 0.16124 0.46830 -0.16300
O 	O 	0.70600 0.06967 0.38920 -0.16300
O 	O 	0.58050 0.15786 0.29280 -0.11400
O 	O 	0.26620 0.48246 0.71700 -0.15600
O 	O 	0.12690 0.38875 0.64310 -0.12600
O 	O 	0.10780 0.48780 0.55740 -0.14100
O 	O 	0.01560 0.96208 0.29140 -0.15900
O 	O 	0.07900 0.96948 0.46060 -0.14100
O 	O 	0.16450 0.87749 0.37990 -0.15800
O 	O 	0.55740 0.36661 0.31520 -0.14100
O 	O 	0.65510 0.29606 0.44900 -0.12800
O 	O 	0.72070 0.41297 0.45410 -0.14800
C 	C 	0.46510 0.06980 0.37660 -0.01300
C 	C 	0.35680 0.09760 0.38180 -0.01800
H 	H 	0.35230 0.14290 0.38660 0.07700
C 	C 	0.25370 0.06100 0.38040 -0.02400
H 	H 	0.17980 0.08150 0.38440 0.07700
C 	C 	0.25740 0.99480 0.37320 -0.01800
C 	C 	0.36510 0.96680 0.36870 -0.02500
H 	H 	0.36980 0.92140 0.36470 0.07700
C 	C 	0.46860 0.00400 0.37010 -0.02500
H 	H 	0.54270 0.98360 0.36640 0.07900
C 	C 	0.31920 0.42280 0.57060 -0.00400
C 	C 	0.28750 0.39210 0.48460 -0.02600
H 	H 	0.20330 0.38270 0.45580 0.08200
C 	C 	0.37680 0.37450 0.43900 -0.02000
H 	H 	0.35290 0.35350 0.37940 0.07600
C 	C 	0.49960 0.38730 0.47990 -0.01700
C 	C 	0.53220 0.41880 0.56560 -0.01800
H 	H 	0.61640 0.42860 0.59380 0.07900
C 	C 	0.44330 0.43650 0.61160 -0.03100
H 	H 	0.46720 0.45790 0.67080 0.08600
U 	U 	0.72278 0.72522 0.94121 0.05400
U 	U 	0.62533 0.51483 0.12716 0.01600
U 	U 	0.57656 0.91889 0.96367 0.04900
P 	P 	0.89814 0.61596 0.11463 0.37700
P 	P 	0.29558 0.94694 0.87176 0.37600
P 	P 	0.37363 0.44630 0.12360 0.38000
P 	P 	0.88289 0.86435 0.07513 0.38500
F 	F 	0.63350 0.82695 0.90560 -0.29500
O 	O 	0.88090 0.66124 0.03170 -0.16300
O 	O 	0.79400 0.56967 0.11080 -0.16300
O 	O 	0.91950 0.65786 0.20720 -0.11400
O 	O 	0.23380 0.98246 0.78300 -0.15600
O 	O 	0.37310 0.88875 0.85690 -0.12500
O 	O 	0.39220 0.98780 0.94260 -0.14100
O 	O 	0.48440 0.46208 0.20860 -0.15900
O 	O 	0.42100 0.46948 0.03940 -0.14100
O 	O 	0.33550 0.37749 0.12010 -0.15800
O 	O 	0.94260 0.86661 0.18480 -0.14100
O 	O 	0.84490 0.79606 0.05100 -0.12800
O 	O 	0.77930 0.91297 0.04590 -0.14800
C 	C 	0.03490 0.56980 0.12340 -0.01300
C 	C 	0.14320 0.59760 0.11820 -0.01800
H 	H 	0.14770 0.64290 0.11340 0.07700
C 	C 	0.24630 0.56100 0.11960 -0.02300
H 	H 	0.32020 0.58150 0.11560 0.07700
C 	C 	0.24260 0.49480 0.12680 -0.01800
C 	C 	0.13490 0.46680 0.13130 -0.02500
H 	H 	0.13020 0.42140 0.13530 0.07700
C 	C 	0.03140 0.50400 0.12990 -0.02500
H 	H 	0.95730 0.48360 0.13360 0.07900
C 	C 	0.18080 0.92280 0.92940 -0.00400
C 	C 	0.21250 0.89210 0.01540 -0.02600
H 	H 	0.29670 0.88270 0.04420 0.08200
C 	C 	0.12320 0.87450 0.06100 -0.02000
H 	H 	0.14710 0.85350 0.12060 0.07600
C 	C 	0.00040 0.88730 0.02010 -0.01600
C 	C 	0.96780 0.91880 0.93440 -0.01900
H 	H 	0.88360 0.92860 0.90620 0.07900
C 	C 	0.05670 0.93650 0.88840 -0.03100
H 	H 	0.03280 0.95790 0.82920 0.08600
U 	U 	0.22278 0.77478 0.44121 0.05400
U 	U 	0.12533 0.98517 0.62716 0.01600
U 	U 	0.07656 0.58111 0.46367 0.04900
P 	P 	0.39814 0.88404 0.61463 0.37700
P 	P 	0.79558 0.55306 0.37176 0.37600
P 	P 	0.87363 0.05370 0.62360 0.38000
P 	P 	0.38289 0.63565 0.57513 0.38500
F 	F 	0.13350 0.67305 0.40560 -0.29500
O 	O 	0.38090 0.83876 0.53170 -0.16300
O 	O 	0.29400 0.93033 0.61080 -0.16300
O 	O 	0.41950 0.84214 0.70720 -0.11400
O 	O 	0.73380 0.51754 0.28300 -0.15600
O 	O 	0.87310 0.61125 0.35690 -0.12600
O 	O 	0.89220 0.51220 0.44260 -0.14100
O 	O 	0.98440 0.03792 0.70860 -0.15900
O 	O 	0.92100 0.03052 0.53940 -0.14100
O 	O 	0.83550 0.12251 0.62010 -0.15800
O 	O 	0.44260 0.63339 0.68480 -0.14100
O 	O 	0.34490 0.70394 0.55100 -0.12800
O 	O 	0.27930 0.58703 0.54590 -0.14800
C 	C 	0.53490 0.93020 0.62340 -0.01300
C 	C 	0.64320 0.90240 0.61820 -0.01800
H 	H 	0.64770 0.85710 0.61340 0.07700
C 	C 	0.74630 0.93900 0.61960 -0.02400
H 	H 	0.82020 0.91850 0.61560 0.07700
C 	C 	0.74260 0.00520 0.62680 -0.01800
C 	C 	0.63490 0.03320 0.63130 -0.02500
H 	H 	0.63020 0.07860 0.63530 0.07700
C 	C 	0.53140 0.99600 0.62990 -0.02500
H 	H 	0.45730 0.01640 0.63360 0.07900
C 	C 	0.68080 0.57720 0.42940 -0.00400
C 	C 	0.71250 0.60790 0.51540 -0.02600
H 	H 	0.79670 0.61730 0.54420 0.08200
C 	C 	0.62320 0.62550 0.56100 -0.02000
H 	H 	0.64710 0.64650 0.62060 0.07600
C 	C 	0.50040 0.61270 0.52010 -0.01700
C 	C 	0.46780 0.58120 0.43440 -0.01800
H 	H 	0.38360 0.57140 0.40620 0.07900
C 	C 	0.55670 0.56350 0.38840 -0.03100
H 	H 	0.53280 0.54210 0.32920 0.08600
U 	U 	0.27722 0.27478 0.05879 0.05400
U 	U 	0.37467 0.48517 0.87284 0.01600
U 	U 	0.42344 0.08111 0.03633 0.04900
P 	P 	0.10186 0.38404 0.88537 0.37700
P 	P 	0.70442 0.05306 0.12824 0.37600
P 	P 	0.62637 0.55370 0.87640 0.38000
P 	P 	0.11711 0.13565 0.92487 0.38500
F 	F 	0.36650 0.17305 0.09440 -0.29500
O 	O 	0.11910 0.33876 0.96830 -0.16300
O 	O 	0.20600 0.43033 0.88920 -0.16300
O 	O 	0.08050 0.34214 0.79280 -0.11400
O 	O 	0.76620 0.01754 0.21700 -0.15600
O 	O 	0.62690 0.11125 0.14310 -0.12500
O 	O 	0.60780 0.01220 0.05740 -0.14100
O 	O 	0.51560 0.53792 0.79140 -0.15900
O 	O 	0.57900 0.53052 0.96060 -0.14100
O 	O 	0.66450 0.62251 0.87990 -0.15800
O 	O 	0.05740 0.13339 0.81520 -0.14100
O 	O 	0.15510 0.20394 0.94900 -0.12800
O 	O 	0.22070 0.08703 0.95410 -0.14800
C 	C 	0.96510 0.43020 0.87660 -0.01300
C 	C 	0.85680 0.40240 0.88180 -0.01800
H 	H 	0.85230 0.35710 0.88660 0.07700
C 	C 	0.75370 0.43900 0.88040 -0.02300
H 	H 	0.67980 0.41850 0.88440 0.07700
C 	C 	0.75740 0.50520 0.87320 -0.01800
C 	C 	0.86510 0.53320 0.86870 -0.02500
H 	H 	0.86980 0.57860 0.86470 0.07700
C 	C 	0.96860 0.49600 0.87010 -0.02500
H 	H 	0.04270 0.51640 0.86640 0.07900
C 	C 	0.81920 0.07720 0.07060 -0.00400
C 	C 	0.78750 0.10790 0.98460 -0.02600
H 	H 	0.70330 0.11730 0.95580 0.08200
C 	C 	0.87680 0.12550 0.93900 -0.02000
H 	H 	0.85290 0.14650 0.87940 0.07600
C 	C 	0.99960 0.11270 0.97990 -0.01600
C 	C 	0.03220 0.08120 0.06560 -0.01900
H 	H 	0.11640 0.07140 0.09380 0.07900
C 	C 	0.94330 0.06350 0.11160 -0.03100
H 	H 	0.96720 0.04210 0.17080 0.08600
