data_crystal

_cell_length_a 27.94300
_cell_length_b 27.94300
_cell_length_c 17.70700
_cell_angle_alpha 90.00000
_cell_angle_beta  90.00000
_cell_angle_gamma 120.00000

_symmetry_space_group_name_	'P 1'
_symmetry_space_group_name_H-M	'P 1'

loop_
_symmetry_equiv_pos_as_xyz
  x,y,z

loop_
_atom_site_label
_atom_site_type_symbol
_atom_site_fract_x
_atom_site_fract_y
_atom_site_fract_z
_atom_site_charge
Ga	Ga	0.88143 0.38769 0.85568 2.07800
O 	O 	0.92293 0.44915 0.79610 -0.59900
O 	O 	0.86026 0.40910 0.70580 -0.31400
O 	O 	0.90388 0.49299 0.45337 -0.60200
O 	O 	0.98381 0.56985 0.43021 -0.30900
O 	O 	0.10677 0.66710 0.64647 -0.58600
O 	O 	0.09182 0.62371 0.75670 -0.31100
O 	O 	0.80512 0.35455 0.85929 -0.60800
O 	O 	0.81433 0.43685 0.86570 -0.31500
C 	C 	0.94128 0.49381 0.67900 -0.09500
C 	C 	0.92849 0.49335 0.60240 0.05100
H 	H 	0.89630 0.46390 0.58280 0.06500
C 	C 	0.96373 0.53670 0.55550 -0.08600
C 	C 	0.01106 0.58087 0.58550 0.04500
H 	H 	0.03410 0.61030 0.55440 0.06300
C 	C 	0.02449 0.58194 0.66010 -0.10000
C 	C 	0.99009 0.53875 0.70730 0.06000
H 	H 	0.99930 0.53950 0.75790 0.06900
C 	C 	0.90450 0.44700 0.72890 0.38100
C 	C 	0.95120 0.53465 0.47310 0.37600
C 	C 	0.07700 0.62630 0.69280 0.36100
C 	C 	0.72369 0.35800 0.86080 -0.11800
C 	C 	0.69790 0.38950 0.86000 0.08400
H 	H 	0.71950 0.42790 0.85880 0.05800
C 	C 	0.78570 0.38670 0.86250 0.41500
Ga	Ga	0.54810 0.72103 0.18901 2.07600
O 	O 	0.58960 0.78248 0.12943 -0.61000
O 	O 	0.52693 0.74243 0.03913 -0.34000
O 	O 	0.57055 0.82632 0.78670 -0.59500
O 	O 	0.65048 0.90318 0.76354 -0.30700
O 	O 	0.77344 0.00043 0.97980 -0.47100
O 	O 	0.75849 0.95704 0.09003 -0.27300
O 	O 	0.47179 0.68788 0.19262 -0.62000
O 	O 	0.48100 0.77018 0.19903 -0.33400
C 	C 	0.60795 0.82714 0.01233 -0.12300
C 	C 	0.59516 0.82668 0.93573 0.11200
H 	H 	0.56297 0.79723 0.91613 0.06400
C 	C 	0.63040 0.87003 0.88883 -0.05800
C 	C 	0.67773 0.91420 0.91883 -0.05100
H 	H 	0.70077 0.94363 0.88773 0.10300
C 	C 	0.69116 0.91527 0.99343 0.14500
C 	C 	0.65676 0.87208 0.04063 -0.12200
H 	H 	0.66597 0.87283 0.09123 0.11600
C 	C 	0.57117 0.78033 0.06223 0.37900
C 	C 	0.61787 0.86798 0.80643 0.36900
C 	C 	0.74367 0.95963 0.02613 0.14300
C 	C 	0.39036 0.69133 0.19413 -0.13800
C 	C 	0.36457 0.72283 0.19333 0.09000
H 	H 	0.38617 0.76123 0.19213 0.04600
C 	C 	0.45237 0.72003 0.19583 0.41600
Ga	Ga	0.21477 0.05436 0.52235 2.07600
O 	O 	0.25626 0.11582 0.46277 -0.60600
O 	O 	0.19359 0.07577 0.37247 -0.31600
O 	O 	0.23721 0.15966 0.12004 -0.62000
O 	O 	0.31714 0.23652 0.09688 -0.34000
O 	O 	0.44010 0.33377 0.31314 -0.59000
O 	O 	0.42515 0.29038 0.42337 -0.31800
O 	O 	0.13845 0.02122 0.52596 -0.61000
O 	O 	0.14766 0.10352 0.53237 -0.32300
C 	C 	0.27461 0.16048 0.34567 -0.10100
C 	C 	0.26182 0.16002 0.26907 0.05700
H 	H 	0.22963 0.13057 0.24947 0.06000
C 	C 	0.29706 0.20337 0.22217 -0.10600
C 	C 	0.34439 0.24754 0.25217 0.06000
H 	H 	0.36743 0.27697 0.22107 0.05400
C 	C 	0.35782 0.24861 0.32677 -0.10100
C 	C 	0.32342 0.20542 0.37397 0.05400
H 	H 	0.33263 0.20617 0.42457 0.06300
C 	C 	0.23783 0.11367 0.39557 0.38200
C 	C 	0.28453 0.20132 0.13977 0.38200
C 	C 	0.41033 0.29297 0.35947 0.36300
C 	C 	0.05702 0.02467 0.52747 -0.08900
C 	C 	0.03123 0.05617 0.52667 0.04400
H 	H 	0.05283 0.09457 0.52547 0.06500
C 	C 	0.11903 0.05337 0.52917 0.40100
Ga	Ga	0.61231 0.49374 0.85568 2.07700
O 	O 	0.55085 0.47378 0.79610 -0.60000
O 	O 	0.59090 0.45116 0.70580 -0.31400
O 	O 	0.50701 0.41089 0.45337 -0.60300
O 	O 	0.43015 0.41396 0.43021 -0.31300
O 	O 	0.33290 0.43967 0.64647 -0.58500
O 	O 	0.37629 0.46811 0.75670 -0.30800
O 	O 	0.64545 0.45057 0.85929 -0.60900
O 	O 	0.56315 0.37748 0.86570 -0.31600
C 	C 	0.50619 0.44747 0.67900 -0.09400
C 	C 	0.50665 0.43514 0.60240 0.05200
H 	H 	0.53610 0.43240 0.58280 0.06400
C 	C 	0.46330 0.42703 0.55550 -0.09600
C 	C 	0.41913 0.43019 0.58550 0.05400
H 	H 	0.38970 0.42380 0.55440 0.06200
C 	C 	0.41806 0.44255 0.66010 -0.09200
C 	C 	0.46125 0.45134 0.70730 0.04900
H 	H 	0.46050 0.45980 0.75790 0.07000
C 	C 	0.55300 0.45750 0.72890 0.38000
C 	C 	0.46535 0.41655 0.47310 0.37900
C 	C 	0.37370 0.45070 0.69280 0.36000
C 	C 	0.64200 0.36569 0.86080 -0.11800
C 	C 	0.61050 0.30840 0.86000 0.08400
H 	H 	0.57210 0.29160 0.85880 0.05800
C 	C 	0.61330 0.39900 0.86250 0.41500
Ga	Ga	0.27897 0.82707 0.18901 2.07600
O 	O 	0.21752 0.80711 0.12943 -0.61100
O 	O 	0.25757 0.78449 0.03913 -0.34000
O 	O 	0.17368 0.74422 0.78670 -0.59600
O 	O 	0.09682 0.74729 0.76354 -0.30700
O 	O 	0.99957 0.77300 0.97980 -0.47300
O 	O 	0.04296 0.80144 0.09003 -0.27500
O 	O 	0.31212 0.78390 0.19262 -0.62000
O 	O 	0.22982 0.71081 0.19903 -0.33400
C 	C 	0.17286 0.78080 0.01233 -0.12400
C 	C 	0.17332 0.76847 0.93573 0.11100
H 	H 	0.20277 0.76573 0.91613 0.06400
C 	C 	0.12997 0.76036 0.88883 -0.06000
C 	C 	0.08580 0.76352 0.91883 -0.04900
H 	H 	0.05637 0.75713 0.88773 0.10100
C 	C 	0.08473 0.77588 0.99343 0.14000
C 	C 	0.12792 0.78467 0.04063 -0.11900
H 	H 	0.12717 0.79313 0.09123 0.11400
C 	C 	0.21967 0.79083 0.06223 0.37900
C 	C 	0.13202 0.74988 0.80643 0.36900
C 	C 	0.04037 0.78403 0.02613 0.14700
C 	C 	0.30867 0.69902 0.19413 -0.13800
C 	C 	0.27717 0.64173 0.19333 0.09000
H 	H 	0.23877 0.62493 0.19213 0.04600
C 	C 	0.27997 0.73233 0.19583 0.41600
Ga	Ga	0.94564 0.16041 0.52235 2.07600
O 	O 	0.88418 0.14045 0.46277 -0.60500
O 	O 	0.92423 0.11783 0.37247 -0.31400
O 	O 	0.84034 0.07756 0.12004 -0.61900
O 	O 	0.76348 0.08063 0.09688 -0.33900
O 	O 	0.66623 0.10634 0.31314 -0.59000
O 	O 	0.70962 0.13478 0.42337 -0.31700
O 	O 	0.97878 0.11724 0.52596 -0.60900
O 	O 	0.89648 0.04415 0.53237 -0.32000
C 	C 	0.83952 0.11414 0.34567 -0.10000
C 	C 	0.83998 0.10181 0.26907 0.05600
H 	H 	0.86943 0.09907 0.24947 0.06100
C 	C 	0.79663 0.09370 0.22217 -0.10500
C 	C 	0.75246 0.09686 0.25217 0.06000
H 	H 	0.72303 0.09047 0.22107 0.05500
C 	C 	0.75139 0.10922 0.32677 -0.10000
C 	C 	0.79458 0.11801 0.37397 0.05400
H 	H 	0.79383 0.12647 0.42457 0.06300
C 	C 	0.88633 0.12417 0.39557 0.38200
C 	C 	0.79868 0.08322 0.13977 0.38200
C 	C 	0.70703 0.11737 0.35947 0.36300
C 	C 	0.97533 0.03236 0.52747 -0.08400
C 	C 	0.94383 0.97507 0.52667 0.04400
H 	H 	0.90543 0.95827 0.52547 0.06500
C 	C 	0.94663 0.06567 0.52917 0.40100
Ga	Ga	0.50626 0.11857 0.85568 2.07700
O 	O 	0.52622 0.07707 0.79610 -0.60000
O 	O 	0.54884 0.13974 0.70580 -0.31400
O 	O 	0.58911 0.09612 0.45337 -0.60200
O 	O 	0.58604 0.01619 0.43021 -0.30900
O 	O 	0.56033 0.89323 0.64647 -0.58600
O 	O 	0.53189 0.90818 0.75670 -0.31100
O 	O 	0.54943 0.19488 0.85929 -0.60900
O 	O 	0.62252 0.18567 0.86570 -0.31500
C 	C 	0.55253 0.05872 0.67900 -0.09500
C 	C 	0.56486 0.07151 0.60240 0.05100
H 	H 	0.56760 0.10370 0.58280 0.06500
C 	C 	0.57297 0.03627 0.55550 -0.08600
C 	C 	0.56981 0.98894 0.58550 0.04500
H 	H 	0.57620 0.96590 0.55440 0.06300
C 	C 	0.55745 0.97551 0.66010 -0.10000
C 	C 	0.54866 0.00991 0.70730 0.06000
H 	H 	0.54020 0.00070 0.75790 0.06900
C 	C 	0.54250 0.09550 0.72890 0.38100
C 	C 	0.58345 0.04880 0.47310 0.37600
C 	C 	0.54930 0.92300 0.69280 0.36100
C 	C 	0.63431 0.27631 0.86080 -0.11800
C 	C 	0.69160 0.30210 0.86000 0.08400
H 	H 	0.70840 0.28050 0.85880 0.05800
C 	C 	0.60100 0.21430 0.86250 0.41500
Ga	Ga	0.17293 0.45190 0.18901 2.07600
O 	O 	0.19289 0.41040 0.12943 -0.61000
O 	O 	0.21551 0.47307 0.03913 -0.34100
O 	O 	0.25578 0.42945 0.78670 -0.59500
O 	O 	0.25271 0.34952 0.76354 -0.30500
O 	O 	0.22700 0.22656 0.97980 -0.47800
O 	O 	0.19856 0.24151 0.09003 -0.27300
O 	O 	0.21610 0.52821 0.19262 -0.62000
O 	O 	0.28919 0.51900 0.19903 -0.33300
C 	C 	0.21920 0.39205 0.01233 -0.12300
C 	C 	0.23153 0.40484 0.93573 0.11200
H 	H 	0.23427 0.43703 0.91613 0.06400
C 	C 	0.23964 0.36960 0.88883 -0.05800
C 	C 	0.23648 0.32227 0.91883 -0.05100
H 	H 	0.24287 0.29923 0.88773 0.10500
C 	C 	0.22412 0.30884 0.99343 0.14600
C 	C 	0.21533 0.34324 0.04063 -0.12300
H 	H 	0.20687 0.33403 0.09123 0.11600
C 	C 	0.20917 0.42883 0.06223 0.37900
C 	C 	0.25012 0.38213 0.80643 0.36900
C 	C 	0.21597 0.25633 0.02613 0.15000
C 	C 	0.30098 0.60964 0.19413 -0.13700
C 	C 	0.35827 0.63543 0.19333 0.09000
H 	H 	0.37507 0.61383 0.19213 0.04600
C 	C 	0.26767 0.54763 0.19583 0.41600
Ga	Ga	0.83959 0.78523 0.52235 2.07600
O 	O 	0.85955 0.74374 0.46277 -0.60600
O 	O 	0.88217 0.80641 0.37247 -0.31700
O 	O 	0.92244 0.76279 0.12004 -0.61900
O 	O 	0.91937 0.68286 0.09688 -0.33900
O 	O 	0.89366 0.55990 0.31314 -0.58900
O 	O 	0.86522 0.57485 0.42337 -0.31700
O 	O 	0.88276 0.86155 0.52596 -0.61200
O 	O 	0.95585 0.85234 0.53237 -0.32100
C 	C 	0.88586 0.72539 0.34567 -0.10100
C 	C 	0.89819 0.73818 0.26907 0.05700
H 	H 	0.90093 0.77037 0.24947 0.06000
C 	C 	0.90630 0.70294 0.22217 -0.10600
C 	C 	0.90314 0.65561 0.25217 0.06000
H 	H 	0.90953 0.63257 0.22107 0.05500
C 	C 	0.89078 0.64218 0.32677 -0.10000
C 	C 	0.88199 0.67658 0.37397 0.05400
H 	H 	0.87353 0.66737 0.42457 0.06300
C 	C 	0.87583 0.76217 0.39557 0.38200
C 	C 	0.91678 0.71547 0.13977 0.38200
C 	C 	0.88263 0.58967 0.35947 0.36300
C 	C 	0.96764 0.94298 0.52747 -0.09000
C 	C 	0.02493 0.96877 0.52667 0.03500
H 	H 	0.04173 0.94717 0.52547 0.06500
C 	C 	0.93433 0.88097 0.52917 0.40200
Ga	Ga	0.61231 0.11857 0.35568 2.07600
O 	O 	0.55085 0.07707 0.29610 -0.61000
O 	O 	0.59090 0.13974 0.20580 -0.33000
O 	O 	0.50701 0.09612 0.95337 -0.59900
O 	O 	0.43015 0.01619 0.93021 -0.30900
O 	O 	0.33290 0.89323 0.14647 -0.59800
O 	O 	0.37629 0.90818 0.25670 -0.32500
O 	O 	0.64545 0.19488 0.35929 -0.61800
O 	O 	0.56315 0.18567 0.36570 -0.33000
C 	C 	0.50619 0.05872 0.17900 -0.14200
C 	C 	0.50665 0.07151 0.10240 0.11400
H 	H 	0.53610 0.10370 0.08280 0.02000
C 	C 	0.46330 0.03627 0.05550 -0.21300
C 	C 	0.41913 0.98894 0.08550 0.11400
H 	H 	0.38970 0.96590 0.05440 0.02000
C 	C 	0.41806 0.97551 0.16010 -0.14800
C 	C 	0.46125 0.00991 0.20730 0.09600
H 	H 	0.46050 0.00070 0.25790 0.05000
C 	C 	0.55300 0.09550 0.22890 0.39600
C 	C 	0.46535 0.04880 0.97310 0.47300
C 	C 	0.37370 0.92300 0.19280 0.37700
C 	C 	0.64200 0.27631 0.36080 -0.13300
C 	C 	0.61050 0.30210 0.36000 0.08800
H 	H 	0.57210 0.28050 0.35880 0.04900
C 	C 	0.61330 0.21430 0.36250 0.41500
Ga	Ga	0.27897 0.45190 0.68901 2.07600
O 	O 	0.21752 0.41040 0.62943 -0.60400
O 	O 	0.25757 0.47307 0.53913 -0.31500
O 	O 	0.17368 0.42945 0.28670 -0.60500
O 	O 	0.09682 0.34952 0.26354 -0.31800
O 	O 	0.99957 0.22656 0.47980 -0.57900
O 	O 	0.04296 0.24151 0.59003 -0.31500
O 	O 	0.31212 0.52821 0.69262 -0.61200
O 	O 	0.22982 0.51900 0.69903 -0.32300
C 	C 	0.17286 0.39205 0.51233 -0.09700
C 	C 	0.17332 0.40484 0.43573 0.05400
H 	H 	0.20277 0.43703 0.41613 0.06300
C 	C 	0.12997 0.36960 0.38883 -0.09900
C 	C 	0.08580 0.32227 0.41883 0.05500
H 	H 	0.05637 0.29923 0.38773 0.05800
C 	C 	0.08473 0.30884 0.49343 -0.09400
C 	C 	0.12792 0.34324 0.54063 0.05000
H 	H 	0.12717 0.33403 0.59123 0.06500
C 	C 	0.21967 0.42883 0.56223 0.38100
C 	C 	0.13202 0.38213 0.30643 0.38000
C 	C 	0.04037 0.25633 0.52613 0.35300
C 	C 	0.30867 0.60964 0.69413 -0.12400
C 	C 	0.27717 0.63543 0.69333 0.08700
H 	H 	0.23877 0.61383 0.69213 0.05400
C 	C 	0.27997 0.54763 0.69583 0.41500
Ga	Ga	0.94564 0.78523 0.02235 2.06200
O 	O 	0.88418 0.74374 0.96277 -0.56700
O 	O 	0.92423 0.80641 0.87247 -0.29000
O 	O 	0.84034 0.76279 0.62004 -0.60100
O 	O 	0.76348 0.68286 0.59688 -0.31100
O 	O 	0.66623 0.55990 0.81314 -0.58200
O 	O 	0.70962 0.57485 0.92337 -0.29700
O 	O 	0.97878 0.86155 0.02596 -0.63700
O 	O 	0.89648 0.85234 0.03237 -0.35100
C 	C 	0.83952 0.72539 0.84567 -0.08100
C 	C 	0.83998 0.73818 0.76907 0.04700
H 	H 	0.86943 0.77037 0.74947 0.06900
C 	C 	0.79663 0.70294 0.72217 -0.08900
C 	C 	0.75246 0.65561 0.75217 0.05000
H 	H 	0.72303 0.63257 0.72107 0.06500
C 	C 	0.75139 0.64218 0.82677 -0.08200
C 	C 	0.79458 0.67658 0.87397 0.04300
H 	H 	0.79383 0.66737 0.92457 0.08000
C 	C 	0.88633 0.76217 0.89557 0.37400
C 	C 	0.79868 0.71547 0.63977 0.37700
C 	C 	0.70703 0.58967 0.85947 0.35700
C 	C 	0.97533 0.94298 0.02747 -0.12200
C 	C 	0.94383 0.96877 0.02667 0.06500
H 	H 	0.90543 0.94717 0.02547 0.04700
C 	C 	0.94663 0.88097 0.02917 0.41000
Ga	Ga	0.50626 0.38769 0.35568 2.07600
O 	O 	0.52622 0.44915 0.29610 -0.61100
O 	O 	0.54884 0.40910 0.20580 -0.33000
O 	O 	0.58911 0.49299 0.95337 -0.60000
O 	O 	0.58604 0.56985 0.93021 -0.31200
O 	O 	0.56033 0.66710 0.14647 -0.59700
O 	O 	0.53189 0.62371 0.25670 -0.32200
O 	O 	0.54943 0.35455 0.35929 -0.61800
O 	O 	0.62252 0.43685 0.36570 -0.33000
C 	C 	0.55253 0.49381 0.17900 -0.14100
C 	C 	0.56486 0.49335 0.10240 0.11500
H 	H 	0.56760 0.46390 0.08280 0.02000
C 	C 	0.57297 0.53670 0.05550 -0.22000
C 	C 	0.56981 0.58087 0.08550 0.12100
H 	H 	0.57620 0.61030 0.05440 0.01900
C 	C 	0.55745 0.58194 0.16010 -0.14100
C 	C 	0.54866 0.53875 0.20730 0.08700
H 	H 	0.54020 0.53950 0.25790 0.05100
C 	C 	0.54250 0.44700 0.22890 0.39500
C 	C 	0.58345 0.53465 0.97310 0.47500
C 	C 	0.54930 0.62630 0.19280 0.37600
C 	C 	0.63431 0.35800 0.36080 -0.13300
C 	C 	0.69160 0.38950 0.36000 0.08800
H 	H 	0.70840 0.42790 0.35880 0.04900
C 	C 	0.60100 0.38670 0.36250 0.41500
Ga	Ga	0.17293 0.72103 0.68901 2.07600
O 	O 	0.19289 0.78248 0.62943 -0.60500
O 	O 	0.21551 0.74243 0.53913 -0.31500
O 	O 	0.25578 0.82632 0.28670 -0.60500
O 	O 	0.25271 0.90318 0.26354 -0.31900
O 	O 	0.22700 0.00043 0.47980 -0.57900
O 	O 	0.19856 0.95704 0.59003 -0.31600
O 	O 	0.21610 0.68788 0.69262 -0.61300
O 	O 	0.28919 0.77018 0.69903 -0.32300
C 	C 	0.21920 0.82714 0.51233 -0.09800
C 	C 	0.23153 0.82668 0.43573 0.05400
H 	H 	0.23427 0.79723 0.41613 0.06200
C 	C 	0.23964 0.87003 0.38883 -0.09900
C 	C 	0.23648 0.91420 0.41883 0.05500
H 	H 	0.24287 0.94363 0.38773 0.05800
C 	C 	0.22412 0.91527 0.49343 -0.09500
C 	C 	0.21533 0.87208 0.54063 0.05000
H 	H 	0.20687 0.87283 0.59123 0.06500
C 	C 	0.20917 0.78033 0.56223 0.38100
C 	C 	0.25012 0.86798 0.30643 0.38000
C 	C 	0.21597 0.95963 0.52613 0.35200
C 	C 	0.30098 0.69133 0.69413 -0.12400
C 	C 	0.35827 0.72283 0.69333 0.08700
H 	H 	0.37507 0.76123 0.69213 0.05400
C 	C 	0.26767 0.72003 0.69583 0.41500
Ga	Ga	0.83959 0.05436 0.02235 2.06200
O 	O 	0.85955 0.11582 0.96277 -0.56600
O 	O 	0.88217 0.07577 0.87247 -0.28800
O 	O 	0.92244 0.15966 0.62004 -0.60000
O 	O 	0.91937 0.23652 0.59688 -0.30900
O 	O 	0.89366 0.33377 0.81314 -0.58200
O 	O 	0.86522 0.29038 0.92337 -0.29600
O 	O 	0.88276 0.02122 0.02596 -0.63700
O 	O 	0.95585 0.10352 0.03237 -0.34900
C 	C 	0.88586 0.16048 0.84567 -0.07900
C 	C 	0.89819 0.16002 0.76907 0.04600
H 	H 	0.90093 0.13057 0.74947 0.07000
C 	C 	0.90630 0.20337 0.72217 -0.08700
C 	C 	0.90314 0.24754 0.75217 0.04900
H 	H 	0.90953 0.27697 0.72107 0.06600
C 	C 	0.89078 0.24861 0.82677 -0.08100
C 	C 	0.88199 0.20542 0.87397 0.04300
H 	H 	0.87353 0.20617 0.92457 0.08100
C 	C 	0.87583 0.11367 0.89557 0.37300
C 	C 	0.91678 0.20132 0.63977 0.37700
C 	C 	0.88263 0.29297 0.85947 0.35700
C 	C 	0.96764 0.02467 0.02747 -0.11700
C 	C 	0.02493 0.05617 0.02667 0.06500
H 	H 	0.04173 0.09457 0.02547 0.04700
C 	C 	0.93433 0.05337 0.02917 0.40900
Ga	Ga	0.88143 0.49374 0.35568 2.07600
O 	O 	0.92293 0.47378 0.29610 -0.61000
O 	O 	0.86026 0.45116 0.20580 -0.33000
O 	O 	0.90388 0.41089 0.95337 -0.59900
O 	O 	0.98381 0.41396 0.93021 -0.30900
O 	O 	0.10677 0.43967 0.14647 -0.59800
O 	O 	0.09182 0.46811 0.25670 -0.32500
O 	O 	0.80512 0.45057 0.35929 -0.61800
O 	O 	0.81433 0.37748 0.36570 -0.33000
C 	C 	0.94128 0.44747 0.17900 -0.14200
C 	C 	0.92849 0.43514 0.10240 0.11400
H 	H 	0.89630 0.43240 0.08280 0.02000
C 	C 	0.96373 0.42703 0.05550 -0.21300
C 	C 	0.01106 0.43019 0.08550 0.11400
H 	H 	0.03410 0.42380 0.05440 0.02000
C 	C 	0.02449 0.44255 0.16010 -0.14800
C 	C 	0.99009 0.45134 0.20730 0.09600
H 	H 	0.99930 0.45980 0.25790 0.05000
C 	C 	0.90450 0.45750 0.22890 0.39600
C 	C 	0.95120 0.41655 0.97310 0.47300
C 	C 	0.07700 0.45070 0.19280 0.37700
C 	C 	0.72369 0.36569 0.36080 -0.13300
C 	C 	0.69790 0.30840 0.36000 0.08800
H 	H 	0.71950 0.29160 0.35880 0.04900
C 	C 	0.78570 0.39900 0.36250 0.41500
Ga	Ga	0.54810 0.82707 0.68901 2.07600
O 	O 	0.58960 0.80711 0.62943 -0.60400
O 	O 	0.52693 0.78449 0.53913 -0.31500
O 	O 	0.57055 0.74422 0.28670 -0.60500
O 	O 	0.65048 0.74729 0.26354 -0.31700
O 	O 	0.77344 0.77300 0.47980 -0.58700
O 	O 	0.75849 0.80144 0.59003 -0.31400
O 	O 	0.47179 0.78390 0.69262 -0.61300
O 	O 	0.48100 0.71081 0.69903 -0.32200
C 	C 	0.60795 0.78080 0.51233 -0.09800
C 	C 	0.59516 0.76847 0.43573 0.05400
H 	H 	0.56297 0.76573 0.41613 0.06200
C 	C 	0.63040 0.76036 0.38883 -0.09900
C 	C 	0.67773 0.76352 0.41883 0.05700
H 	H 	0.70077 0.75713 0.38773 0.06000
C 	C 	0.69116 0.77588 0.49343 -0.09600
C 	C 	0.65676 0.78467 0.54063 0.05100
H 	H 	0.66597 0.79313 0.59123 0.06500
C 	C 	0.57117 0.79083 0.56223 0.38100
C 	C 	0.61787 0.74988 0.30643 0.38000
C 	C 	0.74367 0.78403 0.52613 0.36100
C 	C 	0.39036 0.69902 0.69413 -0.12400
C 	C 	0.36457 0.64173 0.69333 0.08700
H 	H 	0.38617 0.62493 0.69213 0.05500
C 	C 	0.45237 0.73233 0.69583 0.41500
Ga	Ga	0.21477 0.16041 0.02235 2.06200
O 	O 	0.25626 0.14045 0.96277 -0.56700
O 	O 	0.19359 0.11783 0.87247 -0.29100
O 	O 	0.23721 0.07756 0.62004 -0.60000
O 	O 	0.31714 0.08063 0.59688 -0.30900
O 	O 	0.44010 0.10634 0.81314 -0.58200
O 	O 	0.42515 0.13478 0.92337 -0.29700
O 	O 	0.13845 0.11724 0.02596 -0.63900
O 	O 	0.14766 0.04415 0.03237 -0.34900
C 	C 	0.27461 0.11414 0.84567 -0.08100
C 	C 	0.26182 0.10181 0.76907 0.04700
H 	H 	0.22963 0.09907 0.74947 0.06900
C 	C 	0.29706 0.09370 0.72217 -0.08800
C 	C 	0.34439 0.09686 0.75217 0.05000
H 	H 	0.36743 0.09047 0.72107 0.06600
C 	C 	0.35782 0.10922 0.82677 -0.08100
C 	C 	0.32342 0.11801 0.87397 0.04300
H 	H 	0.33263 0.12647 0.92457 0.08000
C 	C 	0.23783 0.12417 0.89557 0.37400
C 	C 	0.28453 0.08322 0.63977 0.37700
C 	C 	0.41033 0.11737 0.85947 0.35700
C 	C 	0.05702 0.03236 0.02747 -0.12200
C 	C 	0.03123 0.97507 0.02667 0.05900
H 	H 	0.05283 0.95827 0.02547 0.04700
C 	C 	0.11903 0.06567 0.02917 0.41000
