data_crystal

_cell_length_a 8.67770
_cell_length_b 15.91500
_cell_length_c 15.91500
_cell_angle_alpha 120.00000
_cell_angle_beta  90.00000
_cell_angle_gamma 90.00000

_symmetry_space_group_name_	'P 1'
_symmetry_space_group_name_H-M	'P 1'

loop_
_symmetry_equiv_pos_as_xyz
  x,y,z

loop_
_atom_site_label
_atom_site_type_symbol
_atom_site_fract_x
_atom_site_fract_y
_atom_site_fract_z
_atom_site_charge
Cu	Cu	0.89000 0.38141 0.59095 0.92600
Cu	Cu	0.22333 0.20954 0.61859 0.92900
Cu	Cu	0.55667 0.40905 0.79046 0.92800
Cu	Cu	0.89000 0.61859 0.40905 0.92600
Cu	Cu	0.22333 0.79046 0.38141 0.92900
Cu	Cu	0.55667 0.59095 0.20954 0.92800
H 	H 	0.58840 0.87420 0.09550 0.15300
H 	H 	0.58030 0.85280 0.18150 0.17100
H 	H 	0.43030 0.84800 0.12430 0.17400
H 	H 	0.16530 0.51860 0.76900 0.36000
H 	H 	0.18330 0.60520 0.87540 0.32800
H 	H 	0.24210 0.50160 0.84840 0.32800
H 	H 	0.31480 0.61500 0.70480 0.32100
H 	H 	0.48240 0.65040 0.74270 0.31400
H 	H 	0.34060 0.70220 0.81000 0.29400
H 	H 	0.41800 0.73300 0.93100 0.04700
H 	H 	0.67000 0.71900 0.04000 0.01900
H 	H 	0.40140 0.44330 0.67810 0.17600
H 	H 	0.55900 0.50690 0.73060 0.10800
H 	H 	0.92173 0.22130 0.12580 0.13100
H 	H 	0.91363 0.32870 0.14720 0.15000
H 	H 	0.76363 0.27630 0.15200 0.15600
H 	H 	0.49863 0.25040 0.48140 0.35000
H 	H 	0.51663 0.27020 0.39480 0.31800
H 	H 	0.57543 0.34680 0.49840 0.32000
H 	H 	0.64813 0.08980 0.38500 0.31300
H 	H 	0.81573 0.09230 0.34960 0.30400
H 	H 	0.67393 0.10780 0.29780 0.28700
H 	H 	0.75133 0.19800 0.26700 0.04400
H 	H 	0.00333 0.32100 0.28100 0.05200
H 	H 	0.73473 0.23480 0.55670 0.17400
H 	H 	0.89233 0.22370 0.49310 0.10300
H 	H 	0.25507 0.90450 0.77870 0.15900
H 	H 	0.24697 0.81850 0.67130 0.17800
H 	H 	0.09697 0.87570 0.72370 0.18200
H 	H 	0.83197 0.23100 0.74960 0.35300
H 	H 	0.84997 0.12460 0.72980 0.31900
H 	H 	0.90877 0.15160 0.65320 0.32000
H 	H 	0.98147 0.29520 0.91020 0.28900
H 	H 	0.14907 0.25730 0.90770 0.29500
H 	H 	0.00727 0.19000 0.89220 0.27800
H 	H 	0.08467 0.06900 0.80200 0.05000
H 	H 	0.33667 0.96000 0.67900 0.01600
H 	H 	0.06807 0.32190 0.76520 0.18100
H 	H 	0.22567 0.26940 0.77630 0.10800
H 	H 	0.58840 0.12580 0.90450 0.15300
H 	H 	0.58030 0.14720 0.81850 0.17100
H 	H 	0.43030 0.15200 0.87570 0.17400
H 	H 	0.16530 0.48140 0.23100 0.36000
H 	H 	0.18330 0.39480 0.12460 0.32800
H 	H 	0.24210 0.49840 0.15160 0.32800
H 	H 	0.31480 0.38500 0.29520 0.32100
H 	H 	0.48240 0.34960 0.25730 0.31400
H 	H 	0.34060 0.29780 0.19000 0.29400
H 	H 	0.41800 0.26700 0.06900 0.04700
H 	H 	0.67000 0.28100 0.96000 0.01900
H 	H 	0.40140 0.55670 0.32190 0.17600
H 	H 	0.55900 0.49310 0.26940 0.10800
H 	H 	0.92173 0.77870 0.87420 0.13100
H 	H 	0.91363 0.67130 0.85280 0.15000
H 	H 	0.76363 0.72370 0.84800 0.15600
H 	H 	0.49863 0.74960 0.51860 0.35000
H 	H 	0.51663 0.72980 0.60520 0.31800
H 	H 	0.57543 0.65320 0.50160 0.32000
H 	H 	0.64813 0.91020 0.61500 0.31300
H 	H 	0.81573 0.90770 0.65040 0.30400
H 	H 	0.67393 0.89220 0.70220 0.28700
H 	H 	0.75133 0.80200 0.73300 0.04400
H 	H 	0.00333 0.67900 0.71900 0.05200
H 	H 	0.73473 0.76520 0.44330 0.17400
H 	H 	0.89233 0.77630 0.50690 0.10300
H 	H 	0.25507 0.09550 0.22130 0.15900
H 	H 	0.24697 0.18150 0.32870 0.17800
H 	H 	0.09697 0.12430 0.27630 0.18200
H 	H 	0.83197 0.76900 0.25040 0.35300
H 	H 	0.84997 0.87540 0.27020 0.31900
H 	H 	0.90877 0.84840 0.34680 0.32000
H 	H 	0.98147 0.70480 0.08980 0.28900
H 	H 	0.14907 0.74270 0.09230 0.29500
H 	H 	0.00727 0.81000 0.10780 0.27800
H 	H 	0.08467 0.93100 0.19800 0.05000
H 	H 	0.33667 0.04000 0.32100 0.01600
H 	H 	0.06807 0.67810 0.23480 0.18100
H 	H 	0.22567 0.73060 0.22370 0.10800
C 	C 	0.51770 0.33130 0.90660 0.28300
C 	C 	0.56900 0.27170 0.95190 0.06100
C 	C 	0.53920 0.83580 0.11890 -0.50500
C 	C 	0.48860 0.39450 0.11140 0.04000
C 	C 	0.38860 0.57040 0.79960 0.43700
C 	C 	0.22990 0.54670 0.82550 -1.00700
C 	C 	0.38090 0.64110 0.76060 -0.95600
C 	C 	0.85103 0.57530 0.66870 0.30100
C 	C 	0.90233 0.68020 0.72830 0.00400
C 	C 	0.87253 0.28310 0.16420 -0.44700
C 	C 	0.82193 0.71690 0.60550 0.04000
C 	C 	0.72193 0.22920 0.42960 0.42700
C 	C 	0.56323 0.27880 0.45330 -0.98600
C 	C 	0.71423 0.11950 0.35890 -0.93700
C 	C 	0.18437 0.09340 0.42470 0.28000
C 	C 	0.23567 0.04810 0.31980 0.06900
C 	C 	0.20587 0.88110 0.71690 -0.52000
C 	C 	0.15527 0.88860 0.28310 0.04600
C 	C 	0.05527 0.20040 0.77080 0.42900
C 	C 	0.89657 0.17450 0.72120 -1.00200
C 	C 	0.04757 0.23940 0.88050 -0.88800
C 	C 	0.51770 0.66870 0.09340 0.28300
C 	C 	0.56900 0.72830 0.04810 0.06100
C 	C 	0.53920 0.16420 0.88110 -0.50500
C 	C 	0.48860 0.60550 0.88860 0.04000
C 	C 	0.38860 0.42960 0.20040 0.43700
C 	C 	0.22990 0.45330 0.17450 -1.00700
C 	C 	0.38090 0.35890 0.23940 -0.95600
C 	C 	0.85103 0.42470 0.33130 0.30100
C 	C 	0.90233 0.31980 0.27170 0.00400
C 	C 	0.87253 0.71690 0.83580 -0.44700
C 	C 	0.82193 0.28310 0.39450 0.04000
C 	C 	0.72193 0.77080 0.57040 0.42700
C 	C 	0.56323 0.72120 0.54670 -0.98600
C 	C 	0.71423 0.88050 0.64110 -0.93700
C 	C 	0.18437 0.90660 0.57530 0.28000
C 	C 	0.23567 0.95190 0.68020 0.06900
C 	C 	0.20587 0.11890 0.28310 -0.52000
C 	C 	0.15527 0.11140 0.71690 0.04600
C 	C 	0.05527 0.79960 0.22920 0.42900
C 	C 	0.89657 0.82550 0.27880 -1.00200
C 	C 	0.04757 0.76060 0.11950 -0.88800
N 	N 	0.46210 0.47630 0.72690 -0.39700
N 	N 	0.48430 0.30260 0.04320 -0.15200
N 	N 	0.79543 0.25060 0.52370 -0.39400
N 	N 	0.81763 0.74060 0.69740 -0.14600
N 	N 	0.12877 0.27310 0.74940 -0.39500
N 	N 	0.15097 0.95680 0.25940 -0.15400
N 	N 	0.46210 0.52370 0.27310 -0.39700
N 	N 	0.48430 0.69740 0.95680 -0.15200
N 	N 	0.79543 0.74940 0.47630 -0.39400
N 	N 	0.81763 0.25940 0.30260 -0.14600
N 	N 	0.12877 0.72690 0.25060 -0.39500
N 	N 	0.15097 0.04320 0.74060 -0.15400
Cl	Cl	0.84460 0.41507 0.74663 -0.57900
Cl	Cl	0.17793 0.33156 0.58493 -0.56400
Cl	Cl	0.51127 0.25337 0.66844 -0.57300
Cl	Cl	0.84460 0.58493 0.25337 -0.57900
Cl	Cl	0.17793 0.66844 0.41507 -0.56400
Cl	Cl	0.51127 0.74663 0.33156 -0.57300
O 	O 	0.62900 0.35890 0.87220 -0.35100
O 	O 	0.56660 0.45360 0.09990 -0.28200
O 	O 	0.37980 0.34590 0.90040 -0.30300
O 	O 	0.96233 0.51330 0.64110 -0.36300
O 	O 	0.89993 0.64630 0.54640 -0.28600
O 	O 	0.71313 0.55450 0.65410 -0.30900
O 	O 	0.29567 0.12780 0.48670 -0.34900
O 	O 	0.23327 0.90010 0.35370 -0.28200
O 	O 	0.04647 0.09960 0.44550 -0.29600
O 	O 	0.62900 0.64110 0.12780 -0.35100
O 	O 	0.56660 0.54640 0.90010 -0.28200
O 	O 	0.37980 0.65410 0.09960 -0.30300
O 	O 	0.96233 0.48670 0.35890 -0.36300
O 	O 	0.89993 0.35370 0.45360 -0.28600
O 	O 	0.71313 0.44550 0.34590 -0.30900
O 	O 	0.29567 0.87220 0.51330 -0.34900
O 	O 	0.23327 0.09990 0.64630 -0.28200
O 	O 	0.04647 0.90040 0.55450 -0.29600
