data_crystal

_cell_length_a 6.81050
_cell_length_b 13.19000
_cell_length_c 16.38080
_cell_angle_alpha 113.74100
_cell_angle_beta  100.53200
_cell_angle_gamma 90.00000

_symmetry_space_group_name_	'P 1'
_symmetry_space_group_name_H-M	'P 1'

loop_
_symmetry_equiv_pos_as_xyz
  x,y,z

loop_
_atom_site_label
_atom_site_type_symbol
_atom_site_fract_x
_atom_site_fract_y
_atom_site_fract_z
_atom_site_charge
La	La	0.27209 0.30203 0.19760 1.67800
La	La	0.22791 0.10443 0.80240 1.67200
La	La	0.72791 0.69797 0.80240 1.67800
La	La	0.77209 0.89557 0.19760 1.67200
H 	H 	0.19070 0.43370 0.39140 0.30200
H 	H 	0.50530 0.21940 0.65440 0.28200
H 	H 	0.24670 0.51970 0.18680 0.31700
H 	H 	0.36390 0.46290 0.53220 0.09300
H 	H 	0.28290 0.08250 0.43960 0.09100
H 	H 	0.85790 0.35450 0.86500 0.09400
H 	H 	0.30930 0.04230 0.60860 0.30200
H 	H 	0.99470 0.56500 0.34560 0.27800
H 	H 	0.25330 0.33290 0.81320 0.31600
H 	H 	0.13610 0.93070 0.46780 0.09600
H 	H 	0.21710 0.64290 0.56040 0.09000
H 	H 	0.64210 0.48950 0.13500 0.09400
H 	H 	0.80930 0.56630 0.60860 0.30100
H 	H 	0.49470 0.78060 0.34560 0.28100
H 	H 	0.75330 0.48030 0.81320 0.31700
H 	H 	0.63610 0.53710 0.46780 0.09300
H 	H 	0.71710 0.91750 0.56040 0.09100
H 	H 	0.14210 0.64550 0.13500 0.09400
H 	H 	0.69070 0.95770 0.39140 0.30200
H 	H 	0.00530 0.43500 0.65440 0.27800
H 	H 	0.74670 0.66710 0.18680 0.31600
H 	H 	0.86390 0.06930 0.53220 0.09600
H 	H 	0.78290 0.35710 0.43960 0.09000
H 	H 	0.35790 0.51050 0.86500 0.09400
C 	C 	0.23330 0.20418 0.39536 -0.15600
C 	C 	0.25900 0.32035 0.42490 0.26400
C 	C 	0.34880 0.38624 0.51348 -0.13700
C 	C 	0.41790 0.34044 0.57608 -0.11900
C 	C 	0.38990 0.22561 0.54742 0.22800
C 	C 	0.29950 0.15897 0.45794 -0.09100
C 	C 	0.13590 0.12672 0.30004 0.40500
C 	C 	0.52500 0.41462 0.67024 0.35700
C 	C 	0.00320 0.38960 0.99260 -0.16000
C 	C 	0.08980 0.47922 0.07524 0.27600
C 	C 	0.91540 0.41293 0.91946 -0.12500
C 	C 	0.01210 0.27108 0.97816 0.38100
C 	C 	0.26670 0.80882 0.60464 -0.15800
C 	C 	0.24100 0.89545 0.57510 0.26800
C 	C 	0.15120 0.87276 0.48652 -0.14100
C 	C 	0.08210 0.76436 0.42392 -0.11300
C 	C 	0.11010 0.67819 0.45258 0.22500
C 	C 	0.20050 0.70103 0.54206 -0.08900
C 	C 	0.36410 0.82668 0.69996 0.40600
C 	C 	0.97500 0.74438 0.32976 0.35300
C 	C 	0.49680 0.39700 0.00740 -0.15300
C 	C 	0.41020 0.40398 0.92476 0.27200
C 	C 	0.58460 0.49347 0.08054 -0.13100
C 	C 	0.48790 0.29292 0.02184 0.39700
C 	C 	0.76670 0.79582 0.60464 -0.15600
C 	C 	0.74100 0.67965 0.57510 0.26400
C 	C 	0.65120 0.61376 0.48652 -0.13700
C 	C 	0.58210 0.65956 0.42392 -0.11900
C 	C 	0.61010 0.77439 0.45258 0.22800
C 	C 	0.70050 0.84103 0.54206 -0.09100
C 	C 	0.86410 0.87328 0.69996 0.40500
C 	C 	0.47500 0.58538 0.32976 0.35700
C 	C 	0.99680 0.61040 0.00740 -0.16000
C 	C 	0.91020 0.52078 0.92476 0.27600
C 	C 	0.08460 0.58707 0.08054 -0.12500
C 	C 	0.98790 0.72892 0.02184 0.38100
C 	C 	0.73330 0.19118 0.39536 -0.15800
C 	C 	0.75900 0.10455 0.42490 0.26800
C 	C 	0.84880 0.12724 0.51348 -0.14100
C 	C 	0.91790 0.23564 0.57608 -0.11300
C 	C 	0.88990 0.32181 0.54742 0.22500
C 	C 	0.79950 0.29897 0.45794 -0.08900
C 	C 	0.63590 0.17332 0.30004 0.40600
C 	C 	0.02500 0.25562 0.67024 0.35300
C 	C 	0.50320 0.60300 0.99260 -0.15300
C 	C 	0.58980 0.59602 0.07524 0.27200
C 	C 	0.41540 0.50653 0.91946 -0.13100
C 	C 	0.51210 0.70708 0.97816 0.39700
O 	O 	0.12010 0.15989 0.23710 -0.43500
O 	O 	0.07330 0.03055 0.28740 -0.40300
O 	O 	0.59990 0.36836 0.72212 -0.32500
O 	O 	0.53830 0.51759 0.69276 -0.39300
O 	O 	0.18950 0.36608 0.36402 -0.54800
O 	O 	0.44750 0.17354 0.60450 -0.45700
O 	O 	0.05930 0.24499 0.04488 -0.42900
O 	O 	0.97210 0.19866 0.89626 -0.39700
O 	O 	0.18420 0.46190 0.14876 -0.58600
O 	O 	0.37990 0.92279 0.76290 -0.43400
O 	O 	0.42670 0.74315 0.71260 -0.40300
O 	O 	0.90010 0.64624 0.27788 -0.32500
O 	O 	0.96170 0.82483 0.30724 -0.39400
O 	O 	0.31050 0.00206 0.63598 -0.55100
O 	O 	0.05250 0.56904 0.39550 -0.45400
O 	O 	0.44070 0.20011 0.95512 -0.43800
O 	O 	0.52790 0.30240 0.10374 -0.40500
O 	O 	0.31580 0.31314 0.85124 -0.58600
O 	O 	0.87990 0.84011 0.76290 -0.43500
O 	O 	0.92670 0.96945 0.71260 -0.40300
O 	O 	0.40010 0.63164 0.27788 -0.32500
O 	O 	0.46170 0.48241 0.30724 -0.39300
O 	O 	0.81050 0.63392 0.63598 -0.54800
O 	O 	0.55250 0.82646 0.39550 -0.45700
O 	O 	0.94070 0.75501 0.95512 -0.42900
O 	O 	0.02790 0.80134 0.10374 -0.39700
O 	O 	0.81580 0.53810 0.85124 -0.58600
O 	O 	0.62010 0.07721 0.23710 -0.43400
O 	O 	0.57330 0.25685 0.28740 -0.40300
O 	O 	0.09990 0.35376 0.72212 -0.32500
O 	O 	0.03830 0.17517 0.69276 -0.39400
O 	O 	0.68950 0.99794 0.36402 -0.55100
O 	O 	0.94750 0.43096 0.60450 -0.45400
O 	O 	0.55930 0.79989 0.04488 -0.43800
O 	O 	0.47210 0.69760 0.89626 -0.40500
O 	O 	0.68420 0.68686 0.14876 -0.58600
