data_crystal

_cell_length_a 8.79700
_cell_length_b 16.15500
_cell_length_c 32.17000
_cell_angle_alpha 90.00000
_cell_angle_beta  90.00000
_cell_angle_gamma 90.00000

_symmetry_space_group_name_	'P 1'
_symmetry_space_group_name_H-M	'P 1'

loop_
_symmetry_equiv_pos_as_xyz
  x,y,z

loop_
_atom_site_label
_atom_site_type_symbol
_atom_site_fract_x
_atom_site_fract_y
_atom_site_fract_z
_atom_site_charge
Yb	Yb	0.88979 0.23160 0.06407 1.56200
O 	O 	0.06080 0.16690 0.02173 -0.31300
O 	O 	0.22150 0.18330 0.96921 -0.31100
O 	O 	0.23840 0.34380 0.98423 -0.30400
O 	O 	0.05450 0.32980 0.03274 -0.31200
O 	O 	0.83960 0.35270 0.10199 -0.30200
O 	O 	0.94110 0.44770 0.14352 -0.33500
O 	O 	0.06910 0.25020 0.11683 -0.30900
O 	O 	0.17090 0.34630 0.15965 -0.29200
C 	C 	0.14210 0.21030 0.99823 0.22800
C 	C 	0.14570 0.30370 0.00601 0.22400
C 	C 	0.93860 0.37970 0.12594 0.24900
C 	C 	0.07150 0.32000 0.13491 0.22000
Yb	Yb	0.88979 0.73160 0.56407 1.56100
O 	O 	0.06080 0.66690 0.52173 -0.31400
O 	O 	0.22150 0.68330 0.46921 -0.31200
O 	O 	0.23840 0.84380 0.48423 -0.30400
O 	O 	0.05450 0.82980 0.53274 -0.31100
O 	O 	0.83960 0.85270 0.60199 -0.30200
O 	O 	0.94110 0.94770 0.64352 -0.33400
O 	O 	0.06910 0.75020 0.61683 -0.30900
O 	O 	0.17090 0.84630 0.65965 -0.29200
C 	C 	0.14210 0.71030 0.49823 0.22900
C 	C 	0.14570 0.80370 0.50601 0.22400
C 	C 	0.93860 0.87970 0.62594 0.24900
C 	C 	0.07150 0.82000 0.63491 0.22100
Yb	Yb	0.38979 0.23160 0.56407 1.56300
O 	O 	0.56080 0.16690 0.52173 -0.31700
O 	O 	0.72150 0.18330 0.46921 -0.31300
O 	O 	0.73840 0.34380 0.48423 -0.30600
O 	O 	0.55450 0.32980 0.53274 -0.31400
O 	O 	0.33960 0.35270 0.60199 -0.30100
O 	O 	0.44110 0.44770 0.64352 -0.33300
O 	O 	0.56910 0.25020 0.61683 -0.31100
O 	O 	0.67090 0.34630 0.65965 -0.29300
C 	C 	0.64210 0.21030 0.49823 0.22800
C 	C 	0.64570 0.30370 0.50601 0.22400
C 	C 	0.43860 0.37970 0.62594 0.25300
C 	C 	0.57150 0.32000 0.63491 0.21700
Yb	Yb	0.38979 0.73160 0.06407 1.56300
O 	O 	0.56080 0.66690 0.02173 -0.31700
O 	O 	0.72150 0.68330 0.96921 -0.31300
O 	O 	0.73840 0.84380 0.98423 -0.30500
O 	O 	0.55450 0.82980 0.03274 -0.31300
O 	O 	0.33960 0.85270 0.10199 -0.30100
O 	O 	0.44110 0.94770 0.14352 -0.33300
O 	O 	0.56910 0.75020 0.11683 -0.31100
O 	O 	0.67090 0.84630 0.15965 -0.29300
C 	C 	0.64210 0.71030 0.99823 0.22900
C 	C 	0.64570 0.80370 0.00601 0.22300
C 	C 	0.43860 0.87970 0.12594 0.25300
C 	C 	0.57150 0.82000 0.13491 0.21700
Yb	Yb	0.88979 0.76840 0.93593 1.56100
O 	O 	0.06080 0.83310 0.97827 -0.31400
O 	O 	0.22150 0.81670 0.03079 -0.31200
O 	O 	0.23840 0.65620 0.01577 -0.30500
O 	O 	0.05450 0.67020 0.96726 -0.31200
O 	O 	0.83960 0.64730 0.89801 -0.30200
O 	O 	0.94110 0.55230 0.85648 -0.33500
O 	O 	0.06910 0.74980 0.88317 -0.30900
O 	O 	0.17090 0.65370 0.84035 -0.29200
C 	C 	0.14210 0.78970 0.00177 0.22800
C 	C 	0.14570 0.69630 0.99399 0.22400
C 	C 	0.93860 0.62030 0.87406 0.24900
C 	C 	0.07150 0.68000 0.86509 0.22000
Yb	Yb	0.88979 0.26840 0.43593 1.56100
O 	O 	0.06080 0.33310 0.47827 -0.31400
O 	O 	0.22150 0.31670 0.53079 -0.31200
O 	O 	0.23840 0.15620 0.51577 -0.30400
O 	O 	0.05450 0.17020 0.46726 -0.31100
O 	O 	0.83960 0.14730 0.39801 -0.30200
O 	O 	0.94110 0.05230 0.35648 -0.33400
O 	O 	0.06910 0.24980 0.38317 -0.30900
O 	O 	0.17090 0.15370 0.34035 -0.29200
C 	C 	0.14210 0.28970 0.50177 0.22900
C 	C 	0.14570 0.19630 0.49399 0.22400
C 	C 	0.93860 0.12030 0.37406 0.24900
C 	C 	0.07150 0.18000 0.36509 0.22100
Yb	Yb	0.38979 0.76840 0.43593 1.56300
O 	O 	0.56080 0.83310 0.47827 -0.31700
O 	O 	0.72150 0.81670 0.53079 -0.31300
O 	O 	0.73840 0.65620 0.51577 -0.30600
O 	O 	0.55450 0.67020 0.46726 -0.31400
O 	O 	0.33960 0.64730 0.39801 -0.30100
O 	O 	0.44110 0.55230 0.35648 -0.33300
O 	O 	0.56910 0.74980 0.38317 -0.31100
O 	O 	0.67090 0.65370 0.34035 -0.29300
C 	C 	0.64210 0.78970 0.50177 0.22800
C 	C 	0.64570 0.69630 0.49399 0.22400
C 	C 	0.43860 0.62030 0.37406 0.25300
C 	C 	0.57150 0.68000 0.36509 0.21700
Yb	Yb	0.38979 0.26840 0.93593 1.56300
O 	O 	0.56080 0.33310 0.97827 -0.31700
O 	O 	0.72150 0.31670 0.03079 -0.31300
O 	O 	0.73840 0.15620 0.01577 -0.30500
O 	O 	0.55450 0.17020 0.96726 -0.31300
O 	O 	0.33960 0.14730 0.89801 -0.30100
O 	O 	0.44110 0.05230 0.85648 -0.33300
O 	O 	0.56910 0.24980 0.88317 -0.31100
O 	O 	0.67090 0.15370 0.84035 -0.29300
C 	C 	0.64210 0.28970 0.00177 0.22900
C 	C 	0.64570 0.19630 0.99399 0.22300
C 	C 	0.43860 0.12030 0.87406 0.25300
C 	C 	0.57150 0.18000 0.86509 0.21700
Yb	Yb	0.63979 0.98160 0.18593 1.56300
O 	O 	0.81080 0.91690 0.22827 -0.31700
O 	O 	0.97150 0.93330 0.28079 -0.31500
O 	O 	0.98840 0.09380 0.26577 -0.30700
O 	O 	0.80450 0.07980 0.21726 -0.31400
O 	O 	0.58960 0.10270 0.14801 -0.30100
O 	O 	0.69110 0.19770 0.10648 -0.33400
O 	O 	0.81910 0.00020 0.13317 -0.31100
O 	O 	0.92090 0.09630 0.09035 -0.29400
C 	C 	0.89210 0.96030 0.25177 0.22800
C 	C 	0.89570 0.05370 0.24399 0.22400
C 	C 	0.68860 0.12970 0.12406 0.25300
C 	C 	0.82150 0.07000 0.11509 0.21700
Yb	Yb	0.63979 0.48160 0.68593 1.56300
O 	O 	0.81080 0.41690 0.72827 -0.31700
O 	O 	0.97150 0.43330 0.78079 -0.31500
O 	O 	0.98840 0.59380 0.76577 -0.30700
O 	O 	0.80450 0.57980 0.71726 -0.31400
O 	O 	0.58960 0.60270 0.64801 -0.30100
O 	O 	0.69110 0.69770 0.60648 -0.33400
O 	O 	0.81910 0.50020 0.63317 -0.31200
O 	O 	0.92090 0.59630 0.59035 -0.29400
C 	C 	0.89210 0.46030 0.75177 0.22800
C 	C 	0.89570 0.55370 0.74399 0.22400
C 	C 	0.68860 0.62970 0.62406 0.25200
C 	C 	0.82150 0.57000 0.61509 0.21700
Yb	Yb	0.13979 0.98160 0.68593 1.56500
O 	O 	0.31080 0.91690 0.72827 -0.31600
O 	O 	0.47150 0.93330 0.78079 -0.31200
O 	O 	0.48840 0.09380 0.76577 -0.30500
O 	O 	0.30450 0.07980 0.71726 -0.31300
O 	O 	0.08960 0.10270 0.64801 -0.30000
O 	O 	0.19110 0.19770 0.60648 -0.33300
O 	O 	0.31910 0.00020 0.63317 -0.31000
O 	O 	0.42090 0.09630 0.59035 -0.29200
C 	C 	0.39210 0.96030 0.75177 0.22900
C 	C 	0.39570 0.05370 0.74399 0.22400
C 	C 	0.18860 0.12970 0.62406 0.25300
C 	C 	0.32150 0.07000 0.61509 0.21700
Yb	Yb	0.13979 0.48160 0.18593 1.56500
O 	O 	0.31080 0.41690 0.22827 -0.31600
O 	O 	0.47150 0.43330 0.28079 -0.31200
O 	O 	0.48840 0.59380 0.26577 -0.30500
O 	O 	0.30450 0.57980 0.21726 -0.31300
O 	O 	0.08960 0.60270 0.14801 -0.30000
O 	O 	0.19110 0.69770 0.10648 -0.33300
O 	O 	0.31910 0.50020 0.13317 -0.31000
O 	O 	0.42090 0.59630 0.09035 -0.29300
C 	C 	0.39210 0.46030 0.25177 0.22900
C 	C 	0.39570 0.55370 0.24399 0.22400
C 	C 	0.18860 0.62970 0.12406 0.25300
C 	C 	0.32150 0.57000 0.11509 0.21700
Yb	Yb	0.63979 0.51840 0.31407 1.56300
O 	O 	0.81080 0.58310 0.27173 -0.31700
O 	O 	0.97150 0.56670 0.21921 -0.31500
O 	O 	0.98840 0.40620 0.23423 -0.30700
O 	O 	0.80450 0.42020 0.28274 -0.31400
O 	O 	0.58960 0.39730 0.35199 -0.30100
O 	O 	0.69110 0.30230 0.39352 -0.33400
O 	O 	0.81910 0.49980 0.36683 -0.31200
O 	O 	0.92090 0.40370 0.40965 -0.29400
C 	C 	0.89210 0.53970 0.24823 0.22800
C 	C 	0.89570 0.44630 0.25601 0.22400
C 	C 	0.68860 0.37030 0.37594 0.25200
C 	C 	0.82150 0.43000 0.38491 0.21700
Yb	Yb	0.63979 0.01840 0.81407 1.56300
O 	O 	0.81080 0.08310 0.77173 -0.31700
O 	O 	0.97150 0.06670 0.71921 -0.31500
O 	O 	0.98840 0.90620 0.73423 -0.30700
O 	O 	0.80450 0.92020 0.78274 -0.31400
O 	O 	0.58960 0.89730 0.85199 -0.30100
O 	O 	0.69110 0.80230 0.89352 -0.33400
O 	O 	0.81910 0.99980 0.86683 -0.31100
O 	O 	0.92090 0.90370 0.90965 -0.29400
C 	C 	0.89210 0.03970 0.74823 0.22800
C 	C 	0.89570 0.94630 0.75601 0.22400
C 	C 	0.68860 0.87030 0.87594 0.25300
C 	C 	0.82150 0.93000 0.88491 0.21700
Yb	Yb	0.13979 0.51840 0.81407 1.56500
O 	O 	0.31080 0.58310 0.77173 -0.31600
O 	O 	0.47150 0.56670 0.71921 -0.31200
O 	O 	0.48840 0.40620 0.73423 -0.30500
O 	O 	0.30450 0.42020 0.78274 -0.31300
O 	O 	0.08960 0.39730 0.85199 -0.30000
O 	O 	0.19110 0.30230 0.89352 -0.33300
O 	O 	0.31910 0.49980 0.86683 -0.31000
O 	O 	0.42090 0.40370 0.90965 -0.29300
C 	C 	0.39210 0.53970 0.74823 0.22900
C 	C 	0.39570 0.44630 0.75601 0.22400
C 	C 	0.18860 0.37030 0.87594 0.25300
C 	C 	0.32150 0.43000 0.88491 0.21700
Yb	Yb	0.13979 0.01840 0.31407 1.56500
O 	O 	0.31080 0.08310 0.27173 -0.31600
O 	O 	0.47150 0.06670 0.21921 -0.31200
O 	O 	0.48840 0.90620 0.23423 -0.30500
O 	O 	0.30450 0.92020 0.28274 -0.31300
O 	O 	0.08960 0.89730 0.35199 -0.30000
O 	O 	0.19110 0.80230 0.39352 -0.33300
O 	O 	0.31910 0.99980 0.36683 -0.31000
O 	O 	0.42090 0.90370 0.40965 -0.29200
C 	C 	0.39210 0.03970 0.24823 0.22900
C 	C 	0.39570 0.94630 0.25601 0.22400
C 	C 	0.18860 0.87030 0.37594 0.25300
C 	C 	0.32150 0.93000 0.38491 0.21700
