data_crystal

_cell_length_a 7.81300
_cell_length_b 11.88000
_cell_length_c 12.99400
_cell_angle_alpha 93.09200
_cell_angle_beta  93.93800
_cell_angle_gamma 108.35900

_symmetry_space_group_name_	'P 1'
_symmetry_space_group_name_H-M	'P 1'

loop_
_symmetry_equiv_pos_as_xyz
  x,y,z

loop_
_atom_site_label
_atom_site_type_symbol
_atom_site_fract_x
_atom_site_fract_y
_atom_site_fract_z
_atom_site_charge
Nd	Nd	0.15004 0.77776 0.03190 2.21000
Nd	Nd	0.15651 0.78215 0.53207 2.24100
O 	O 	0.98470 0.72710 0.35780 -0.38800
O 	O 	0.98230 0.71880 0.18680 -0.40500
O 	O 	0.34120 0.82540 0.20360 -0.41300
O 	O 	0.34460 0.82160 0.37650 -0.41400
O 	O 	0.21170 0.68020 0.69060 -0.41200
O 	O 	0.19920 0.66970 0.86150 -0.35800
O 	O 	0.10850 0.87330 0.70090 -0.44100
O 	O 	0.08130 0.85850 0.86950 -0.45900
O 	O 	0.46880 0.84810 0.98970 -0.41600
O 	O 	0.70110 0.99940 0.94930 -0.42500
O 	O 	0.88480 0.85200 0.51690 -0.40100
O 	O 	0.77800 0.00280 0.49200 -0.45700
O 	O 	0.88820 0.60380 0.97750 -0.42700
O 	O 	0.79930 0.40870 0.93070 -0.41400
O 	O 	0.21270 0.59560 0.47780 -0.42100
O 	O 	0.10950 0.39740 0.46380 -0.40300
C 	C 	0.05980 0.74560 0.27620 0.25000
C 	C 	0.26850 0.80440 0.28620 0.27100
C 	C 	0.18180 0.71430 0.77830 0.25000
C 	C 	0.11840 0.82610 0.78410 0.29800
C 	C 	0.54770 0.95510 0.98270 0.27200
C 	C 	0.90260 0.95720 0.50250 0.28800
C 	C 	0.90900 0.50360 0.97360 0.28500
C 	C 	0.09390 0.49780 0.48320 0.28900
Nd	Nd	0.84996 0.22224 0.96810 2.21000
Nd	Nd	0.84349 0.21785 0.46793 2.24100
O 	O 	0.01530 0.27290 0.64220 -0.38800
O 	O 	0.01770 0.28120 0.81320 -0.40500
O 	O 	0.65880 0.17460 0.79640 -0.41300
O 	O 	0.65540 0.17840 0.62350 -0.41400
O 	O 	0.78830 0.31980 0.30940 -0.41200
O 	O 	0.80080 0.33030 0.13850 -0.35800
O 	O 	0.89150 0.12670 0.29910 -0.44100
O 	O 	0.91870 0.14150 0.13050 -0.45900
O 	O 	0.53120 0.15190 0.01030 -0.41600
O 	O 	0.29890 0.00060 0.05070 -0.42500
O 	O 	0.11520 0.14800 0.48310 -0.40100
O 	O 	0.22200 0.99720 0.50800 -0.45700
O 	O 	0.11180 0.39620 0.02250 -0.42700
O 	O 	0.20070 0.59130 0.06930 -0.41400
O 	O 	0.78730 0.40440 0.52220 -0.42100
O 	O 	0.89050 0.60260 0.53620 -0.40300
C 	C 	0.94020 0.25440 0.72380 0.25000
C 	C 	0.73150 0.19560 0.71380 0.27100
C 	C 	0.81820 0.28570 0.22170 0.25000
C 	C 	0.88160 0.17390 0.21590 0.29800
C 	C 	0.45230 0.04490 0.01730 0.27200
C 	C 	0.09740 0.04280 0.49750 0.28800
C 	C 	0.09100 0.49640 0.02640 0.28500
C 	C 	0.90610 0.50220 0.51680 0.28900
