data_crystal

_cell_length_a 11.66500
_cell_length_b 11.92400
_cell_length_c 13.22300
_cell_angle_alpha 104.58500
_cell_angle_beta  108.26800
_cell_angle_gamma 111.13200

_symmetry_space_group_name_	'P 1'
_symmetry_space_group_name_H-M	'P 1'

loop_
_symmetry_equiv_pos_as_xyz
  x,y,z

loop_
_atom_site_label
_atom_site_type_symbol
_atom_site_fract_x
_atom_site_fract_y
_atom_site_fract_z
_atom_site_charge
La	La	0.74998 0.08746 0.92504 1.69500
La	La	0.25888 0.59055 0.42086 1.71700
O 	O 	0.09430 0.50190 0.20040 -0.29800
O 	O 	0.91330 0.33690 0.03970 -0.28400
O 	O 	0.09000 0.33680 0.30650 -0.29700
O 	O 	0.89760 0.17460 0.14950 -0.29100
O 	O 	0.62230 0.30680 0.69620 -0.28000
O 	O 	0.64700 0.22050 0.82940 -0.28100
O 	O 	0.82540 0.16070 0.77460 -0.29300
O 	O 	0.78130 0.22500 0.62950 -0.29400
O 	O 	0.48680 0.94630 0.77640 -0.29600
O 	O 	0.32230 0.77490 0.60920 -0.30900
O 	O 	0.51880 0.76020 0.54990 -0.30100
O 	O 	0.67460 0.88840 0.73620 -0.29400
O 	O 	0.00380 0.13690 0.97220 -0.28600
O 	O 	0.17140 0.08520 0.03320 -0.27900
O 	O 	0.61130 0.15800 0.01990 -0.28500
O 	O 	0.40170 0.07970 0.01370 -0.27500
O 	O 	0.39700 0.47850 0.36050 -0.28700
O 	O 	0.59930 0.48030 0.42970 -0.27600
O 	O 	0.01870 0.55940 0.39600 -0.29700
O 	O 	0.84680 0.50660 0.44680 -0.26800
C 	C 	0.00110 0.38450 0.14280 0.23400
C 	C 	0.99500 0.29070 0.20430 0.23700
C 	C 	0.67060 0.24910 0.75060 0.23100
C 	C 	0.76710 0.20800 0.71480 0.24100
C 	C 	0.44550 0.85370 0.68130 0.23800
C 	C 	0.55620 0.83260 0.65370 0.22800
C 	C 	0.05090 0.06370 0.00120 0.24000
C 	C 	0.50270 0.06840 0.00930 0.23900
C 	C 	0.49910 0.48840 0.43980 0.23600
C 	C 	0.96200 0.51990 0.45600 0.23700
La	La	0.25002 0.91254 0.07496 1.69400
La	La	0.74112 0.40945 0.57914 1.71600
O 	O 	0.90570 0.49810 0.79960 -0.29900
O 	O 	0.08670 0.66310 0.96030 -0.28500
O 	O 	0.91000 0.66320 0.69350 -0.29700
O 	O 	0.10240 0.82540 0.85050 -0.29100
O 	O 	0.37770 0.69320 0.30380 -0.28000
O 	O 	0.35300 0.77950 0.17060 -0.28100
O 	O 	0.17460 0.83930 0.22540 -0.29300
O 	O 	0.21870 0.77500 0.37050 -0.29400
O 	O 	0.51320 0.05370 0.22360 -0.29600
O 	O 	0.67770 0.22510 0.39080 -0.30900
O 	O 	0.48120 0.23980 0.45010 -0.30100
O 	O 	0.32540 0.11160 0.26380 -0.29400
O 	O 	0.99620 0.86310 0.02780 -0.28600
O 	O 	0.82860 0.91480 0.96680 -0.27900
O 	O 	0.38870 0.84200 0.98010 -0.28500
O 	O 	0.59830 0.92030 0.98630 -0.27500
O 	O 	0.60300 0.52150 0.63950 -0.28700
O 	O 	0.40070 0.51970 0.57030 -0.27600
O 	O 	0.98130 0.44060 0.60400 -0.29700
O 	O 	0.15320 0.49340 0.55320 -0.26800
C 	C 	0.99890 0.61550 0.85720 0.23400
C 	C 	0.00500 0.70930 0.79570 0.23700
C 	C 	0.32940 0.75090 0.24940 0.23100
C 	C 	0.23290 0.79200 0.28520 0.24100
C 	C 	0.55450 0.14630 0.31870 0.23800
C 	C 	0.44380 0.16740 0.34630 0.22800
C 	C 	0.94910 0.93630 0.99880 0.24000
C 	C 	0.49730 0.93160 0.99070 0.23900
C 	C 	0.50090 0.51160 0.56020 0.23600
C 	C 	0.03800 0.48010 0.54400 0.23700
