data_crystal

_cell_length_a 11.02820
_cell_length_b 11.02820
_cell_length_c 18.97170
_cell_angle_alpha 90.00000
_cell_angle_beta  90.00000
_cell_angle_gamma 120.00000

_symmetry_space_group_name_	'P 1'
_symmetry_space_group_name_H-M	'P 1'

loop_
_symmetry_equiv_pos_as_xyz
  x,y,z

loop_
_atom_site_label
_atom_site_type_symbol
_atom_site_fract_x
_atom_site_fract_y
_atom_site_fract_z
_atom_site_charge
O 	O 	0.33000 0.90400 0.67200 -0.46500
O 	O 	0.52260 0.88950 0.67770 -0.52300
C 	C 	0.44440 0.91940 0.64160 0.40500
C 	C 	0.48410 0.98540 0.57280 -0.12900
C 	C 	0.60260 0.99940 0.53650 0.03100
C 	C 	0.37710 0.98640 0.53630 0.03500
O 	O 	0.09600 0.42600 0.67200 -0.46600
O 	O 	0.11050 0.63310 0.67770 -0.52400
C 	C 	0.08060 0.52500 0.64160 0.40500
C 	C 	0.01460 0.49870 0.57280 -0.12800
C 	C 	0.00060 0.60320 0.53650 0.03100
C 	C 	0.01360 0.39070 0.53630 0.03500
O 	O 	0.57400 0.67000 0.67200 -0.46600
O 	O 	0.36690 0.47740 0.67770 -0.52400
C 	C 	0.47500 0.55560 0.64160 0.40500
C 	C 	0.50130 0.51590 0.57280 -0.12800
C 	C 	0.39680 0.39740 0.53650 0.03100
C 	C 	0.60930 0.62290 0.53630 0.03500
O 	O 	0.33000 0.90400 0.82800 -0.46600
O 	O 	0.52260 0.88950 0.82230 -0.52400
C 	C 	0.44440 0.91940 0.85840 0.40500
C 	C 	0.48410 0.98540 0.92720 -0.12900
C 	C 	0.60260 0.99940 0.96350 0.03100
C 	C 	0.37710 0.98640 0.96370 0.03500
O 	O 	0.09600 0.42600 0.82800 -0.46600
O 	O 	0.11050 0.63310 0.82230 -0.52400
C 	C 	0.08060 0.52500 0.85840 0.40400
C 	C 	0.01460 0.49870 0.92720 -0.12800
C 	C 	0.00060 0.60320 0.96350 0.03100
C 	C 	0.01360 0.39070 0.96370 0.03500
O 	O 	0.57400 0.67000 0.82800 -0.46600
O 	O 	0.36690 0.47740 0.82230 -0.52400
C 	C 	0.47500 0.55560 0.85840 0.40500
C 	C 	0.50130 0.51590 0.92720 -0.12800
C 	C 	0.39680 0.39740 0.96350 0.03100
C 	C 	0.60930 0.62290 0.96370 0.03500
O 	O 	0.90400 0.33000 0.32800 -0.46600
O 	O 	0.88950 0.52260 0.32230 -0.52400
C 	C 	0.91940 0.44440 0.35840 0.40500
C 	C 	0.98540 0.48410 0.42720 -0.12900
C 	C 	0.99940 0.60260 0.46350 0.03100
C 	C 	0.98640 0.37710 0.46370 0.03500
O 	O 	0.42600 0.09600 0.32800 -0.46600
O 	O 	0.63310 0.11050 0.32230 -0.52400
C 	C 	0.52500 0.08060 0.35840 0.40500
C 	C 	0.49870 0.01460 0.42720 -0.12800
C 	C 	0.60320 0.00060 0.46350 0.03100
C 	C 	0.39070 0.01360 0.46370 0.03500
O 	O 	0.67000 0.57400 0.32800 -0.46600
O 	O 	0.47740 0.36690 0.32230 -0.52400
C 	C 	0.55560 0.47500 0.35840 0.40500
C 	C 	0.51590 0.50130 0.42720 -0.12800
C 	C 	0.39740 0.39680 0.46350 0.03100
C 	C 	0.62290 0.60930 0.46370 0.03500
O 	O 	0.90400 0.33000 0.17200 -0.46600
O 	O 	0.88950 0.52260 0.17770 -0.52400
C 	C 	0.91940 0.44440 0.14160 0.40500
C 	C 	0.98540 0.48410 0.07280 -0.12900
C 	C 	0.99940 0.60260 0.03650 0.03100
C 	C 	0.98640 0.37710 0.03630 0.03500
O 	O 	0.42600 0.09600 0.17200 -0.46600
O 	O 	0.63310 0.11050 0.17770 -0.52400
C 	C 	0.52500 0.08060 0.14160 0.40400
C 	C 	0.49870 0.01460 0.07280 -0.12800
C 	C 	0.60320 0.00060 0.03650 0.03100
C 	C 	0.39070 0.01360 0.03630 0.03500
O 	O 	0.67000 0.57400 0.17200 -0.46600
O 	O 	0.47740 0.36690 0.17770 -0.52400
C 	C 	0.55560 0.47500 0.14160 0.40500
C 	C 	0.51590 0.50130 0.07280 -0.12800
C 	C 	0.39740 0.39680 0.03650 0.03100
C 	C 	0.62290 0.60930 0.03630 0.03500
Cr	Cr	0.22360 0.76280 0.75000 1.54500
Cr	Cr	0.23720 0.46080 0.75000 1.54500
Cr	Cr	0.53920 0.77640 0.75000 1.54500
Cr	Cr	0.76280 0.22360 0.25000 1.54500
Cr	Cr	0.46080 0.23720 0.25000 1.54500
Cr	Cr	0.77640 0.53920 0.25000 1.54500
O 	O 	0.33333 0.66667 0.75000 -0.75100
O 	O 	0.66667 0.33333 0.25000 -0.75100
