data_crystal

_cell_length_a 11.77100
_cell_length_b 11.77100
_cell_length_c 11.77100
_cell_angle_alpha 90.00000
_cell_angle_beta  90.00000
_cell_angle_gamma 90.00000

_symmetry_space_group_name_	'P 1'
_symmetry_space_group_name_H-M	'P 1'

loop_
_symmetry_equiv_pos_as_xyz
  x,y,z

loop_
_atom_site_label
_atom_site_type_symbol
_atom_site_fract_x
_atom_site_fract_y
_atom_site_fract_z
_atom_site_charge
Cu	Cu	-0.00000 0.00000 -0.00000 3.11100
Cu	Cu	-0.00000 0.50000 0.50000 9.46200
Cu	Cu	0.50000 -0.00000 0.50000 9.46200
Cu	Cu	0.50000 0.50000 -0.00000 9.46200
Zn	Zn	0.25000 0.25000 0.25000 1.68600
Zn	Zn	0.75000 0.75000 0.25000 1.47500
Zn	Zn	0.75000 0.25000 0.75000 1.47500
Zn	Zn	0.25000 0.75000 0.75000 1.47500
C 	C 	0.09400 0.09400 0.09400 21.30900
N 	N 	0.15000 0.15000 0.15000 -6.19600
C 	C 	0.09400 0.59400 0.59400 22.14300
N 	N 	0.15000 0.65000 0.65000 -6.23400
C 	C 	0.59400 0.09400 0.59400 22.14400
N 	N 	0.65000 0.15000 0.65000 -6.23300
C 	C 	0.59400 0.59400 0.09400 22.14400
N 	N 	0.65000 0.65000 0.15000 -6.23300
C 	C 	0.90600 0.90600 0.09400 0.60000
N 	N 	0.85000 0.85000 0.15000 -0.34600
C 	C 	0.90600 0.40600 0.59400 11.19000
N 	N 	0.85000 0.35000 0.65000 -3.15200
C 	C 	0.40600 0.90600 0.59400 11.19000
N 	N 	0.35000 0.85000 0.65000 -3.15200
C 	C 	0.40600 0.40600 0.09400 22.22300
N 	N 	0.35000 0.35000 0.15000 -6.26600
C 	C 	0.90600 0.09400 0.90600 0.60000
N 	N 	0.85000 0.15000 0.85000 -0.34600
C 	C 	0.90600 0.59400 0.40600 11.19000
N 	N 	0.85000 0.65000 0.35000 -3.15200
C 	C 	0.40600 0.09400 0.40600 22.22300
N 	N 	0.35000 0.15000 0.35000 -6.26600
C 	C 	0.40600 0.59400 0.90600 11.19000
N 	N 	0.35000 0.65000 0.85000 -3.15200
C 	C 	0.09400 0.90600 0.90600 0.60000
N 	N 	0.15000 0.85000 0.85000 -0.34600
C 	C 	0.09400 0.40600 0.40600 22.22300
N 	N 	0.15000 0.35000 0.35000 -6.26600
C 	C 	0.59400 0.90600 0.40600 11.19000
N 	N 	0.65000 0.85000 0.35000 -3.15200
C 	C 	0.59400 0.40600 0.90600 11.19000
N 	N 	0.65000 0.35000 0.85000 -3.15200
C 	C 	0.92900 0.92900 0.04290 4.24900
C 	C 	0.92900 0.42900 0.54290 -2.00800
C 	C 	0.42900 0.92900 0.54290 -2.00800
C 	C 	0.42900 0.42900 0.04290 -4.30300
C 	C 	0.07100 0.07100 0.04290 -6.47800
C 	C 	0.07100 0.57100 0.54290 -7.69100
C 	C 	0.57100 0.07100 0.54290 -7.69100
C 	C 	0.57100 0.57100 0.04290 -4.34100
C 	C 	0.07100 0.92900 0.95710 -2.28800
C 	C 	0.07100 0.42900 0.45710 -7.79200
C 	C 	0.57100 0.92900 0.45710 -2.15400
C 	C 	0.57100 0.42900 0.95710 -5.51600
C 	C 	0.92900 0.07100 0.95710 -2.28800
C 	C 	0.92900 0.57100 0.45710 -2.15400
C 	C 	0.42900 0.07100 0.45710 -7.79200
C 	C 	0.42900 0.57100 0.95710 -5.51600
C 	C 	0.04290 0.92900 0.92900 4.24900
C 	C 	0.04290 0.42900 0.42900 -4.30300
C 	C 	0.54290 0.92900 0.42900 -2.00800
C 	C 	0.54290 0.42900 0.92900 -2.00800
C 	C 	0.04290 0.07100 0.07100 -6.47800
C 	C 	0.04290 0.57100 0.57100 -4.34100
C 	C 	0.54290 0.07100 0.57100 -7.69100
C 	C 	0.54290 0.57100 0.07100 -7.69100
C 	C 	0.95710 0.07100 0.92900 -2.28800
C 	C 	0.95710 0.57100 0.42900 -5.51600
C 	C 	0.45710 0.07100 0.42900 -7.79200
C 	C 	0.45710 0.57100 0.92900 -2.15400
C 	C 	0.95710 0.92900 0.07100 -2.28800
C 	C 	0.95710 0.42900 0.57100 -5.51600
C 	C 	0.45710 0.92900 0.57100 -2.15400
C 	C 	0.45710 0.42900 0.07100 -7.79200
C 	C 	0.92900 0.04290 0.92900 4.24900
C 	C 	0.92900 0.54290 0.42900 -2.00800
C 	C 	0.42900 0.04290 0.42900 -4.30300
C 	C 	0.42900 0.54290 0.92900 -2.00800
C 	C 	0.07100 0.04290 0.07100 -6.47800
C 	C 	0.07100 0.54290 0.57100 -7.69100
C 	C 	0.57100 0.04290 0.57100 -4.34100
C 	C 	0.57100 0.54290 0.07100 -7.69100
C 	C 	0.92900 0.95710 0.07100 -2.28800
C 	C 	0.92900 0.45710 0.57100 -2.15400
C 	C 	0.42900 0.95710 0.57100 -5.51600
C 	C 	0.42900 0.45710 0.07100 -7.79200
C 	C 	0.07100 0.95710 0.92900 -2.28800
C 	C 	0.07100 0.45710 0.42900 -7.79200
C 	C 	0.57100 0.95710 0.42900 -5.51600
C 	C 	0.57100 0.45710 0.92900 -2.15400
