data_crystal

_cell_length_a 16.27920
_cell_length_b 16.27920
_cell_length_c 16.27920
_cell_angle_alpha 90.00000
_cell_angle_beta  90.00000
_cell_angle_gamma 90.00000

_symmetry_space_group_name_	'P 1'
_symmetry_space_group_name_H-M	'P 1'

loop_
_symmetry_equiv_pos_as_xyz
  x,y,z

loop_
_atom_site_label
_atom_site_type_symbol
_atom_site_fract_x
_atom_site_fract_y
_atom_site_fract_z
_atom_site_charge
H 	H 	0.41940 0.24570 0.59280 -0.00300
H 	H 	0.08060 0.25430 0.59280 -0.01300
H 	H 	0.08060 0.24570 0.90720 -0.00800
H 	H 	0.41940 0.25430 0.90720 0.00800
H 	H 	0.59280 0.41940 0.24570 -0.00300
H 	H 	0.59280 0.08060 0.25430 -0.01300
H 	H 	0.90720 0.08060 0.24570 -0.00800
H 	H 	0.90720 0.41940 0.25430 0.00800
H 	H 	0.24570 0.59280 0.41940 -0.00300
H 	H 	0.25430 0.59280 0.08060 -0.01400
H 	H 	0.24570 0.90720 0.08060 -0.00900
H 	H 	0.25430 0.90720 0.41940 0.00700
H 	H 	0.74570 0.91940 0.40720 0.01800
H 	H 	0.75430 0.58060 0.40720 0.00400
H 	H 	0.74570 0.58060 0.09280 -0.00600
H 	H 	0.75430 0.91940 0.09280 0.01200
H 	H 	0.91940 0.09280 0.75430 0.01200
H 	H 	0.58060 0.09280 0.74570 -0.00600
H 	H 	0.58060 0.40720 0.75430 0.00400
H 	H 	0.91940 0.40720 0.74570 0.01800
H 	H 	0.09280 0.74570 0.58060 -0.00600
H 	H 	0.09280 0.75430 0.91940 0.01200
H 	H 	0.40720 0.74570 0.91940 0.01800
H 	H 	0.40720 0.75430 0.58060 0.00400
H 	H 	0.58060 0.75430 0.40720 0.00400
H 	H 	0.91940 0.74570 0.40720 0.01800
H 	H 	0.91940 0.75430 0.09280 0.01200
H 	H 	0.58060 0.74570 0.09280 -0.00600
H 	H 	0.40720 0.58060 0.75430 0.00400
H 	H 	0.40720 0.91940 0.74570 0.01800
H 	H 	0.09280 0.91940 0.75430 0.01200
H 	H 	0.09280 0.58060 0.74570 -0.00600
H 	H 	0.75430 0.40720 0.58060 0.00400
H 	H 	0.74570 0.40720 0.91940 0.01800
H 	H 	0.75430 0.09280 0.91940 0.01200
H 	H 	0.74570 0.09280 0.58060 -0.00600
H 	H 	0.25430 0.08060 0.59280 -0.01400
H 	H 	0.24570 0.41940 0.59280 -0.00400
H 	H 	0.25430 0.41940 0.90720 0.00700
H 	H 	0.24570 0.08060 0.90720 -0.00900
H 	H 	0.08060 0.90720 0.24570 -0.00900
H 	H 	0.41940 0.90720 0.25430 0.00700
H 	H 	0.41940 0.59280 0.24570 -0.00400
H 	H 	0.08060 0.59280 0.25430 -0.01400
H 	H 	0.90720 0.25430 0.41940 0.00700
H 	H 	0.90720 0.24570 0.08060 -0.00900
H 	H 	0.59280 0.25430 0.08060 -0.01400
H 	H 	0.59280 0.24570 0.41940 -0.00400
H 	H 	0.31116 0.31116 0.52856 0.07700
H 	H 	0.18884 0.18884 0.52856 0.07100
H 	H 	0.18884 0.31116 0.97144 0.08900
H 	H 	0.31116 0.18884 0.97144 0.08900
H 	H 	0.52856 0.31116 0.31116 0.07700
H 	H 	0.52856 0.18884 0.18884 0.07100
H 	H 	0.97144 0.18884 0.31116 0.08900
H 	H 	0.97144 0.31116 0.18884 0.08900
H 	H 	0.31116 0.52856 0.31116 0.07700
H 	H 	0.18884 0.52856 0.18884 0.07100
H 	H 	0.31116 0.97144 0.18884 0.08900
H 	H 	0.18884 0.97144 0.31116 0.08900
H 	H 	0.81116 0.81116 0.47144 0.09600
H 	H 	0.68884 0.68884 0.47144 0.09000
H 	H 	0.81116 0.68884 0.02856 0.07800
H 	H 	0.68884 0.81116 0.02856 0.07800
H 	H 	0.81116 0.02856 0.68884 0.07800
H 	H 	0.68884 0.02856 0.81116 0.07800
H 	H 	0.68884 0.47144 0.68884 0.09000
H 	H 	0.81116 0.47144 0.81116 0.09600
H 	H 	0.02856 0.81116 0.68884 0.07800
H 	H 	0.02856 0.68884 0.81116 0.07800
H 	H 	0.47144 0.81116 0.81116 0.09600
H 	H 	0.47144 0.68884 0.68884 0.09000
Pd	Pd	0.50000 0.25000 0.75000 0.79100
Pd	Pd	-0.00000 0.25000 0.75000 0.75400
Pd	Pd	0.75000 0.50000 0.25000 0.79100
Pd	Pd	0.75000 0.00000 0.25000 0.75400
Pd	Pd	0.25000 0.75000 0.50000 0.79100
Pd	Pd	0.25000 0.75000 -0.00000 0.75400
Pd	Pd	0.50000 0.75000 0.25000 0.79100
Pd	Pd	0.00000 0.75000 0.25000 0.75400
Pd	Pd	0.25000 0.50000 0.75000 0.79100
Pd	Pd	0.25000 0.00000 0.75000 0.75400
Pd	Pd	0.75000 0.25000 0.50000 0.79100
Pd	Pd	0.75000 0.25000 -0.00000 0.75400
C 	C 	0.39253 0.29033 0.61911 0.09300
C 	C 	0.10747 0.20967 0.61911 0.08400
C 	C 	0.10747 0.29033 0.88089 0.09200
C 	C 	0.39253 0.20967 0.88089 0.09400
C 	C 	0.61911 0.39253 0.29033 0.09300
C 	C 	0.61911 0.10747 0.20967 0.08400
C 	C 	0.88089 0.10747 0.29033 0.09200
C 	C 	0.88089 0.39253 0.20967 0.09400
C 	C 	0.29033 0.61911 0.39253 0.09300
C 	C 	0.20967 0.61911 0.10747 0.08400
C 	C 	0.29033 0.88089 0.10747 0.09200
C 	C 	0.20967 0.88089 0.39253 0.09400
C 	C 	0.79033 0.89253 0.38089 0.10100
C 	C 	0.70967 0.60747 0.38089 0.09300
C 	C 	0.79033 0.60747 0.11911 0.09200
C 	C 	0.70967 0.89253 0.11911 0.09400
C 	C 	0.89253 0.11911 0.70967 0.09400
C 	C 	0.60747 0.11911 0.79033 0.09200
C 	C 	0.60747 0.38089 0.70967 0.09300
C 	C 	0.89253 0.38089 0.79033 0.10100
C 	C 	0.11911 0.79033 0.60747 0.09200
C 	C 	0.11911 0.70967 0.89253 0.09400
C 	C 	0.38089 0.79033 0.89253 0.10100
C 	C 	0.38089 0.70967 0.60747 0.09300
C 	C 	0.60747 0.70967 0.38089 0.09300
C 	C 	0.89253 0.79033 0.38089 0.10100
C 	C 	0.89253 0.70967 0.11911 0.09400
C 	C 	0.60747 0.79033 0.11911 0.09200
C 	C 	0.38089 0.60747 0.70967 0.09300
C 	C 	0.38089 0.89253 0.79033 0.10100
C 	C 	0.11911 0.89253 0.70967 0.09400
C 	C 	0.11911 0.60747 0.79033 0.09200
C 	C 	0.70967 0.38089 0.60747 0.09300
C 	C 	0.79033 0.38089 0.89253 0.10100
C 	C 	0.70967 0.11911 0.89253 0.09400
C 	C 	0.79033 0.11911 0.60747 0.09200
C 	C 	0.20967 0.10747 0.61911 0.08400
C 	C 	0.29033 0.39253 0.61911 0.09300
C 	C 	0.20967 0.39253 0.88089 0.09400
C 	C 	0.29033 0.10747 0.88089 0.09200
C 	C 	0.10747 0.88089 0.29033 0.09200
C 	C 	0.39253 0.88089 0.20967 0.09400
C 	C 	0.39253 0.61911 0.29033 0.09300
C 	C 	0.10747 0.61911 0.20967 0.08400
C 	C 	0.88089 0.20967 0.39253 0.09400
C 	C 	0.88089 0.29033 0.10747 0.09200
C 	C 	0.61911 0.20967 0.10747 0.08400
C 	C 	0.61911 0.29033 0.39253 0.09300
C 	C 	0.37944 0.37944 0.73227 0.25500
C 	C 	0.32884 0.32884 0.58129 -0.15700
C 	C 	0.12056 0.12056 0.73227 0.24800
C 	C 	0.17116 0.17116 0.58129 -0.16300
C 	C 	0.12056 0.37944 0.76773 0.25500
C 	C 	0.17116 0.32884 0.91871 -0.15800
C 	C 	0.37944 0.12056 0.76773 0.25500
C 	C 	0.32884 0.17116 0.91871 -0.15800
C 	C 	0.73227 0.37944 0.37944 0.25500
C 	C 	0.58129 0.32884 0.32884 -0.15700
C 	C 	0.73227 0.12056 0.12056 0.24800
C 	C 	0.58129 0.17116 0.17116 -0.16300
C 	C 	0.76773 0.12056 0.37944 0.25500
C 	C 	0.91871 0.17116 0.32884 -0.15800
C 	C 	0.76773 0.37944 0.12056 0.25500
C 	C 	0.91871 0.32884 0.17116 -0.15800
C 	C 	0.37944 0.73227 0.37944 0.25500
C 	C 	0.32884 0.58129 0.32884 -0.15700
C 	C 	0.12056 0.73227 0.12056 0.24800
C 	C 	0.17116 0.58129 0.17116 -0.16300
C 	C 	0.37944 0.76773 0.12056 0.25500
C 	C 	0.32884 0.91871 0.17116 -0.15800
C 	C 	0.12056 0.76773 0.37944 0.25500
C 	C 	0.17116 0.91871 0.32884 -0.15800
C 	C 	0.87944 0.87944 0.26773 0.26400
C 	C 	0.82884 0.82884 0.41871 -0.15000
C 	C 	0.62056 0.62056 0.26773 0.25700
C 	C 	0.67116 0.67116 0.41871 -0.15700
C 	C 	0.87944 0.62056 0.23227 0.25800
C 	C 	0.82884 0.67116 0.08129 -0.15600
C 	C 	0.62056 0.87944 0.23227 0.25800
C 	C 	0.67116 0.82884 0.08129 -0.15600
C 	C 	0.87944 0.23227 0.62056 0.25800
C 	C 	0.82884 0.08129 0.67116 -0.15600
C 	C 	0.62056 0.23227 0.87944 0.25800
C 	C 	0.67116 0.08129 0.82884 -0.15600
C 	C 	0.62056 0.26773 0.62056 0.25700
C 	C 	0.67116 0.41871 0.67116 -0.15700
C 	C 	0.87944 0.26773 0.87944 0.26400
C 	C 	0.82884 0.41871 0.82884 -0.15000
C 	C 	0.23227 0.87944 0.62056 0.25800
C 	C 	0.08129 0.82884 0.67116 -0.15600
C 	C 	0.23227 0.62056 0.87944 0.25800
C 	C 	0.08129 0.67116 0.82884 -0.15600
C 	C 	0.26773 0.87944 0.87944 0.26400
C 	C 	0.41871 0.82884 0.82884 -0.15000
C 	C 	0.26773 0.62056 0.62056 0.25700
C 	C 	0.41871 0.67116 0.67116 -0.15700
N 	N 	0.41809 0.31561 0.69445 -0.24400
N 	N 	0.08191 0.18439 0.69445 -0.25300
N 	N 	0.08191 0.31561 0.80555 -0.25100
N 	N 	0.41809 0.18439 0.80555 -0.24500
N 	N 	0.69445 0.41809 0.31561 -0.24400
N 	N 	0.69445 0.08191 0.18439 -0.25300
N 	N 	0.80555 0.08191 0.31561 -0.25100
N 	N 	0.80555 0.41809 0.18439 -0.24500
N 	N 	0.31561 0.69445 0.41809 -0.24400
N 	N 	0.18439 0.69445 0.08191 -0.25300
N 	N 	0.31561 0.80555 0.08191 -0.25100
N 	N 	0.18439 0.80555 0.41809 -0.24500
N 	N 	0.81561 0.91809 0.30555 -0.22600
N 	N 	0.68439 0.58191 0.30555 -0.24500
N 	N 	0.81561 0.58191 0.19445 -0.24400
N 	N 	0.68439 0.91809 0.19445 -0.22700
N 	N 	0.91809 0.19445 0.68439 -0.22700
N 	N 	0.58191 0.19445 0.81561 -0.24400
N 	N 	0.58191 0.30555 0.68439 -0.24500
N 	N 	0.91809 0.30555 0.81561 -0.22600
N 	N 	0.19445 0.81561 0.58191 -0.24400
N 	N 	0.19445 0.68439 0.91809 -0.22700
N 	N 	0.30555 0.81561 0.91809 -0.22600
N 	N 	0.30555 0.68439 0.58191 -0.24500
N 	N 	0.58191 0.68439 0.30555 -0.24500
N 	N 	0.91809 0.81561 0.30555 -0.22600
N 	N 	0.91809 0.68439 0.19445 -0.22700
N 	N 	0.58191 0.81561 0.19445 -0.24400
N 	N 	0.30555 0.58191 0.68439 -0.24500
N 	N 	0.30555 0.91809 0.81561 -0.22600
N 	N 	0.19445 0.91809 0.68439 -0.22700
N 	N 	0.19445 0.58191 0.81561 -0.24400
N 	N 	0.68439 0.30555 0.58191 -0.24500
N 	N 	0.81561 0.30555 0.91809 -0.22600
N 	N 	0.68439 0.19445 0.91809 -0.22700
N 	N 	0.81561 0.19445 0.58191 -0.24400
N 	N 	0.18439 0.08191 0.69445 -0.25300
N 	N 	0.31561 0.41809 0.69445 -0.24400
N 	N 	0.18439 0.41809 0.80555 -0.24500
N 	N 	0.31561 0.08191 0.80555 -0.25100
N 	N 	0.08191 0.80555 0.31561 -0.25100
N 	N 	0.41809 0.80555 0.18439 -0.24500
N 	N 	0.41809 0.69445 0.31561 -0.24400
N 	N 	0.08191 0.69445 0.18439 -0.25300
N 	N 	0.80555 0.18439 0.41809 -0.24500
N 	N 	0.80555 0.31561 0.08191 -0.25100
N 	N 	0.69445 0.18439 0.08191 -0.25300
N 	N 	0.69445 0.31561 0.41809 -0.24400
O 	O 	0.40270 0.40270 0.80165 -0.26900
O 	O 	0.09730 0.09730 0.80165 -0.29900
O 	O 	0.09730 0.40270 0.69835 -0.29000
O 	O 	0.40270 0.09730 0.69835 -0.29000
O 	O 	0.80165 0.40270 0.40270 -0.26900
O 	O 	0.80165 0.09730 0.09730 -0.29900
O 	O 	0.69835 0.09730 0.40270 -0.29000
O 	O 	0.69835 0.40270 0.09730 -0.29000
O 	O 	0.40270 0.80165 0.40270 -0.26900
O 	O 	0.09730 0.80165 0.09730 -0.29900
O 	O 	0.40270 0.69835 0.09730 -0.29000
O 	O 	0.09730 0.69835 0.40270 -0.29000
O 	O 	0.90270 0.90270 0.19835 -0.24500
O 	O 	0.59730 0.59730 0.19835 -0.28100
O 	O 	0.90270 0.59730 0.30165 -0.25700
O 	O 	0.59730 0.90270 0.30165 -0.25700
O 	O 	0.90270 0.30165 0.59730 -0.25700
O 	O 	0.59730 0.30165 0.90270 -0.25700
O 	O 	0.59730 0.19835 0.59730 -0.28100
O 	O 	0.90270 0.19835 0.90270 -0.24500
O 	O 	0.30165 0.90270 0.59730 -0.25700
O 	O 	0.30165 0.59730 0.90270 -0.25700
O 	O 	0.19835 0.90270 0.90270 -0.24500
O 	O 	0.19835 0.59730 0.59730 -0.28100
