data_crystal

_cell_length_a 20.88300
_cell_length_b 20.88300
_cell_length_c 32.65800
_cell_angle_alpha 90.00000
_cell_angle_beta  90.00000
_cell_angle_gamma 120.00000

_symmetry_space_group_name_	'P 1'
_symmetry_space_group_name_H-M	'P 1'

loop_
_symmetry_equiv_pos_as_xyz
  x,y,z

loop_
_atom_site_label
_atom_site_type_symbol
_atom_site_fract_x
_atom_site_fract_y
_atom_site_fract_z
_atom_site_charge
C 	C 	0.01580 0.30630 0.81246 -0.15800
C 	C 	0.92710 0.31160 0.75931 -0.11700
C 	C 	0.98420 0.17880 0.78844 -0.11000
C 	C 	0.11170 0.28950 0.75779 -0.13500
N 	N 	0.02360 0.32810 0.84550 -0.21700
N 	N 	0.88720 0.33260 0.76546 -0.09200
N 	N 	0.96860 0.12810 0.80834 -0.09700
N 	N 	0.17000 0.29750 0.76018 -0.21400
C 	C 	0.68247 0.63963 0.14579 -0.12100
C 	C 	0.59377 0.64493 0.09264 -0.15000
C 	C 	0.65087 0.51213 0.12177 -0.15800
C 	C 	0.77837 0.62283 0.09112 -0.11700
N 	N 	0.69027 0.66143 0.17883 -0.21700
N 	N 	0.55387 0.66593 0.09879 -0.09100
N 	N 	0.63527 0.46143 0.14167 -0.09400
N 	N 	0.83667 0.63083 0.09351 -0.21500
C 	C 	0.34913 0.97297 0.47913 -0.10700
C 	C 	0.26043 0.97827 0.42598 -0.13300
C 	C 	0.31753 0.84547 0.45511 -0.15600
C 	C 	0.44503 0.95617 0.42446 -0.10000
N 	N 	0.35693 0.99477 0.51217 -0.19300
N 	N 	0.22053 0.99927 0.43213 -0.08600
N 	N 	0.30193 0.79477 0.47501 -0.09300
N 	N 	0.50333 0.96417 0.42685 -0.21100
C 	C 	0.69370 0.70950 0.81246 -0.11900
C 	C 	0.68840 0.61550 0.75931 -0.14900
C 	C 	0.82120 0.80540 0.78844 -0.14500
C 	C 	0.71050 0.82220 0.75779 -0.11600
N 	N 	0.67190 0.69550 0.84550 -0.21500
N 	N 	0.66740 0.55460 0.76546 -0.09200
N 	N 	0.87190 0.84050 0.80834 -0.07300
N 	N 	0.70250 0.87250 0.76018 -0.19200
C 	C 	0.36037 0.04283 0.14579 -0.14300
C 	C 	0.35507 0.94883 0.09264 -0.09500
C 	C 	0.48787 0.13873 0.12177 -0.15800
C 	C 	0.37717 0.15553 0.09112 -0.12500
N 	N 	0.33857 0.02883 0.17883 -0.21500
N 	N 	0.33407 0.88793 0.09879 -0.09600
N 	N 	0.53857 0.17383 0.14167 -0.09400
N 	N 	0.36917 0.20583 0.09351 -0.21500
C 	C 	0.02703 0.37617 0.47913 -0.14300
C 	C 	0.02173 0.28217 0.42598 -0.17200
C 	C 	0.15453 0.47207 0.45511 -0.16000
C 	C 	0.04383 0.48887 0.42446 -0.14400
N 	N 	0.00523 0.36217 0.51217 -0.24200
N 	N 	0.00073 0.22127 0.43213 -0.11200
N 	N 	0.20523 0.50717 0.47501 -0.09600
N 	N 	0.03583 0.53917 0.42685 -0.21700
C 	C 	0.29050 0.98420 0.81246 -0.08100
C 	C 	0.38450 0.07290 0.75931 -0.17500
C 	C 	0.19460 0.01580 0.78844 -0.20000
C 	C 	0.17780 0.88830 0.75779 -0.10700
N 	N 	0.30450 0.97640 0.84550 -0.22000
N 	N 	0.44540 0.11280 0.76546 -0.09700
N 	N 	0.15950 0.03140 0.80834 -0.10800
N 	N 	0.12750 0.83000 0.76018 -0.21200
C 	C 	0.95717 0.31753 0.14579 -0.10500
C 	C 	0.05117 0.40623 0.09264 -0.20500
C 	C 	0.86127 0.34913 0.12177 -0.15300
C 	C 	0.84447 0.22163 0.09112 -0.12400
N 	N 	0.97117 0.30973 0.17883 -0.19300
N 	N 	0.11207 0.44613 0.09879 -0.09200
N 	N 	0.82617 0.36473 0.14167 -0.09200
N 	N 	0.79417 0.16333 0.09351 -0.21100
C 	C 	0.62383 0.65087 0.47913 -0.12000
C 	C 	0.71783 0.73957 0.42598 -0.14600
C 	C 	0.52793 0.68247 0.45511 -0.15600
C 	C 	0.51113 0.55497 0.42446 -0.12300
N 	N 	0.63783 0.64307 0.51217 -0.21600
N 	N 	0.77873 0.77947 0.43213 -0.08100
N 	N 	0.49283 0.69807 0.47501 -0.09300
N 	N 	0.46083 0.49667 0.42685 -0.21300
C 	C 	0.30630 0.01580 0.68754 -0.15700
C 	C 	0.31160 0.92710 0.74069 -0.11700
C 	C 	0.17880 0.98420 0.71156 -0.11000
C 	C 	0.28950 0.11170 0.74221 -0.13500
N 	N 	0.32810 0.02360 0.65450 -0.21700
N 	N 	0.33260 0.88720 0.73454 -0.09200
N 	N 	0.12810 0.96860 0.69166 -0.09700
N 	N 	0.29750 0.17000 0.73982 -0.21400
C 	C 	0.97297 0.34913 0.02087 -0.10800
C 	C 	0.97827 0.26043 0.07402 -0.13400
C 	C 	0.84547 0.31753 0.04489 -0.15600
C 	C 	0.95617 0.44503 0.07554 -0.10000
N 	N 	0.99477 0.35693 0.98783 -0.19300
N 	N 	0.99927 0.22053 0.06787 -0.08600
N 	N 	0.79477 0.30193 0.02499 -0.09300
N 	N 	0.96417 0.50333 0.07315 -0.21100
C 	C 	0.63963 0.68247 0.35421 -0.12100
C 	C 	0.64493 0.59377 0.40736 -0.15000
C 	C 	0.51213 0.65087 0.37823 -0.15800
C 	C 	0.62283 0.77837 0.40888 -0.11700
N 	N 	0.66143 0.69027 0.32117 -0.21700
N 	N 	0.66593 0.55387 0.40121 -0.09100
N 	N 	0.46143 0.63527 0.35833 -0.09400
N 	N 	0.63083 0.83667 0.40649 -0.21500
C 	C 	0.70950 0.69370 0.68754 -0.11900
C 	C 	0.61550 0.68840 0.74069 -0.14900
C 	C 	0.80540 0.82120 0.71156 -0.14500
C 	C 	0.82220 0.71050 0.74221 -0.11600
N 	N 	0.69550 0.67190 0.65450 -0.21500
N 	N 	0.55460 0.66740 0.73454 -0.09200
N 	N 	0.84050 0.87190 0.69166 -0.07300
N 	N 	0.87250 0.70250 0.73982 -0.19200
C 	C 	0.37617 0.02703 0.02087 -0.14300
C 	C 	0.28217 0.02173 0.07402 -0.17200
C 	C 	0.47207 0.15453 0.04489 -0.16000
C 	C 	0.48887 0.04383 0.07554 -0.14400
N 	N 	0.36217 0.00523 0.98783 -0.24100
N 	N 	0.22127 0.00073 0.06787 -0.11200
N 	N 	0.50717 0.20523 0.02499 -0.09600
N 	N 	0.53917 0.03583 0.07315 -0.21700
C 	C 	0.04283 0.36037 0.35421 -0.14300
C 	C 	0.94883 0.35507 0.40736 -0.09600
C 	C 	0.13873 0.48787 0.37823 -0.15800
C 	C 	0.15553 0.37717 0.40888 -0.12500
N 	N 	0.02883 0.33857 0.32117 -0.21500
N 	N 	0.88793 0.33407 0.40121 -0.09600
N 	N 	0.17383 0.53857 0.35833 -0.09400
N 	N 	0.20583 0.36917 0.40649 -0.21500
C 	C 	0.98420 0.29050 0.68754 -0.08100
C 	C 	0.07290 0.38450 0.74069 -0.17600
C 	C 	0.01580 0.19460 0.71156 -0.20000
C 	C 	0.88830 0.17780 0.74221 -0.10600
N 	N 	0.97640 0.30450 0.65450 -0.22000
N 	N 	0.11280 0.44540 0.73454 -0.09700
N 	N 	0.03140 0.15950 0.69166 -0.10800
N 	N 	0.83000 0.12750 0.73982 -0.21200
C 	C 	0.65087 0.62383 0.02087 -0.12000
C 	C 	0.73957 0.71783 0.07402 -0.14600
C 	C 	0.68247 0.52793 0.04489 -0.15600
C 	C 	0.55497 0.51113 0.07554 -0.12300
N 	N 	0.64307 0.63783 0.98783 -0.21600
N 	N 	0.77947 0.77873 0.06787 -0.08100
N 	N 	0.69807 0.49283 0.02499 -0.09300
N 	N 	0.49667 0.46083 0.07315 -0.21300
C 	C 	0.31753 0.95717 0.35421 -0.10500
C 	C 	0.40623 0.05117 0.40736 -0.20600
C 	C 	0.34913 0.86127 0.37823 -0.15300
C 	C 	0.22163 0.84447 0.40888 -0.12400
N 	N 	0.30973 0.97117 0.32117 -0.19200
N 	N 	0.44613 0.11207 0.40121 -0.09200
N 	N 	0.36473 0.82617 0.35833 -0.09200
N 	N 	0.16333 0.79417 0.40649 -0.21100
C 	C 	0.98420 0.69370 0.18754 -0.07900
C 	C 	0.07290 0.68840 0.24069 -0.17300
C 	C 	0.01580 0.82120 0.21156 -0.19000
C 	C 	0.88830 0.71050 0.24221 -0.10100
N 	N 	0.97640 0.67190 0.15450 -0.21900
N 	N 	0.11280 0.66740 0.23454 -0.09500
N 	N 	0.03140 0.87190 0.19166 -0.08900
N 	N 	0.83000 0.70250 0.23982 -0.21600
C 	C 	0.65087 0.02703 0.52087 -0.14000
C 	C 	0.73957 0.02173 0.57402 -0.16700
C 	C 	0.68247 0.15453 0.54489 -0.15900
C 	C 	0.55497 0.04383 0.57554 -0.14400
N 	N 	0.64307 0.00523 0.48783 -0.24000
N 	N 	0.77947 0.00073 0.56787 -0.10000
N 	N 	0.69807 0.20523 0.52499 -0.09500
N 	N 	0.49667 0.03583 0.57315 -0.21600
C 	C 	0.31753 0.36037 0.85421 -0.12600
C 	C 	0.40623 0.35507 0.90736 -0.15300
C 	C 	0.34913 0.48787 0.87823 -0.15700
C 	C 	0.22163 0.37717 0.90888 -0.12800
N 	N 	0.30973 0.33857 0.82117 -0.21700
N 	N 	0.44613 0.33407 0.90121 -0.09600
N 	N 	0.36473 0.53857 0.85833 -0.09400
N 	N 	0.16333 0.36917 0.90649 -0.21300
C 	C 	0.30630 0.29050 0.18754 -0.12600
C 	C 	0.31160 0.38450 0.24069 -0.15200
C 	C 	0.17880 0.19460 0.21156 -0.16300
C 	C 	0.28950 0.17780 0.24221 -0.12900
N 	N 	0.32810 0.30450 0.15450 -0.21800
N 	N 	0.33260 0.44540 0.23454 -0.09400
N 	N 	0.12810 0.15950 0.19166 -0.11000
N 	N 	0.29750 0.12750 0.23982 -0.21000
C 	C 	0.97297 0.62383 0.52087 -0.10400
C 	C 	0.97827 0.71783 0.57402 -0.12800
C 	C 	0.84547 0.52793 0.54489 -0.15500
C 	C 	0.95617 0.51113 0.57554 -0.10000
N 	N 	0.99477 0.63783 0.48783 -0.19200
N 	N 	0.99927 0.77873 0.56787 -0.07400
N 	N 	0.79477 0.49283 0.52499 -0.09200
N 	N 	0.96417 0.46083 0.57315 -0.21100
C 	C 	0.63963 0.95717 0.85421 -0.10300
C 	C 	0.64493 0.05117 0.90736 -0.20400
C 	C 	0.51213 0.86127 0.87823 -0.15400
C 	C 	0.62283 0.84447 0.90888 -0.11900
N 	N 	0.66143 0.97117 0.82117 -0.19200
N 	N 	0.66593 0.11207 0.90121 -0.09000
N 	N 	0.46143 0.82617 0.85833 -0.09200
N 	N 	0.63083 0.79417 0.90649 -0.21200
C 	C 	0.70950 0.01580 0.18754 -0.15400
C 	C 	0.61550 0.92710 0.24069 -0.11700
C 	C 	0.80540 0.98420 0.21156 -0.10200
C 	C 	0.82220 0.11170 0.24221 -0.12800
N 	N 	0.69550 0.02360 0.15450 -0.21600
N 	N 	0.55460 0.88720 0.23454 -0.09100
N 	N 	0.84050 0.96860 0.19166 -0.08000
N 	N 	0.87250 0.17000 0.23982 -0.19200
C 	C 	0.37617 0.34913 0.52087 -0.12700
C 	C 	0.28217 0.26043 0.57402 -0.15700
C 	C 	0.47207 0.31753 0.54489 -0.15800
C 	C 	0.48887 0.44503 0.57554 -0.12200
N 	N 	0.36217 0.35693 0.48783 -0.21800
N 	N 	0.22127 0.22053 0.56787 -0.10600
N 	N 	0.50717 0.30193 0.52499 -0.09500
N 	N 	0.53917 0.50333 0.57315 -0.21500
C 	C 	0.04283 0.68247 0.85421 -0.14100
C 	C 	0.94883 0.59377 0.90736 -0.09400
C 	C 	0.13873 0.65087 0.87823 -0.15900
C 	C 	0.15553 0.77837 0.90888 -0.12000
N 	N 	0.02883 0.69027 0.82117 -0.21500
N 	N 	0.88793 0.55387 0.90121 -0.09300
N 	N 	0.17383 0.63527 0.85833 -0.09400
N 	N 	0.20583 0.83667 0.90649 -0.21600
C 	C 	0.69370 0.98420 0.31246 -0.07800
C 	C 	0.68840 0.07290 0.25931 -0.17300
C 	C 	0.82120 0.01580 0.28844 -0.19100
C 	C 	0.71050 0.88830 0.25779 -0.10000
N 	N 	0.67190 0.97640 0.34550 -0.21900
N 	N 	0.66740 0.11280 0.26546 -0.09500
N 	N 	0.87190 0.03140 0.30834 -0.08900
N 	N 	0.70250 0.83000 0.26018 -0.21600
C 	C 	0.36037 0.31753 0.64579 -0.12600
C 	C 	0.35507 0.40623 0.59264 -0.15300
C 	C 	0.48787 0.34913 0.62177 -0.15700
C 	C 	0.37717 0.22163 0.59112 -0.12800
N 	N 	0.33857 0.30973 0.67883 -0.21700
N 	N 	0.33407 0.44613 0.59879 -0.09600
N 	N 	0.53857 0.36473 0.64167 -0.09400
N 	N 	0.36917 0.16333 0.59351 -0.21300
C 	C 	0.02703 0.65087 0.97913 -0.14100
C 	C 	0.02173 0.73957 0.92598 -0.16700
C 	C 	0.15453 0.68247 0.95511 -0.15900
C 	C 	0.04383 0.55497 0.92446 -0.14400
N 	N 	0.00523 0.64307 0.01217 -0.24000
N 	N 	0.00073 0.77947 0.93213 -0.10000
N 	N 	0.20523 0.69807 0.97501 -0.09500
N 	N 	0.03583 0.49667 0.92685 -0.21600
C 	C 	0.29050 0.30630 0.31246 -0.12600
C 	C 	0.38450 0.31160 0.25931 -0.15200
C 	C 	0.19460 0.17880 0.28844 -0.16300
C 	C 	0.17780 0.28950 0.25779 -0.12900
N 	N 	0.30450 0.32810 0.34550 -0.21800
N 	N 	0.44540 0.33260 0.26546 -0.09400
N 	N 	0.15950 0.12810 0.30834 -0.11000
N 	N 	0.12750 0.29750 0.26018 -0.21000
C 	C 	0.95717 0.63963 0.64579 -0.10300
C 	C 	0.05117 0.64493 0.59264 -0.20400
C 	C 	0.86127 0.51213 0.62177 -0.15400
C 	C 	0.84447 0.62283 0.59112 -0.11900
N 	N 	0.97117 0.66143 0.67883 -0.19200
N 	N 	0.11207 0.66593 0.59879 -0.09000
N 	N 	0.82617 0.46143 0.64167 -0.09200
N 	N 	0.79417 0.63083 0.59351 -0.21200
C 	C 	0.62383 0.97297 0.97913 -0.10500
C 	C 	0.71783 0.97827 0.92598 -0.12900
C 	C 	0.52793 0.84547 0.95511 -0.15500
C 	C 	0.51113 0.95617 0.92446 -0.10100
N 	N 	0.63783 0.99477 0.01217 -0.19200
N 	N 	0.77873 0.99927 0.93213 -0.07400
N 	N 	0.49283 0.79477 0.97501 -0.09200
N 	N 	0.46083 0.96417 0.92685 -0.21100
C 	C 	0.01580 0.70950 0.31246 -0.15400
C 	C 	0.92710 0.61550 0.25931 -0.11700
C 	C 	0.98420 0.80540 0.28844 -0.10200
C 	C 	0.11170 0.82220 0.25779 -0.12800
N 	N 	0.02360 0.69550 0.34550 -0.21600
N 	N 	0.88720 0.55460 0.26546 -0.09100
N 	N 	0.96860 0.84050 0.30834 -0.08000
N 	N 	0.17000 0.87250 0.26018 -0.19200
C 	C 	0.68247 0.04283 0.64579 -0.14100
C 	C 	0.59377 0.94883 0.59264 -0.09400
C 	C 	0.65087 0.13873 0.62177 -0.15900
C 	C 	0.77837 0.15553 0.59112 -0.12000
N 	N 	0.69027 0.02883 0.67883 -0.21500
N 	N 	0.55387 0.88793 0.59879 -0.09300
N 	N 	0.63527 0.17383 0.64167 -0.09400
N 	N 	0.83667 0.20583 0.59351 -0.21600
C 	C 	0.34913 0.37617 0.97913 -0.12700
C 	C 	0.26043 0.28217 0.92598 -0.15700
C 	C 	0.31753 0.47207 0.95511 -0.15800
C 	C 	0.44503 0.48887 0.92446 -0.12200
N 	N 	0.35693 0.36217 0.01217 -0.21800
N 	N 	0.22053 0.22127 0.93213 -0.10600
N 	N 	0.30193 0.50717 0.97501 -0.09500
N 	N 	0.50333 0.53917 0.92685 -0.21500
Mo	Mo	0.00000 0.26742 0.75000 1.04200
Mo	Mo	0.66667 0.60075 0.08333 1.07100
Mo	Mo	0.33333 0.93409 0.41667 1.07900
Mo	Mo	0.73258 0.73258 0.75000 1.07100
Mo	Mo	0.39925 0.06591 0.08333 1.06300
Mo	Mo	0.06591 0.39925 0.41667 1.06400
Mo	Mo	0.26742 0.00000 0.75000 1.04200
Mo	Mo	0.93409 0.33333 0.08333 1.07900
Mo	Mo	0.60075 0.66667 0.41667 1.07100
Mo	Mo	0.00000 0.73258 0.25000 1.04200
Mo	Mo	0.66667 0.06591 0.58333 1.06300
Mo	Mo	0.33333 0.39925 0.91667 1.07100
Mo	Mo	0.26742 0.26742 0.25000 1.07100
Mo	Mo	0.93409 0.60075 0.58333 1.07900
Mo	Mo	0.60075 0.93409 0.91667 1.07900
Mo	Mo	0.73258 0.00000 0.25000 1.04200
Mo	Mo	0.39925 0.33333 0.58333 1.07100
Mo	Mo	0.06591 0.66667 0.91667 1.06300
Nd	Nd	0.05181 0.38514 0.91667 1.19700
Nd	Nd	0.71847 0.71847 0.25000 1.30000
Nd	Nd	0.61486 0.66667 0.91667 1.29200
Nd	Nd	0.28153 0.00000 0.25000 1.16200
Nd	Nd	0.33333 0.94819 0.91667 1.34600
Nd	Nd	0.00000 0.28153 0.25000 1.16300
Nd	Nd	0.38514 0.05181 0.58333 1.19700
Nd	Nd	0.66667 0.61486 0.58333 1.29200
Nd	Nd	0.94819 0.33333 0.58333 1.34700
Nd	Nd	0.94819 0.61486 0.08333 1.35900
Nd	Nd	0.38514 0.33333 0.08333 1.26500
Nd	Nd	0.66667 0.05181 0.08333 1.21000
Nd	Nd	0.61486 0.94819 0.41667 1.36000
Nd	Nd	0.28153 0.28153 0.75000 1.25600
Nd	Nd	0.33333 0.38514 0.41667 1.26500
Nd	Nd	0.00000 0.71847 0.75000 1.18300
Nd	Nd	0.05181 0.66667 0.41667 1.21100
Nd	Nd	0.71847 0.00000 0.75000 1.18400
