data_crystal

_cell_length_a 14.23430
_cell_length_b 17.25260
_cell_length_c 7.29080
_cell_angle_alpha 90.00000
_cell_angle_beta  90.00000
_cell_angle_gamma 90.00000

_symmetry_space_group_name_	'P 1'
_symmetry_space_group_name_H-M	'P 1'

loop_
_symmetry_equiv_pos_as_xyz
  x,y,z

loop_
_atom_site_label
_atom_site_type_symbol
_atom_site_fract_x
_atom_site_fract_y
_atom_site_fract_z
_atom_site_charge
N 	N 	0.14850 0.23050 0.29170 -0.24900
C 	C 	0.09980 0.22170 0.16900 0.12000
N 	N 	0.64850 0.73050 0.29170 -0.25000
C 	C 	0.59980 0.72170 0.16900 0.11900
N 	N 	0.85150 0.76950 0.29170 -0.25100
C 	C 	0.90020 0.77830 0.16900 0.11900
N 	N 	0.35150 0.26950 0.29170 -0.25000
C 	C 	0.40020 0.27830 0.16900 0.12000
N 	N 	0.85150 0.23050 0.70830 -0.24900
C 	C 	0.90020 0.22170 0.83100 0.09900
N 	N 	0.35150 0.73050 0.70830 -0.24800
C 	C 	0.40020 0.72170 0.83100 0.09700
N 	N 	0.14850 0.76950 0.70830 -0.24800
C 	C 	0.09980 0.77830 0.83100 0.09600
N 	N 	0.64850 0.26950 0.70830 -0.24800
C 	C 	0.59980 0.27830 0.83100 0.09800
N 	N 	0.85150 0.76950 0.70830 -0.25000
C 	C 	0.90020 0.77830 0.83100 0.09700
N 	N 	0.35150 0.26950 0.70830 -0.24800
C 	C 	0.40020 0.27830 0.83100 0.09800
N 	N 	0.14850 0.23050 0.70830 -0.24700
C 	C 	0.09980 0.22170 0.83100 0.09800
N 	N 	0.64850 0.73050 0.70830 -0.24900
C 	C 	0.59980 0.72170 0.83100 0.09700
N 	N 	0.14850 0.76950 0.29170 -0.25000
C 	C 	0.09980 0.77830 0.16900 0.11800
N 	N 	0.64850 0.26950 0.29170 -0.25000
C 	C 	0.59980 0.27830 0.16900 0.12000
N 	N 	0.85150 0.23050 0.29170 -0.25100
C 	C 	0.90020 0.22170 0.16900 0.12100
N 	N 	0.35150 0.73050 0.29170 -0.25000
C 	C 	0.40020 0.72170 0.16900 0.11900
Co	Co	0.25000 0.25000 0.50000 1.13800
Co	Co	0.75000 0.75000 0.50000 1.13700
Co	Co	0.75000 0.25000 0.50000 1.13800
Co	Co	0.25000 0.75000 0.50000 1.13700
N 	N 	0.28520 0.13340 0.50000 -0.24500
C 	C 	0.31550 0.06620 0.50000 0.10000
N 	N 	0.78520 0.63340 0.50000 -0.24600
C 	C 	0.81550 0.56620 0.50000 0.09500
N 	N 	0.71480 0.86660 0.50000 -0.24500
C 	C 	0.68450 0.93380 0.50000 0.08600
N 	N 	0.21480 0.36660 0.50000 -0.24700
C 	C 	0.18450 0.43380 0.50000 0.10200
N 	N 	0.71480 0.13340 0.50000 -0.24600
C 	C 	0.68450 0.06620 0.50000 0.09900
N 	N 	0.21480 0.63340 0.50000 -0.24700
C 	C 	0.18450 0.56620 0.50000 0.10200
N 	N 	0.28520 0.86660 0.50000 -0.24500
C 	C 	0.31550 0.93380 0.50000 0.08700
N 	N 	0.78520 0.36660 0.50000 -0.24600
C 	C 	0.81550 0.43380 0.50000 0.09500
C 	C 	0.04580 0.22050 -0.00000 -0.04100
C 	C 	0.54580 0.72050 -0.00000 -0.04900
C 	C 	0.95420 0.77950 -0.00000 -0.05700
C 	C 	0.45420 0.27950 -0.00000 -0.04900
C 	C 	0.95420 0.22050 -0.00000 -0.05700
C 	C 	0.45420 0.72050 -0.00000 -0.04900
C 	C 	0.04580 0.77950 -0.00000 -0.04200
C 	C 	0.54580 0.27950 -0.00000 -0.04900
C 	C 	0.37080 -0.00000 0.50000 -0.06800
C 	C 	0.87080 0.50000 0.50000 -0.06900
C 	C 	0.62920 -0.00000 0.50000 -0.06700
C 	C 	0.12920 0.50000 0.50000 -0.08800
C 	C 	0.46430 0.00000 0.41100 -0.01000
C 	C 	0.96430 0.50000 0.41100 -0.02900
C 	C 	0.53570 0.00000 0.41100 -0.01100
C 	C 	0.03570 0.50000 0.41100 -0.00300
C 	C 	0.53570 0.00000 0.58900 -0.01100
C 	C 	0.03570 0.50000 0.58900 -0.00300
C 	C 	0.46430 0.00000 0.58900 -0.01100
C 	C 	0.96430 0.50000 0.58900 -0.03000
N 	N 	0.50000 0.87470 0.22020 -0.11800
C 	C 	0.50000 0.93210 0.29600 0.07700
N 	N 	0.00000 0.37470 0.22020 -0.11900
C 	C 	0.00000 0.43210 0.29600 0.09100
N 	N 	0.50000 0.12530 0.22020 -0.11900
C 	C 	0.50000 0.06790 0.29600 0.08900
N 	N 	-0.00000 0.62530 0.22020 -0.11900
C 	C 	-0.00000 0.56790 0.29600 0.09100
N 	N 	0.50000 0.87470 0.77980 -0.12400
C 	C 	0.50000 0.93210 0.70400 0.07000
N 	N 	0.00000 0.37470 0.77980 -0.12500
C 	C 	0.00000 0.43210 0.70400 0.08500
N 	N 	0.50000 0.12530 0.77980 -0.12500
C 	C 	0.50000 0.06790 0.70400 0.08200
N 	N 	-0.00000 0.62530 0.77980 -0.12500
C 	C 	-0.00000 0.56790 0.70400 0.08500
