data_crystal

_cell_length_a 14.00100
_cell_length_b 19.98460
_cell_length_c 19.98460
_cell_angle_alpha 81.12090
_cell_angle_beta  69.49470
_cell_angle_gamma 69.49470

_symmetry_space_group_name_	'P 1'
_symmetry_space_group_name_H-M	'P 1'

loop_
_symmetry_equiv_pos_as_xyz
  x,y,z

loop_
_atom_site_label
_atom_site_type_symbol
_atom_site_fract_x
_atom_site_fract_y
_atom_site_fract_z
_atom_site_charge
Cd	Cd	0.99194 0.75615 0.01975 1.18100
Cd	Cd	0.26784 0.74385 0.48025 1.18100
Cd	Cd	0.76784 0.48025 0.74385 1.18100
Cd	Cd	0.49194 0.01975 0.75615 1.18100
Ag	Ag	0.38104 0.68892 0.80742 0.45200
Ag	Ag	0.63981 0.72663 0.24921 0.45300
Ag	Ag	0.37738 0.81108 0.69258 0.45300
Ag	Ag	0.11565 0.77337 0.25079 0.45200
Ag	Ag	0.87738 0.69258 0.81108 0.45200
Ag	Ag	0.61565 0.25079 0.77337 0.45200
Ag	Ag	0.88104 0.80742 0.68892 0.45200
Ag	Ag	0.13981 0.24921 0.72663 0.45200
C 	C 	0.53070 0.61950 0.75390 -0.12800
C 	C 	0.76430 0.73210 0.15590 -0.14500
C 	C 	0.51160 0.73120 0.34440 -0.14200
C 	C 	0.22970 0.73770 0.87830 -0.12700
C 	C 	0.09860 0.60270 0.95250 0.03900
C 	C 	0.13750 0.52750 0.94570 -0.10600
C 	C 	0.13450 0.48420 0.00660 0.08100
C 	C 	0.08710 0.51690 0.07350 -0.09700
C 	C 	0.05040 0.58990 0.07530 0.03400
C 	C 	0.17740 0.40280 0.99960 -0.17400
C 	C 	0.86910 0.91220 0.08100 0.04500
C 	C 	0.82450 0.98480 0.08680 -0.10600
C 	C 	0.84070 0.02820 0.02300 0.07600
C 	C 	0.90660 0.99080 0.95920 -0.09300
C 	C 	0.94880 0.91820 0.95840 0.04600
C 	C 	0.79120 0.11000 0.02040 -0.16400
C 	C 	0.40410 0.88050 0.74610 -0.12800
C 	C 	0.15230 0.76790 0.34410 -0.14500
C 	C 	0.08720 0.76880 0.15560 -0.14200
C 	C 	0.34570 0.76230 0.62170 -0.12700
C 	C 	0.15380 0.89730 0.54750 0.03900
C 	C 	0.11070 0.97250 0.55430 -0.09800
C 	C 	0.12530 0.01580 0.49340 0.07000
C 	C 	0.17750 0.98310 0.42650 -0.09100
C 	C 	0.21560 0.91010 0.42470 0.03100
C 	C 	0.07980 0.09720 0.50040 -0.16600
C 	C 	0.36230 0.58780 0.41900 0.04300
C 	C 	0.39610 0.51520 0.41320 -0.09900
C 	C 	0.39190 0.47180 0.47700 0.07100
C 	C 	0.35660 0.50920 0.54080 -0.09000
C 	C 	0.32540 0.58180 0.54160 0.03800
C 	C 	0.42160 0.39000 0.47960 -0.16400
C 	C 	0.90410 0.74610 0.88050 -0.12700
C 	C 	0.65230 0.34410 0.76790 -0.14500
C 	C 	0.58720 0.15560 0.76880 -0.14200
C 	C 	0.84570 0.62170 0.76230 -0.12600
C 	C 	0.65380 0.54750 0.89730 0.04100
C 	C 	0.61070 0.55430 0.97250 -0.10200
C 	C 	0.62530 0.49340 0.01580 0.07500
C 	C 	0.67750 0.42650 0.98310 -0.09600
C 	C 	0.71560 0.42470 0.91010 0.03300
C 	C 	0.57980 0.50040 0.09720 -0.16700
C 	C 	0.86230 0.41900 0.58780 0.04300
C 	C 	0.89610 0.41320 0.51520 -0.09800
C 	C 	0.89190 0.47700 0.47180 0.07000
C 	C 	0.85660 0.54080 0.50920 -0.09000
C 	C 	0.82540 0.54160 0.58180 0.03800
C 	C 	0.92160 0.47960 0.39000 -0.16000
C 	C 	0.03070 0.75390 0.61950 -0.13000
C 	C 	0.26430 0.15590 0.73210 -0.14400
C 	C 	0.01160 0.34440 0.73120 -0.14800
C 	C 	0.72970 0.87830 0.73770 -0.12700
C 	C 	0.59860 0.95250 0.60270 0.04100
C 	C 	0.63750 0.94570 0.52750 -0.09700
C 	C 	0.63450 0.00660 0.48420 0.07000
C 	C 	0.58710 0.07350 0.51690 -0.09100
C 	C 	0.55040 0.07530 0.58990 0.03200
C 	C 	0.67740 0.99960 0.40280 -0.13900
C 	C 	0.36910 0.08100 0.91220 0.04600
C 	C 	0.32450 0.08680 0.98480 -0.10900
C 	C 	0.34070 0.02300 0.02820 0.07800
C 	C 	0.40660 0.95920 0.99080 -0.09400
C 	C 	0.44880 0.95840 0.91820 0.04100
C 	C 	0.29120 0.02040 0.11000 -0.16600
N 	N 	0.60820 0.57580 0.73620 -0.20500
N 	N 	0.83170 0.73980 0.10640 -0.21300
N 	N 	0.43510 0.73920 0.39340 -0.22000
N 	N 	0.15270 0.75540 0.92220 -0.20800
N 	N 	0.05670 0.63240 0.01420 -0.24000
N 	N 	0.92910 0.87850 0.01990 -0.24700
N 	N 	0.42020 0.92420 0.76380 -0.20500
N 	N 	0.17790 0.76020 0.39360 -0.21300
N 	N 	0.06770 0.76080 0.10660 -0.22000
N 	N 	0.33030 0.74460 0.57780 -0.20700
N 	N 	0.20330 0.86760 0.48580 -0.24100
N 	N 	0.32750 0.62150 0.48010 -0.24400
N 	N 	0.92020 0.76380 0.92420 -0.20400
N 	N 	0.67790 0.39360 0.76020 -0.21300
N 	N 	0.56770 0.10660 0.76080 -0.22000
N 	N 	0.83030 0.57780 0.74460 -0.20700
N 	N 	0.70330 0.48580 0.86760 -0.24100
N 	N 	0.82750 0.48010 0.62150 -0.24400
N 	N 	0.10820 0.73620 0.57580 -0.20500
N 	N 	0.33170 0.10640 0.73980 -0.21300
N 	N 	0.93510 0.39340 0.73920 -0.21600
N 	N 	0.65270 0.92220 0.75540 -0.20700
N 	N 	0.55670 0.01420 0.63240 -0.24100
N 	N 	0.42910 0.01990 0.87850 -0.24600
Cd	Cd	0.23216 0.51975 0.25615 1.18000
Cd	Cd	0.50806 0.98025 0.24385 1.18000
Cd	Cd	0.00806 0.24385 0.98025 1.17800
Cd	Cd	0.73216 0.25615 0.51975 1.18000
Ag	Ag	0.12262 0.30742 0.18892 0.45100
Ag	Ag	0.38435 0.74921 0.22663 0.45200
Ag	Ag	0.11896 0.19258 0.31108 0.45000
Ag	Ag	0.86019 0.75079 0.27337 0.45300
Ag	Ag	0.61896 0.31108 0.19258 0.45100
Ag	Ag	0.36019 0.27337 0.75079 0.45200
Ag	Ag	0.62262 0.18892 0.30742 0.45200
Ag	Ag	0.88435 0.22663 0.74921 0.45300
C 	C 	0.09590 0.25390 0.11950 -0.12900
C 	C 	0.34770 0.65590 0.23210 -0.14500
C 	C 	0.41280 0.84440 0.23120 -0.14100
C 	C 	0.15430 0.37830 0.23770 -0.12700
C 	C 	0.34620 0.45250 0.10270 0.04000
C 	C 	0.38930 0.44570 0.02750 -0.09800
C 	C 	0.37470 0.50660 0.98420 0.06900
C 	C 	0.32250 0.57350 0.01690 -0.09000
C 	C 	0.28440 0.57530 0.08990 0.03100
C 	C 	0.42020 0.49960 0.90280 -0.16300
C 	C 	0.13770 0.58100 0.41220 0.04300
C 	C 	0.10390 0.58680 0.48480 -0.10000
C 	C 	0.10810 0.52300 0.52820 0.07100
C 	C 	0.14340 0.45920 0.49080 -0.09100
C 	C 	0.17460 0.45840 0.41820 0.03700
C 	C 	0.07840 0.52040 0.61000 -0.17000
C 	C 	0.96930 0.24610 0.38050 -0.12600
C 	C 	0.73570 0.84410 0.26790 -0.14300
C 	C 	0.98840 0.65560 0.26880 -0.13800
C 	C 	0.27030 0.12170 0.26230 -0.12600
C 	C 	0.40140 0.04750 0.39730 0.04000
C 	C 	0.36250 0.05430 0.47250 -0.09800
C 	C 	0.36550 0.99340 0.51580 0.07100
C 	C 	0.41290 0.92650 0.48310 -0.09200
C 	C 	0.44960 0.92470 0.41010 0.03200
C 	C 	0.32260 0.00040 0.59720 -0.14000
C 	C 	0.63090 0.91900 0.08780 0.04400
C 	C 	0.67550 0.91320 0.01520 -0.10400
C 	C 	0.65930 0.97700 0.97180 0.07300
C 	C 	0.59340 0.04080 0.00920 -0.08800
C 	C 	0.55120 0.04160 0.08180 0.03900
C 	C 	0.70880 0.97960 0.89000 -0.16800
C 	C 	0.46930 0.38050 0.24610 -0.12800
C 	C 	0.23570 0.26790 0.84410 -0.14600
C 	C 	0.48840 0.26880 0.65560 -0.14100
C 	C 	0.77030 0.26230 0.12170 -0.12600
C 	C 	0.90140 0.39730 0.04750 0.04200
C 	C 	0.86250 0.47250 0.05430 -0.10200
C 	C 	0.86550 0.51580 0.99340 0.07700
C 	C 	0.91290 0.48310 0.92650 -0.09500
C 	C 	0.94960 0.41010 0.92470 0.03400
C 	C 	0.82260 0.59720 0.00040 -0.16900
C 	C 	0.13090 0.08780 0.91900 0.04500
C 	C 	0.17550 0.01520 0.91320 -0.10800
C 	C 	0.15930 0.97180 0.97700 0.07500
C 	C 	0.09340 0.00920 0.04080 -0.09100
C 	C 	0.05120 0.08180 0.04160 0.03900
C 	C 	0.20880 0.89000 0.97960 -0.17300
C 	C 	0.59590 0.11950 0.25390 -0.12700
C 	C 	0.84770 0.23210 0.65590 -0.14400
C 	C 	0.91280 0.23120 0.84440 -0.13900
C 	C 	0.65430 0.23770 0.37830 -0.12600
C 	C 	0.84620 0.10270 0.45250 0.04100
C 	C 	0.88930 0.02750 0.44570 -0.09800
C 	C 	0.87470 0.98420 0.50660 0.07100
C 	C 	0.82250 0.01690 0.57350 -0.09200
C 	C 	0.78440 0.08990 0.57530 0.03200
C 	C 	0.92020 0.90280 0.49960 -0.16100
C 	C 	0.63770 0.41220 0.58100 0.04400
C 	C 	0.60390 0.48480 0.58680 -0.10000
C 	C 	0.60810 0.52820 0.52300 0.07200
C 	C 	0.64340 0.49080 0.45920 -0.09000
C 	C 	0.67460 0.41820 0.45840 0.03800
C 	C 	0.57840 0.61000 0.52040 -0.16900
N 	N 	0.07980 0.23620 0.07580 -0.20500
N 	N 	0.32210 0.60640 0.23980 -0.21300
N 	N 	0.43230 0.89340 0.23920 -0.21900
N 	N 	0.16970 0.42220 0.25540 -0.20700
N 	N 	0.29670 0.51420 0.13240 -0.24000
N 	N 	0.17250 0.51990 0.37850 -0.24400
N 	N 	0.89180 0.26380 0.42420 -0.20500
N 	N 	0.66830 0.89360 0.26020 -0.21300
N 	N 	0.06490 0.60660 0.26080 -0.22100
N 	N 	0.34730 0.07780 0.24460 -0.20700
N 	N 	0.44330 0.98580 0.36760 -0.24000
N 	N 	0.57090 0.98010 0.12150 -0.24500
N 	N 	0.39180 0.42420 0.26380 -0.20500
N 	N 	0.16830 0.26020 0.89360 -0.21400
N 	N 	0.56490 0.26080 0.60660 -0.21900
N 	N 	0.84730 0.24460 0.07780 -0.20700
N 	N 	0.94330 0.36760 0.98580 -0.23900
N 	N 	0.07090 0.12150 0.98010 -0.24800
N 	N 	0.57980 0.07580 0.23620 -0.20500
N 	N 	0.82210 0.23980 0.60640 -0.21200
N 	N 	0.93230 0.23920 0.89340 -0.21800
N 	N 	0.66970 0.25540 0.42220 -0.20700
N 	N 	0.79670 0.13240 0.51420 -0.24000
N 	N 	0.67250 0.37850 0.51990 -0.24400
H 	H 	0.10341 0.63959 0.90270 -0.03200
H 	H 	0.17044 0.50397 0.89057 0.02500
H 	H 	0.07987 0.48250 0.12500 0.02000
H 	H 	0.01322 0.61710 0.12877 -0.02400
H 	H 	0.16713 0.38885 0.94987 0.04100
H 	H 	0.13059 0.37674 0.04889 0.02600
H 	H 	0.26636 0.38232 0.99483 0.03700
H 	H 	0.85614 0.87559 0.13077 -0.03300
H 	H 	0.77615 0.00869 0.14156 0.03100
H 	H 	0.92599 0.02169 0.90594 0.02800
H 	H 	0.00091 0.89068 0.90580 -0.02300
H 	H 	0.71562 0.12728 0.06860 0.03900
H 	H 	0.76934 0.12801 0.96918 0.03500
H 	H 	0.85192 0.13540 0.02149 0.03700
H 	H 	0.14570 0.86041 0.59730 -0.03100
H 	H 	0.06498 0.99603 0.60943 0.02400
H 	H 	0.18737 0.01750 0.37500 0.01800
H 	H 	0.25909 0.88290 0.37123 -0.02400
H 	H 	0.01049 0.11089 0.55266 0.03900
H 	H 	0.04934 0.12291 0.45357 0.02400
H 	H 	0.14576 0.11828 0.50017 0.03600
H 	H 	0.36250 0.62441 0.36923 -0.03300
H 	H 	0.42640 0.49131 0.35844 0.02800
H 	H 	0.35362 0.47831 0.59406 0.02600
H 	H 	0.29740 0.60932 0.59420 -0.01900
H 	H 	0.40380 0.37311 0.43448 0.03900
H 	H 	0.37212 0.37154 0.53317 0.03500
H 	H 	0.51091 0.36466 0.47308 0.03700
H 	H 	0.64570 0.59730 0.86041 -0.03100
H 	H 	0.56498 0.60943 0.99603 0.02500
H 	H 	0.68737 0.37500 0.01750 0.02000
H 	H 	0.75909 0.37123 0.88290 -0.02400
H 	H 	0.55684 0.45091 0.12329 0.02300
H 	H 	0.50546 0.54988 0.11118 0.04100
H 	H 	0.64328 0.50562 0.11762 0.03600
H 	H 	0.86250 0.36923 0.62441 -0.03200
H 	H 	0.92640 0.35844 0.49131 0.02800
H 	H 	0.85362 0.59406 0.47831 0.02700
H 	H 	0.79740 0.59420 0.60932 -0.01900
H 	H 	0.86757 0.53131 0.37191 0.03500
H 	H 	0.90999 0.43196 0.37279 0.03900
H 	H 	0.00927 0.47746 0.36461 0.03400
H 	H 	0.60341 0.90270 0.63959 -0.03100
H 	H 	0.67044 0.89057 0.50397 0.02600
H 	H 	0.57987 0.12500 0.48250 0.01900
H 	H 	0.51322 0.12877 0.61710 -0.02400
H 	H 	0.62341 0.99507 0.37342 0.03300
H 	H 	0.76326 0.99893 0.37169 0.02900
H 	H 	0.35614 0.13077 0.87559 -0.03400
H 	H 	0.27615 0.14156 0.00869 0.03200
H 	H 	0.42599 0.90594 0.02169 0.02600
H 	H 	0.50091 0.90580 0.89068 -0.02000
H 	H 	0.27939 0.96614 0.12862 0.03500
H 	H 	0.21008 0.06438 0.12677 0.03900
H 	H 	0.34740 0.02875 0.13531 0.03800
H 	H 	0.35430 0.40270 0.13959 -0.03100
H 	H 	0.43502 0.39057 0.00397 0.02400
H 	H 	0.31263 0.62500 0.98250 0.01700
H 	H 	0.24091 0.62877 0.11710 -0.02400
H 	H 	0.36840 0.54561 0.87645 0.02300
H 	H 	0.41978 0.44664 0.88856 0.03400
H 	H 	0.50622 0.50135 0.88290 0.04000
H 	H 	0.13750 0.63077 0.37559 -0.03300
H 	H 	0.07360 0.64156 0.50869 0.02700
H 	H 	0.14638 0.40594 0.52169 0.02600
H 	H 	0.20260 0.40580 0.39068 -0.02000
H 	H 	0.05210 0.47147 0.63326 0.03700
H 	H 	0.00968 0.57083 0.63237 0.03900
H 	H 	0.15138 0.51697 0.62507 0.04100
H 	H 	0.39659 0.09730 0.36041 -0.03100
H 	H 	0.32956 0.10943 0.49603 0.02500
H 	H 	0.42013 0.87500 0.51750 0.01900
H 	H 	0.48678 0.87123 0.38290 -0.02400
H 	H 	0.23674 0.00107 0.62831 0.02800
H 	H 	0.37659 0.00493 0.62658 0.03300
H 	H 	0.64386 0.86923 0.12441 -0.03300
H 	H 	0.72385 0.85844 0.99131 0.02900
H 	H 	0.57401 0.09406 0.97831 0.02500
H 	H 	0.49909 0.09420 0.10932 -0.01900
H 	H 	0.65217 0.02487 0.86630 0.03700
H 	H 	0.72148 0.92663 0.86816 0.04000
H 	H 	0.78948 0.98924 0.87485 0.04100
H 	H 	0.89659 0.36041 0.09730 -0.03100
H 	H 	0.82956 0.49603 0.10943 0.02500
H 	H 	0.75454 0.61146 0.05316 0.03600
H 	H 	0.79108 0.62358 0.95414 0.02400
H 	H 	0.14386 0.12441 0.86923 -0.03400
H 	H 	0.22385 0.99131 0.85844 0.03100
H 	H 	0.07401 0.97831 0.09406 0.02600
H 	H 	0.99909 0.10932 0.09420 -0.01800
H 	H 	0.21142 0.86754 0.92967 0.04000
H 	H 	0.15770 0.86682 0.02909 0.03800
H 	H 	0.29400 0.87494 0.98198 0.04200
H 	H 	0.85430 0.13959 0.40270 -0.03000
H 	H 	0.93502 0.00397 0.39057 0.02600
H 	H 	0.81263 0.98250 0.62500 0.01900
H 	H 	0.74091 0.11710 0.62877 -0.02400
H 	H 	0.91228 0.88818 0.44930 0.03600
H 	H 	0.87343 0.87617 0.54840 0.02200
H 	H 	0.00870 0.88356 0.49590 0.03900
H 	H 	0.63750 0.37559 0.63077 -0.03300
H 	H 	0.57360 0.50869 0.64156 0.02800
H 	H 	0.64638 0.52169 0.40594 0.02700
H 	H 	0.70260 0.39068 0.40580 -0.01900
H 	H 	0.51423 0.63200 0.57268 0.04000
H 	H 	0.54591 0.63357 0.47399 0.03800
H 	H 	0.65302 0.62512 0.51260 0.04100
H 	H 	0.92013 0.51750 0.87500 0.02000
H 	H 	0.98678 0.38290 0.87123 -0.02300
H 	H 	0.89030 0.61705 0.99910 0.04200
