data_crystal

_cell_length_a 8.13240
_cell_length_b 11.34400
_cell_length_c 39.26600
_cell_angle_alpha 90.00000
_cell_angle_beta  90.00000
_cell_angle_gamma 102.90800

_symmetry_space_group_name_	'P 1'
_symmetry_space_group_name_H-M	'P 1'

loop_
_symmetry_equiv_pos_as_xyz
  x,y,z

loop_
_atom_site_label
_atom_site_type_symbol
_atom_site_fract_x
_atom_site_fract_y
_atom_site_fract_z
_atom_site_charge
Cd	Cd	0.75928 0.48146 0.94787 1.16100
Cd	Cd	0.09504 0.59544 0.29949 1.15800
Cd	Cd	0.01126 0.80951 0.12239 1.20800
Cd	Cd	0.74072 0.51854 0.44787 1.16200
Cd	Cd	0.40496 0.40456 0.79949 1.16600
Cd	Cd	0.48874 0.19049 0.62239 1.21400
Cd	Cd	0.24072 0.51854 0.05213 1.16100
Cd	Cd	0.90496 0.40456 0.70051 1.15800
Cd	Cd	0.98874 0.19049 0.87761 1.20800
Cd	Cd	0.25928 0.48146 0.55213 1.16200
Cd	Cd	0.59504 0.59544 0.20051 1.16600
Cd	Cd	0.51126 0.80951 0.37761 1.21400
H 	H 	0.49960 0.82920 0.02940 0.21200
H 	H 	0.85800 0.13350 0.03900 0.21400
H 	H 	0.77290 0.96850 0.94850 0.22700
H 	H 	0.50610 0.80510 0.94260 0.22200
H 	H 	0.41980 0.74440 0.97590 0.22200
H 	H 	0.52090 0.94260 0.08240 0.22100
H 	H 	0.66430 0.06020 0.08720 0.20800
H 	H 	0.03070 0.13320 0.95820 0.24500
H 	H 	0.04710 0.20620 0.99250 0.24700
H 	H 	0.88710 0.11370 0.21330 0.22000
H 	H 	0.04450 0.88770 0.27700 0.15600
H 	H 	0.87520 0.16700 0.31360 0.21300
H 	H 	0.78860 0.27760 0.23140 0.21600
H 	H 	0.69570 0.26110 0.26650 0.22600
H 	H 	0.02860 0.96380 0.19070 0.24200
H 	H 	0.10580 0.88350 0.21580 0.26100
H 	H 	0.03900 0.04680 0.35080 0.13900
H 	H 	0.06840 0.92440 0.33610 0.14100
H 	H 	0.00040 0.17080 0.52940 0.21800
H 	H 	0.64200 0.86650 0.53900 0.20900
H 	H 	0.72710 0.03150 0.44850 0.22800
H 	H 	0.99390 0.19490 0.44260 0.22400
H 	H 	0.08020 0.25560 0.47590 0.21400
H 	H 	0.97910 0.05740 0.58240 0.21600
H 	H 	0.83570 0.93980 0.58720 0.20400
H 	H 	0.46930 0.86680 0.45820 0.23300
H 	H 	0.45290 0.79380 0.49250 0.23800
H 	H 	0.61290 0.88630 0.71330 0.21500
H 	H 	0.45550 0.11230 0.77700 0.20400
H 	H 	0.62480 0.83300 0.81360 0.22200
H 	H 	0.71140 0.72240 0.73140 0.20900
H 	H 	0.80430 0.73890 0.76650 0.21700
H 	H 	0.47140 0.03620 0.69070 0.23300
H 	H 	0.39420 0.11650 0.71580 0.24900
H 	H 	0.46100 0.95320 0.85080 0.20200
H 	H 	0.43160 0.07560 0.83610 0.20300
H 	H 	0.50040 0.17080 0.97060 0.21200
H 	H 	0.14200 0.86650 0.96100 0.21400
H 	H 	0.22710 0.03150 0.05150 0.22700
H 	H 	0.49390 0.19490 0.05740 0.22200
H 	H 	0.58020 0.25560 0.02410 0.22200
H 	H 	0.47910 0.05740 0.91760 0.22100
H 	H 	0.33570 0.93980 0.91280 0.20800
H 	H 	0.96930 0.86680 0.04180 0.24500
H 	H 	0.95290 0.79380 0.00750 0.24700
H 	H 	0.11290 0.88630 0.78670 0.22000
H 	H 	0.95550 0.11230 0.72300 0.15600
H 	H 	0.12480 0.83300 0.68640 0.21300
H 	H 	0.21140 0.72240 0.76860 0.21600
H 	H 	0.30430 0.73890 0.73350 0.22600
H 	H 	0.97140 0.03620 0.80930 0.24200
H 	H 	0.89420 0.11650 0.78420 0.26100
H 	H 	0.96100 0.95320 0.64920 0.13900
H 	H 	0.93160 0.07560 0.66390 0.14100
H 	H 	0.99960 0.82920 0.47060 0.21800
H 	H 	0.35800 0.13350 0.46100 0.20900
H 	H 	0.27290 0.96850 0.55150 0.22800
H 	H 	0.00610 0.80510 0.55740 0.22400
H 	H 	0.91980 0.74440 0.52410 0.21400
H 	H 	0.02090 0.94260 0.41760 0.21600
H 	H 	0.16430 0.06020 0.41280 0.20400
H 	H 	0.53070 0.13320 0.54180 0.23300
H 	H 	0.54710 0.20620 0.50750 0.23800
H 	H 	0.38710 0.11370 0.28670 0.21500
H 	H 	0.54450 0.88770 0.22300 0.20400
H 	H 	0.37520 0.16700 0.18640 0.22200
H 	H 	0.28860 0.27760 0.26860 0.20900
H 	H 	0.19570 0.26110 0.23350 0.21700
H 	H 	0.52860 0.96380 0.30930 0.23300
H 	H 	0.60580 0.88350 0.28420 0.24900
H 	H 	0.53900 0.04680 0.14920 0.20200
H 	H 	0.56840 0.92440 0.16390 0.20300
C 	C 	0.62390 0.88210 0.98585 0.51300
C 	C 	0.58550 0.88820 0.01995 -0.55700
C 	C 	0.67340 0.98120 0.04033 0.49200
C 	C 	0.79850 0.07080 0.02561 -0.57500
C 	C 	0.83540 0.06770 0.99126 0.52200
C 	C 	0.74780 0.97200 0.97156 -0.58800
C 	C 	0.52780 0.77660 0.96509 -0.67900
C 	C 	0.62220 0.67660 0.96151 0.47600
C 	C 	0.63880 0.97860 0.07804 -0.65500
C 	C 	0.75040 0.90380 0.09472 0.47100
C 	C 	0.96820 0.16800 0.97510 -0.74100
C 	C 	0.89040 0.26250 0.95826 0.54600
C 	C 	0.87230 0.15940 0.26243 0.49000
C 	C 	0.90630 0.09030 0.23534 -0.58800
C 	C 	0.96820 0.98740 0.24023 0.54200
C 	C 	0.99880 0.95480 0.27334 -0.46300
C 	C 	0.96300 0.01980 0.30092 0.39500
C 	C 	0.89960 0.12250 0.29510 -0.51600
C 	C 	0.80520 0.27120 0.25569 -0.66100
C 	C 	0.91770 0.38910 0.26820 0.47700
C 	C 	0.00500 0.91240 0.21067 -0.79900
C 	C 	0.86440 0.80520 0.20222 0.57300
C 	C 	0.99020 0.97760 0.33672 -0.47200
C 	C 	0.82440 0.91120 0.35196 0.41600
C 	C 	0.87610 0.11790 0.48585 0.51200
C 	C 	0.91450 0.11180 0.51995 -0.56400
C 	C 	0.82660 0.01880 0.54033 0.49000
C 	C 	0.70150 0.92920 0.52561 -0.57000
C 	C 	0.66460 0.93230 0.49126 0.51400
C 	C 	0.75220 0.02800 0.47156 -0.58100
C 	C 	0.97220 0.22340 0.46509 -0.67000
C 	C 	0.87780 0.32340 0.46151 0.47500
C 	C 	0.86120 0.02140 0.57804 -0.65300
C 	C 	0.74960 0.09620 0.59472 0.47300
C 	C 	0.53180 0.83200 0.47510 -0.71700
C 	C 	0.60960 0.73750 0.45826 0.54000
C 	C 	0.62770 0.84060 0.76243 0.49900
C 	C 	0.59370 0.90970 0.73534 -0.59900
C 	C 	0.53180 0.01260 0.74023 0.53400
C 	C 	0.50120 0.04520 0.77334 -0.54800
C 	C 	0.53700 0.98020 0.80092 0.45900
C 	C 	0.60040 0.87750 0.79510 -0.55900
C 	C 	0.69480 0.72880 0.75569 -0.66500
C 	C 	0.58230 0.61090 0.76820 0.47600
C 	C 	0.49500 0.08760 0.71067 -0.73600
C 	C 	0.63560 0.19480 0.70222 0.53700
C 	C 	0.50980 0.02240 0.83672 -0.62600
C 	C 	0.67560 0.08880 0.85196 0.46000
C 	C 	0.37610 0.11790 0.01415 0.51300
C 	C 	0.41450 0.11180 0.98005 -0.55700
C 	C 	0.32660 0.01880 0.95967 0.49200
C 	C 	0.20150 0.92920 0.97439 -0.57500
C 	C 	0.16460 0.93230 0.00874 0.52200
C 	C 	0.25220 0.02800 0.02844 -0.58800
C 	C 	0.47220 0.22340 0.03491 -0.67900
C 	C 	0.37780 0.32340 0.03849 0.47600
C 	C 	0.36120 0.02140 0.92196 -0.65500
C 	C 	0.24960 0.09620 0.90528 0.47100
C 	C 	0.03180 0.83200 0.02490 -0.74100
C 	C 	0.10960 0.73750 0.04174 0.54600
C 	C 	0.12770 0.84060 0.73757 0.49000
C 	C 	0.09370 0.90970 0.76466 -0.58800
C 	C 	0.03180 0.01260 0.75977 0.54200
C 	C 	0.00120 0.04520 0.72666 -0.46300
C 	C 	0.03700 0.98020 0.69908 0.39500
C 	C 	0.10040 0.87750 0.70490 -0.51600
C 	C 	0.19480 0.72880 0.74431 -0.66100
C 	C 	0.08230 0.61090 0.73180 0.47700
C 	C 	0.99500 0.08760 0.78933 -0.79900
C 	C 	0.13560 0.19480 0.79778 0.57300
C 	C 	0.00980 0.02240 0.66328 -0.47200
C 	C 	0.17560 0.08880 0.64804 0.41600
C 	C 	0.12390 0.88210 0.51415 0.51200
C 	C 	0.08550 0.88820 0.48005 -0.56400
C 	C 	0.17340 0.98120 0.45967 0.49000
C 	C 	0.29850 0.07080 0.47439 -0.57000
C 	C 	0.33540 0.06770 0.50874 0.51400
C 	C 	0.24780 0.97200 0.52844 -0.58100
C 	C 	0.02780 0.77660 0.53491 -0.67000
C 	C 	0.12220 0.67660 0.53849 0.47500
C 	C 	0.13880 0.97860 0.42196 -0.65300
C 	C 	0.25040 0.90380 0.40528 0.47300
C 	C 	0.46820 0.16800 0.52490 -0.71700
C 	C 	0.39040 0.26250 0.54174 0.54000
C 	C 	0.37230 0.15940 0.23757 0.49900
C 	C 	0.40630 0.09030 0.26466 -0.59900
C 	C 	0.46820 0.98740 0.25977 0.53400
C 	C 	0.49880 0.95480 0.22666 -0.54800
C 	C 	0.46300 0.01980 0.19908 0.45900
C 	C 	0.39960 0.12250 0.20490 -0.55900
C 	C 	0.30520 0.27120 0.24431 -0.66500
C 	C 	0.41770 0.38910 0.23180 0.47600
C 	C 	0.50500 0.91240 0.28933 -0.73600
C 	C 	0.36440 0.80520 0.29778 0.53700
C 	C 	0.49020 0.97760 0.16328 -0.62600
C 	C 	0.32440 0.91120 0.14804 0.46000
O 	O 	0.65150 0.61720 0.98688 -0.47000
O 	O 	0.67030 0.65350 0.93218 -0.50500
O 	O 	0.88860 0.95940 0.10655 -0.45600
O 	O 	0.70770 0.79030 0.09462 -0.43900
O 	O 	0.83640 0.33510 0.97764 -0.54300
O 	O 	0.87970 0.26800 0.92685 -0.58100
O 	O 	0.93540 0.40280 0.30000 -0.49500
O 	O 	0.98800 0.46870 0.24785 -0.45500
O 	O 	0.77890 0.74660 0.22589 -0.52800
O 	O 	0.83630 0.77680 0.17166 -0.58000
O 	O 	0.74920 0.96650 0.37243 -0.42600
O 	O 	0.75960 0.80400 0.34363 -0.45500
O 	O 	0.84850 0.38280 0.48688 -0.47000
O 	O 	0.82970 0.34650 0.43218 -0.50000
O 	O 	0.61140 0.04060 0.60655 -0.46500
O 	O 	0.79230 0.20970 0.59462 -0.44600
O 	O 	0.66360 0.66490 0.47764 -0.54100
O 	O 	0.62030 0.73200 0.42685 -0.57400
O 	O 	0.56460 0.59720 0.80000 -0.50700
O 	O 	0.51200 0.53130 0.74785 -0.47100
O 	O 	0.72110 0.25340 0.72589 -0.52800
O 	O 	0.66370 0.22320 0.67166 -0.58000
O 	O 	0.75080 0.03350 0.87243 -0.44600
O 	O 	0.74040 0.19600 0.84363 -0.47800
O 	O 	0.34850 0.38280 0.01312 -0.47000
O 	O 	0.32970 0.34650 0.06782 -0.50500
O 	O 	0.11140 0.04060 0.89345 -0.45600
O 	O 	0.29230 0.20970 0.90538 -0.43900
O 	O 	0.16360 0.66490 0.02236 -0.54300
O 	O 	0.12030 0.73200 0.07315 -0.58100
O 	O 	0.06460 0.59720 0.70000 -0.49500
O 	O 	0.01200 0.53130 0.75215 -0.45500
O 	O 	0.22110 0.25340 0.77411 -0.52800
O 	O 	0.16370 0.22320 0.82834 -0.58000
O 	O 	0.25080 0.03350 0.62757 -0.42600
O 	O 	0.24040 0.19600 0.65637 -0.45500
O 	O 	0.15150 0.61720 0.51312 -0.47000
O 	O 	0.17030 0.65350 0.56782 -0.50000
O 	O 	0.38860 0.95940 0.39345 -0.46500
O 	O 	0.20770 0.79030 0.40538 -0.44600
O 	O 	0.33640 0.33510 0.52236 -0.54100
O 	O 	0.37970 0.26800 0.57315 -0.57400
O 	O 	0.43540 0.40280 0.20000 -0.50700
O 	O 	0.48800 0.46870 0.25215 -0.47100
O 	O 	0.27890 0.74660 0.27411 -0.52800
O 	O 	0.33630 0.77680 0.32834 -0.58000
O 	O 	0.24920 0.96650 0.12757 -0.44600
O 	O 	0.25960 0.80400 0.15637 -0.47800
