data_crystal

_cell_length_a 4.71430
_cell_length_b 11.73440
_cell_length_c 13.68230
_cell_angle_alpha 67.66600
_cell_angle_beta  89.26900
_cell_angle_gamma 82.09600

_symmetry_space_group_name_	'P 1'
_symmetry_space_group_name_H-M	'P 1'

loop_
_symmetry_equiv_pos_as_xyz
  x,y,z

loop_
_atom_site_label
_atom_site_type_symbol
_atom_site_fract_x
_atom_site_fract_y
_atom_site_fract_z
_atom_site_charge
Ag	Ag	0.73020 0.95096 0.93577 0.51800
Ag	Ag	0.32599 0.12973 0.78231 0.53700
Ag	Ag	0.26980 0.04904 0.06423 0.51800
Ag	Ag	0.67401 0.87027 0.21769 0.53700
H 	H 	0.43860 0.52110 0.90690 0.16300
H 	H 	0.54990 0.79050 0.62520 0.16100
H 	H 	0.07190 0.46060 0.72160 0.19400
H 	H 	0.07220 0.32330 0.91300 0.17900
H 	H 	0.79810 0.33860 0.97910 0.17700
H 	H 	0.10420 0.80320 0.72040 0.18400
H 	H 	0.09220 0.70880 0.84030 0.18500
H 	H 	0.00710 0.77030 0.53850 0.17000
H 	H 	0.19160 0.63580 0.56960 0.21100
H 	H 	0.56140 0.47890 0.09310 0.16400
H 	H 	0.45010 0.20950 0.37480 0.16200
H 	H 	0.92810 0.53940 0.27840 0.19400
H 	H 	0.92780 0.67670 0.08700 0.17900
H 	H 	0.20190 0.66140 0.02090 0.17700
H 	H 	0.89580 0.19680 0.27960 0.18400
H 	H 	0.90780 0.29120 0.15970 0.18500
H 	H 	0.99290 0.22970 0.46150 0.17000
H 	H 	0.80840 0.36420 0.43040 0.21100
C 	C 	0.76970 0.47100 0.82780 0.38800
C 	C 	0.54100 0.54980 0.84390 -0.43000
C 	C 	0.46000 0.66960 0.76960 0.39200
C 	C 	0.60690 0.70920 0.67670 -0.43900
C 	C 	0.83410 0.63390 0.65690 0.38900
C 	C 	0.91610 0.51350 0.73360 -0.41000
C 	C 	0.86030 0.34100 0.90900 -0.53700
C 	C 	0.74160 0.23820 0.88720 0.45100
C 	C 	0.21910 0.75790 0.78740 -0.54400
C 	C 	0.32110 0.85250 0.82560 0.44200
C 	C 	0.99380 0.68120 0.55620 -0.52900
C 	C 	0.86260 0.66830 0.46090 0.42900
C 	C 	0.23030 0.52900 0.17220 0.38800
C 	C 	0.45900 0.45020 0.15610 -0.43000
C 	C 	0.54000 0.33040 0.23040 0.39200
C 	C 	0.39310 0.29080 0.32330 -0.43900
C 	C 	0.16590 0.36610 0.34310 0.38900
C 	C 	0.08390 0.48650 0.26640 -0.41000
C 	C 	0.13970 0.65900 0.09100 -0.53700
C 	C 	0.25840 0.76180 0.11280 0.45100
C 	C 	0.78090 0.24210 0.21260 -0.54400
C 	C 	0.67890 0.14750 0.17440 0.44200
C 	C 	0.00620 0.31880 0.44380 -0.52900
C 	C 	0.13740 0.33170 0.53910 0.42900
O 	O 	0.86460 0.12820 0.93680 -0.46900
O 	O 	0.52970 0.26690 0.82430 -0.38900
O 	O 	0.55190 0.82160 0.87990 -0.40000
O 	O 	0.15720 0.95490 0.80100 -0.42800
O 	O 	0.96630 0.72520 0.37230 -0.33100
O 	O 	0.66840 0.60150 0.47420 -0.26500
O 	O 	0.13540 0.87180 0.06320 -0.46900
O 	O 	0.47030 0.73310 0.17570 -0.38900
O 	O 	0.44810 0.17840 0.12010 -0.40000
O 	O 	0.84280 0.04510 0.19900 -0.42800
O 	O 	0.03370 0.27480 0.62770 -0.33100
O 	O 	0.33160 0.39850 0.52580 -0.26500
