data_crystal

_cell_length_a 14.57580
_cell_length_b 23.24500
_cell_length_c 24.81500
_cell_angle_alpha 90.00000
_cell_angle_beta  102.90400
_cell_angle_gamma 90.00000

_symmetry_space_group_name_	'P 1'
_symmetry_space_group_name_H-M	'P 1'

loop_
_symmetry_equiv_pos_as_xyz
  x,y,z

loop_
_atom_site_label
_atom_site_type_symbol
_atom_site_fract_x
_atom_site_fract_y
_atom_site_fract_z
_atom_site_charge
Eu	Eu	0.75625 0.74288 0.77122 2.04900
Eu	Eu	0.26339 0.26554 0.07082 1.96000
Eu	Eu	0.76125 0.78210 0.10669 1.81900
Eu	Eu	0.24375 0.24288 0.72878 2.04800
Eu	Eu	0.73661 0.76554 0.42918 1.95900
Eu	Eu	0.23875 0.28210 0.39331 1.81900
Eu	Eu	0.24375 0.25712 0.22878 2.04800
Eu	Eu	0.73661 0.73446 0.92918 1.95900
Eu	Eu	0.23875 0.21790 0.89331 1.81900
Eu	Eu	0.75625 0.75712 0.27122 2.04800
Eu	Eu	0.26339 0.23446 0.57082 1.95900
Eu	Eu	0.76125 0.71790 0.60669 1.81900
H 	H 	0.14470 0.53590 0.93390 0.10000
H 	H 	0.15060 0.44090 0.95630 0.00400
H 	H 	0.37090 0.46880 0.08270 0.00900
H 	H 	0.36710 0.56500 0.06170 0.10500
H 	H 	0.41060 0.59930 0.94910 0.13000
H 	H 	0.54870 0.64860 0.96670 -0.03200
H 	H 	0.43820 0.76940 0.04600 -0.01000
H 	H 	0.29770 0.71840 0.03130 0.11700
H 	H 	0.23240 0.70450 0.91050 0.10500
H 	H 	0.09890 0.75060 0.86320 -0.00200
H 	H 	0.94350 0.65430 0.94120 -0.00000
H 	H 	0.07870 0.60930 0.99250 0.10900
H 	H 	0.11340 0.57100 0.84250 0.11100
H 	H 	0.97050 0.61200 0.80470 -0.00900
H 	H 	0.08170 0.68120 0.68470 -0.00800
H 	H 	0.22620 0.63780 0.72390 0.11300
H 	H 	0.36600 0.50760 0.88990 0.11200
H 	H 	0.36930 0.40790 0.89880 0.00000
H 	H 	0.15310 0.39660 0.76650 -0.01400
H 	H 	0.15800 0.49530 0.75690 0.11700
H 	H 	0.42110 0.52700 0.78560 0.11800
H 	H 	0.56170 0.57090 0.78550 -0.00700
H 	H 	0.46670 0.71570 0.83980 -0.03900
H 	H 	0.32500 0.67590 0.83600 0.12500
H 	H 	0.67810 0.04000 0.80950 0.11700
H 	H 	0.67980 0.94440 0.78740 -0.01600
H 	H 	0.80710 0.90870 0.94360 -0.02000
H 	H 	0.80490 0.00510 0.96710 0.11300
H 	H 	0.72240 0.19370 0.85170 0.11100
H 	H 	0.58210 0.24150 0.81700 -0.00200
H 	H 	0.43950 0.11870 0.87510 -0.02500
H 	H 	0.57810 0.06990 0.91000 0.10900
H 	H 	0.91220 0.06460 0.88900 0.13000
H 	H 	0.05670 0.10770 0.92390 -0.04500
H 	H 	0.93260 0.22690 0.99650 -0.02400
H 	H 	0.79150 0.18460 0.96400 0.13100
H 	H 	0.85530 0.03590 0.56610 0.10000
H 	H 	0.84940 0.94090 0.54370 0.00300
H 	H 	0.62910 0.96880 0.41730 0.00900
H 	H 	0.63290 0.06500 0.43830 0.10500
H 	H 	0.58940 0.09930 0.55090 0.13000
H 	H 	0.45130 0.14860 0.53330 -0.03200
H 	H 	0.56180 0.26940 0.45400 -0.01000
H 	H 	0.70230 0.21840 0.46870 0.11700
H 	H 	0.76760 0.20450 0.58950 0.10500
H 	H 	0.90110 0.25060 0.63680 -0.00200
H 	H 	0.05650 0.15430 0.55880 -0.00100
H 	H 	0.92130 0.10930 0.50750 0.10900
H 	H 	0.88660 0.07100 0.65750 0.11100
H 	H 	0.02950 0.11200 0.69530 -0.00900
H 	H 	0.91830 0.18120 0.81530 -0.00800
H 	H 	0.77380 0.13780 0.77610 0.11300
H 	H 	0.63400 0.00760 0.61010 0.11200
H 	H 	0.63070 0.90790 0.60120 0.00100
H 	H 	0.84690 0.89660 0.73350 -0.01400
H 	H 	0.84200 0.99530 0.74310 0.11700
H 	H 	0.57890 0.02700 0.71440 0.11800
H 	H 	0.43830 0.07090 0.71450 -0.00700
H 	H 	0.53330 0.21570 0.66020 -0.03900
H 	H 	0.67500 0.17590 0.66400 0.12500
H 	H 	0.32190 0.54000 0.69050 0.11700
H 	H 	0.32020 0.44440 0.71260 -0.01600
H 	H 	0.19290 0.40870 0.55640 -0.02000
H 	H 	0.19510 0.50510 0.53290 0.11300
H 	H 	0.27760 0.69370 0.64830 0.11100
H 	H 	0.41790 0.74150 0.68300 -0.00200
H 	H 	0.56050 0.61870 0.62490 -0.02500
H 	H 	0.42190 0.56990 0.59000 0.10900
H 	H 	0.08780 0.56460 0.61100 0.13100
H 	H 	0.94330 0.60770 0.57610 -0.04500
H 	H 	0.06740 0.72690 0.50350 -0.02400
H 	H 	0.20850 0.68460 0.53600 0.13100
H 	H 	0.85530 0.46410 0.06610 0.10000
H 	H 	0.84940 0.55910 0.04370 0.00400
H 	H 	0.62910 0.53120 0.91730 0.00900
H 	H 	0.63290 0.43500 0.93830 0.10500
H 	H 	0.58940 0.40070 0.05090 0.13000
H 	H 	0.45130 0.35140 0.03330 -0.03200
H 	H 	0.56180 0.23060 0.95400 -0.01000
H 	H 	0.70230 0.28160 0.96870 0.11700
H 	H 	0.76760 0.29550 0.08950 0.10500
H 	H 	0.90110 0.24940 0.13680 -0.00200
H 	H 	0.05650 0.34570 0.05880 -0.00000
H 	H 	0.92130 0.39070 0.00750 0.10900
H 	H 	0.88660 0.42900 0.15750 0.11100
H 	H 	0.02950 0.38800 0.19530 -0.00900
H 	H 	0.91830 0.31880 0.31530 -0.00800
H 	H 	0.77380 0.36220 0.27610 0.11300
H 	H 	0.63400 0.49240 0.11010 0.11200
H 	H 	0.63070 0.59210 0.10120 0.00000
H 	H 	0.84690 0.60340 0.23350 -0.01400
H 	H 	0.84200 0.50470 0.24310 0.11700
H 	H 	0.57890 0.47300 0.21440 0.11800
H 	H 	0.43830 0.42910 0.21450 -0.00700
H 	H 	0.53330 0.28430 0.16020 -0.03900
H 	H 	0.67500 0.32410 0.16400 0.12500
H 	H 	0.32190 0.96000 0.19050 0.11700
H 	H 	0.32020 0.05560 0.21260 -0.01600
H 	H 	0.19290 0.09130 0.05640 -0.02000
H 	H 	0.19510 0.99490 0.03290 0.11300
H 	H 	0.27760 0.80630 0.14830 0.11100
H 	H 	0.41790 0.75850 0.18300 -0.00200
H 	H 	0.56050 0.88130 0.12490 -0.02500
H 	H 	0.42190 0.93010 0.09000 0.10900
H 	H 	0.08780 0.93540 0.11100 0.13000
H 	H 	0.94330 0.89230 0.07610 -0.04500
H 	H 	0.06740 0.77310 0.00350 -0.02400
H 	H 	0.20850 0.81540 0.03600 0.13100
H 	H 	0.14470 0.96410 0.43390 0.10000
H 	H 	0.15060 0.05910 0.45630 0.00300
H 	H 	0.37090 0.03120 0.58270 0.00900
H 	H 	0.36710 0.93500 0.56170 0.10500
H 	H 	0.41060 0.90070 0.44910 0.13000
H 	H 	0.54870 0.85140 0.46670 -0.03200
H 	H 	0.43820 0.73060 0.54600 -0.01000
H 	H 	0.29770 0.78160 0.53130 0.11700
H 	H 	0.23240 0.79550 0.41050 0.10500
H 	H 	0.09890 0.74940 0.36320 -0.00200
H 	H 	0.94350 0.84570 0.44120 -0.00100
H 	H 	0.07870 0.89070 0.49250 0.10900
H 	H 	0.11340 0.92900 0.34250 0.11100
H 	H 	0.97050 0.88800 0.30470 -0.00900
H 	H 	0.08170 0.81880 0.18470 -0.00800
H 	H 	0.22620 0.86220 0.22390 0.11300
H 	H 	0.36600 0.99240 0.38990 0.11200
H 	H 	0.36930 0.09210 0.39880 0.00100
H 	H 	0.15310 0.10340 0.26650 -0.01400
H 	H 	0.15800 0.00470 0.25690 0.11700
H 	H 	0.42110 0.97300 0.28560 0.11800
H 	H 	0.56170 0.92910 0.28550 -0.00700
H 	H 	0.46670 0.78430 0.33980 -0.03900
H 	H 	0.32500 0.82410 0.33600 0.12500
H 	H 	0.67810 0.46000 0.30950 0.11700
H 	H 	0.67980 0.55560 0.28740 -0.01600
H 	H 	0.80710 0.59130 0.44360 -0.02000
H 	H 	0.80490 0.49490 0.46710 0.11300
H 	H 	0.72240 0.30630 0.35170 0.11100
H 	H 	0.58210 0.25850 0.31700 -0.00200
H 	H 	0.43950 0.38130 0.37510 -0.02500
H 	H 	0.57810 0.43010 0.41000 0.10900
H 	H 	0.91220 0.43540 0.38900 0.13100
H 	H 	0.05670 0.39230 0.42390 -0.04500
H 	H 	0.93260 0.27310 0.49650 -0.02400
H 	H 	0.79150 0.31540 0.46400 0.13100
C 	C 	0.25610 0.56190 0.99540 0.16600
C 	C 	0.19000 0.52270 0.96390 -0.19700
C 	C 	0.19330 0.46600 0.97780 0.10200
C 	C 	0.25860 0.44390 0.02340 -0.16100
C 	C 	0.32480 0.48250 0.05330 0.09900
C 	C 	0.32330 0.54030 0.04040 -0.19800
C 	C 	0.25610 0.38400 0.03980 0.35500
C 	C 	0.41680 0.63290 0.97000 -0.27900
C 	C 	0.49810 0.66260 0.97990 0.18700
C 	C 	0.50790 0.71260 0.00870 -0.23300
C 	C 	0.43250 0.73430 0.02750 0.15200
C 	C 	0.34900 0.70440 0.01880 -0.24700
C 	C 	0.34430 0.65220 0.99060 0.20800
C 	C 	0.59850 0.74730 0.02310 0.42600
C 	C 	0.16960 0.64950 0.95350 0.17600
C 	C 	0.17410 0.69330 0.91630 -0.21500
C 	C 	0.09350 0.72090 0.88740 0.12600
C 	C 	0.00570 0.70510 0.89390 -0.19100
C 	C 	0.00180 0.66380 0.93430 0.12100
C 	C 	0.08300 0.63590 0.96520 -0.21200
C 	C 	0.91640 0.72800 0.86110 0.42000
C 	C 	0.18450 0.59980 0.78590 0.19000
C 	C 	0.10650 0.59280 0.81040 -0.22500
C 	C 	0.02120 0.61720 0.78820 0.14100
C 	C 	0.01160 0.64990 0.74040 -0.21000
C 	C 	0.08800 0.65850 0.71620 0.13200
C 	C 	0.17500 0.63250 0.74000 -0.23300
C 	C 	0.91630 0.67550 0.71440 0.47300
C 	C 	0.26540 0.51090 0.82040 0.20100
C 	C 	0.32530 0.48510 0.86410 -0.22900
C 	C 	0.32610 0.42520 0.87010 0.12900
C 	C 	0.26270 0.39170 0.83340 -0.20000
C 	C 	0.19770 0.41830 0.79080 0.14200
C 	C 	0.20110 0.47760 0.78540 -0.23900
C 	C 	0.26480 0.32820 0.84090 0.40500
C 	C 	0.35790 0.59790 0.81120 0.20200
C 	C 	0.43050 0.56540 0.79570 -0.24400
C 	C 	0.51400 0.59150 0.79610 0.15100
C 	C 	0.52890 0.64830 0.81210 -0.20500
C 	C 	0.45640 0.67780 0.82780 0.17300
C 	C 	0.37280 0.65430 0.82650 -0.27000
C 	C 	0.62150 0.67600 0.81160 0.38800
C 	C 	0.74350 0.03400 0.89060 0.19100
C 	C 	0.70480 0.01370 0.83680 -0.24200
C 	C 	0.70520 0.95640 0.82340 0.16000
C 	C 	0.74330 0.91670 0.86340 -0.24900
C 	C 	0.78090 0.93550 0.91660 0.15400
C 	C 	0.78050 0.99360 0.93080 -0.24000
C 	C 	0.74590 0.85420 0.84950 0.51300
C 	C 	0.66580 0.12670 0.88270 0.19300
C 	C 	0.66590 0.17790 0.85610 -0.23400
C 	C 	0.58130 0.20670 0.83540 0.12900
C 	C 	0.49630 0.18440 0.84190 -0.19300
C 	C 	0.49610 0.13360 0.86990 0.14900
C 	C 	0.57900 0.10420 0.89080 -0.22800
C 	C 	0.40730 0.21620 0.81650 0.41100
C 	C 	0.83560 0.12040 0.92340 0.23200
C 	C 	0.91590 0.09740 0.91080 -0.27700
C 	C 	0.00290 0.12420 0.93150 0.19800
C 	C 	0.01220 0.17280 0.96180 -0.27200
C 	C 	0.92940 0.19430 0.97440 0.19500
C 	C 	0.84480 0.16870 0.95520 -0.28900
C 	C 	0.10790 0.19740 0.98330 0.48800
C 	C 	0.74390 0.06190 0.50460 0.16600
C 	C 	0.81000 0.02270 0.53610 -0.19800
C 	C 	0.80670 0.96600 0.52220 0.10300
C 	C 	0.74140 0.94390 0.47660 -0.16100
C 	C 	0.67520 0.98250 0.44670 0.10000
C 	C 	0.67670 0.04030 0.45960 -0.19900
C 	C 	0.74390 0.88400 0.46020 0.35600
C 	C 	0.58320 0.13290 0.53000 -0.27900
C 	C 	0.50190 0.16260 0.52010 0.18600
C 	C 	0.49210 0.21260 0.49130 -0.23300
C 	C 	0.56750 0.23430 0.47250 0.15200
C 	C 	0.65100 0.20440 0.48120 -0.24700
C 	C 	0.65570 0.15220 0.50940 0.20800
C 	C 	0.40150 0.24730 0.47690 0.42600
C 	C 	0.83040 0.14950 0.54650 0.17600
C 	C 	0.82590 0.19330 0.58370 -0.21500
C 	C 	0.90650 0.22090 0.61260 0.12600
C 	C 	0.99430 0.20510 0.60610 -0.19100
C 	C 	0.99820 0.16380 0.56570 0.12200
C 	C 	0.91700 0.13590 0.53480 -0.21200
C 	C 	0.08360 0.22800 0.63890 0.42000
C 	C 	0.81550 0.09980 0.71410 0.19000
C 	C 	0.89350 0.09280 0.68960 -0.22500
C 	C 	0.97880 0.11720 0.71180 0.14200
C 	C 	0.98840 0.14990 0.75960 -0.21000
C 	C 	0.91200 0.15850 0.78380 0.13200
C 	C 	0.82500 0.13250 0.76000 -0.23300
C 	C 	0.08370 0.17550 0.78560 0.47200
C 	C 	0.73460 0.01090 0.67960 0.20100
C 	C 	0.67470 0.98510 0.63590 -0.22900
C 	C 	0.67390 0.92520 0.62990 0.12800
C 	C 	0.73730 0.89170 0.66660 -0.20000
C 	C 	0.80230 0.91830 0.70920 0.14200
C 	C 	0.79890 0.97760 0.71460 -0.23900
C 	C 	0.73520 0.82820 0.65910 0.40500
C 	C 	0.64210 0.09790 0.68880 0.20200
C 	C 	0.56950 0.06540 0.70430 -0.24400
C 	C 	0.48600 0.09150 0.70390 0.15100
C 	C 	0.47110 0.14830 0.68790 -0.20500
C 	C 	0.54360 0.17780 0.67220 0.17300
C 	C 	0.62720 0.15430 0.67350 -0.27000
C 	C 	0.37850 0.17600 0.68840 0.38800
C 	C 	0.25650 0.53400 0.60940 0.19100
C 	C 	0.29520 0.51370 0.66320 -0.24100
C 	C 	0.29480 0.45640 0.67660 0.16000
C 	C 	0.25670 0.41670 0.63660 -0.24900
C 	C 	0.21910 0.43550 0.58340 0.15500
C 	C 	0.21950 0.49360 0.56920 -0.24200
C 	C 	0.25410 0.35420 0.65050 0.51300
C 	C 	0.33420 0.62670 0.61730 0.19300
C 	C 	0.33410 0.67790 0.64390 -0.23400
C 	C 	0.41870 0.70670 0.66460 0.12900
C 	C 	0.50370 0.68440 0.65810 -0.19300
C 	C 	0.50390 0.63360 0.63010 0.14900
C 	C 	0.42100 0.60420 0.60920 -0.22800
C 	C 	0.59270 0.71620 0.68350 0.41100
C 	C 	0.16440 0.62040 0.57660 0.23200
C 	C 	0.08410 0.59740 0.58920 -0.27800
C 	C 	0.99710 0.62420 0.56850 0.19900
C 	C 	0.98780 0.67280 0.53820 -0.27100
C 	C 	0.07060 0.69430 0.52560 0.19500
C 	C 	0.15520 0.66870 0.54480 -0.28900
C 	C 	0.89210 0.69740 0.51670 0.48800
C 	C 	0.74390 0.43810 0.00460 0.16600
C 	C 	0.81000 0.47730 0.03610 -0.19700
C 	C 	0.80670 0.53400 0.02220 0.10200
C 	C 	0.74140 0.55610 0.97660 -0.16100
C 	C 	0.67520 0.51750 0.94670 0.09900
C 	C 	0.67670 0.45970 0.95960 -0.19800
C 	C 	0.74390 0.61600 0.96020 0.35500
C 	C 	0.58320 0.36710 0.03000 -0.27900
C 	C 	0.50190 0.33740 0.02010 0.18700
C 	C 	0.49210 0.28740 0.99130 -0.23300
C 	C 	0.56750 0.26570 0.97250 0.15200
C 	C 	0.65100 0.29560 0.98120 -0.24700
C 	C 	0.65570 0.34780 0.00940 0.20800
C 	C 	0.40150 0.25270 0.97690 0.42600
C 	C 	0.83040 0.35050 0.04650 0.17600
C 	C 	0.82590 0.30670 0.08370 -0.21500
C 	C 	0.90650 0.27910 0.11260 0.12600
C 	C 	0.99430 0.29490 0.10610 -0.19100
C 	C 	0.99820 0.33620 0.06570 0.12100
C 	C 	0.91700 0.36410 0.03480 -0.21200
C 	C 	0.08360 0.27200 0.13890 0.42000
C 	C 	0.81550 0.40020 0.21410 0.19000
C 	C 	0.89350 0.40720 0.18960 -0.22500
C 	C 	0.97880 0.38280 0.21180 0.14100
C 	C 	0.98840 0.35010 0.25960 -0.21000
C 	C 	0.91200 0.34150 0.28380 0.13200
C 	C 	0.82500 0.36750 0.26000 -0.23300
C 	C 	0.08370 0.32450 0.28560 0.47300
C 	C 	0.73460 0.48910 0.17960 0.20100
C 	C 	0.67470 0.51490 0.13590 -0.22900
C 	C 	0.67390 0.57480 0.12990 0.12900
C 	C 	0.73730 0.60830 0.16660 -0.20000
C 	C 	0.80230 0.58170 0.20920 0.14200
C 	C 	0.79890 0.52240 0.21460 -0.23900
C 	C 	0.73520 0.67180 0.15910 0.40500
C 	C 	0.64210 0.40210 0.18880 0.20200
C 	C 	0.56950 0.43460 0.20430 -0.24400
C 	C 	0.48600 0.40850 0.20390 0.15100
C 	C 	0.47110 0.35170 0.18790 -0.20500
C 	C 	0.54360 0.32220 0.17220 0.17300
C 	C 	0.62720 0.34570 0.17350 -0.27000
C 	C 	0.37850 0.32400 0.18840 0.38800
C 	C 	0.25650 0.96600 0.10940 0.19100
C 	C 	0.29520 0.98630 0.16320 -0.24200
C 	C 	0.29480 0.04360 0.17660 0.16000
C 	C 	0.25670 0.08330 0.13660 -0.24900
C 	C 	0.21910 0.06450 0.08340 0.15400
C 	C 	0.21950 0.00640 0.06920 -0.24000
C 	C 	0.25410 0.14580 0.15050 0.51300
C 	C 	0.33420 0.87330 0.11730 0.19300
C 	C 	0.33410 0.82210 0.14390 -0.23400
C 	C 	0.41870 0.79330 0.16460 0.12900
C 	C 	0.50370 0.81560 0.15810 -0.19300
C 	C 	0.50390 0.86640 0.13010 0.14900
C 	C 	0.42100 0.89580 0.10920 -0.22800
C 	C 	0.59270 0.78380 0.18350 0.41100
C 	C 	0.16440 0.87960 0.07660 0.23200
C 	C 	0.08410 0.90260 0.08920 -0.27700
C 	C 	0.99710 0.87580 0.06850 0.19800
C 	C 	0.98780 0.82720 0.03820 -0.27200
C 	C 	0.07060 0.80570 0.02560 0.19500
C 	C 	0.15520 0.83130 0.04480 -0.28900
C 	C 	0.89210 0.80260 0.01670 0.48800
C 	C 	0.25610 0.93810 0.49540 0.16600
C 	C 	0.19000 0.97730 0.46390 -0.19800
C 	C 	0.19330 0.03400 0.47780 0.10300
C 	C 	0.25860 0.05610 0.52340 -0.16100
C 	C 	0.32480 0.01750 0.55330 0.10000
C 	C 	0.32330 0.95970 0.54040 -0.19900
C 	C 	0.25610 0.11600 0.53980 0.35600
C 	C 	0.41680 0.86710 0.47000 -0.27900
C 	C 	0.49810 0.83740 0.47990 0.18600
C 	C 	0.50790 0.78740 0.50870 -0.23300
C 	C 	0.43250 0.76570 0.52750 0.15200
C 	C 	0.34900 0.79560 0.51880 -0.24700
C 	C 	0.34430 0.84780 0.49060 0.20800
C 	C 	0.59850 0.75270 0.52310 0.42600
C 	C 	0.16960 0.85050 0.45350 0.17600
C 	C 	0.17410 0.80670 0.41630 -0.21500
C 	C 	0.09350 0.77910 0.38740 0.12600
C 	C 	0.00570 0.79490 0.39390 -0.19100
C 	C 	0.00180 0.83620 0.43430 0.12200
C 	C 	0.08300 0.86410 0.46520 -0.21200
C 	C 	0.91640 0.77200 0.36110 0.42000
C 	C 	0.18450 0.90020 0.28590 0.19000
C 	C 	0.10650 0.90720 0.31040 -0.22500
C 	C 	0.02120 0.88280 0.28820 0.14200
C 	C 	0.01160 0.85010 0.24040 -0.21000
C 	C 	0.08800 0.84150 0.21620 0.13200
C 	C 	0.17500 0.86750 0.24000 -0.23300
C 	C 	0.91630 0.82450 0.21440 0.47200
C 	C 	0.26540 0.98910 0.32040 0.20100
C 	C 	0.32530 0.01490 0.36410 -0.22900
C 	C 	0.32610 0.07480 0.37010 0.12800
C 	C 	0.26270 0.10830 0.33340 -0.20000
C 	C 	0.19770 0.08170 0.29080 0.14200
C 	C 	0.20110 0.02240 0.28540 -0.23900
C 	C 	0.26480 0.17180 0.34090 0.40500
C 	C 	0.35790 0.90210 0.31120 0.20200
C 	C 	0.43050 0.93460 0.29570 -0.24400
C 	C 	0.51400 0.90850 0.29610 0.15100
C 	C 	0.52890 0.85170 0.31210 -0.20500
C 	C 	0.45640 0.82220 0.32780 0.17300
C 	C 	0.37280 0.84570 0.32650 -0.27000
C 	C 	0.62150 0.82400 0.31160 0.38800
C 	C 	0.74350 0.46600 0.39060 0.19100
C 	C 	0.70480 0.48630 0.33680 -0.24100
C 	C 	0.70520 0.54360 0.32340 0.16000
C 	C 	0.74330 0.58330 0.36340 -0.24900
C 	C 	0.78090 0.56450 0.41660 0.15500
C 	C 	0.78050 0.50640 0.43080 -0.24200
C 	C 	0.74590 0.64580 0.34950 0.51300
C 	C 	0.66580 0.37330 0.38270 0.19300
C 	C 	0.66590 0.32210 0.35610 -0.23400
C 	C 	0.58130 0.29330 0.33540 0.12900
C 	C 	0.49630 0.31560 0.34190 -0.19300
C 	C 	0.49610 0.36640 0.36990 0.14900
C 	C 	0.57900 0.39580 0.39080 -0.22800
C 	C 	0.40730 0.28380 0.31650 0.41100
C 	C 	0.83560 0.37960 0.42340 0.23200
C 	C 	0.91590 0.40260 0.41080 -0.27800
C 	C 	0.00290 0.37580 0.43150 0.19900
C 	C 	0.01220 0.32720 0.46180 -0.27100
C 	C 	0.92940 0.30570 0.47440 0.19500
C 	C 	0.84480 0.33130 0.45520 -0.28900
C 	C 	0.10790 0.30260 0.48330 0.48800
N 	N 	0.25450 0.62030 0.98090 -0.19300
N 	N 	0.74710 0.09430 0.90270 -0.21100
N 	N 	0.26990 0.57050 0.81110 -0.20400
N 	N 	0.74550 0.12030 0.51910 -0.19300
N 	N 	0.25290 0.59430 0.59730 -0.21100
N 	N 	0.73010 0.07050 0.68890 -0.20400
N 	N 	0.74550 0.37970 0.01910 -0.19300
N 	N 	0.25290 0.90570 0.09730 -0.21100
N 	N 	0.73010 0.42950 0.18890 -0.20400
N 	N 	0.25450 0.87970 0.48090 -0.19300
N 	N 	0.74710 0.40570 0.40270 -0.21100
N 	N 	0.26990 0.92950 0.31110 -0.20400
O 	O 	0.19120 0.35100 0.01470 -0.41000
O 	O 	0.31770 0.36410 0.07990 -0.43500
O 	O 	0.66990 0.72660 0.00800 -0.57000
O 	O 	0.60420 0.79150 0.05120 -0.48200
O 	O 	0.83840 0.70780 0.86610 -0.57700
O 	O 	0.92000 0.76400 0.82370 -0.43600
O 	O 	0.85680 0.67610 0.74350 -0.53100
O 	O 	0.90510 0.69460 0.66530 -0.52900
O 	O 	0.21030 0.29690 0.80410 -0.54700
O 	O 	0.31850 0.30620 0.88100 -0.45900
O 	O 	0.64320 0.72490 0.83490 -0.57900
O 	O 	0.67500 0.65290 0.78330 -0.42400
O 	O 	0.76680 0.82090 0.89050 -0.56100
O 	O 	0.72880 0.83810 0.80090 -0.51800
O 	O 	0.40610 0.25550 0.78240 -0.44300
O 	O 	0.32980 0.19550 0.82550 -0.54400
O 	O 	0.17540 0.18210 0.96490 -0.58200
O 	O 	0.11210 0.23550 0.02070 -0.49000
O 	O 	0.80880 0.85100 0.48530 -0.41000
O 	O 	0.68230 0.86410 0.42010 -0.43500
O 	O 	0.33010 0.22660 0.49200 -0.57000
O 	O 	0.39580 0.29150 0.44880 -0.48200
O 	O 	0.16160 0.20780 0.63390 -0.57700
O 	O 	0.08000 0.26400 0.67630 -0.43600
O 	O 	0.14320 0.17610 0.75650 -0.53100
O 	O 	0.09490 0.19460 0.83470 -0.53000
O 	O 	0.78970 0.79690 0.69590 -0.54700
O 	O 	0.68150 0.80620 0.61900 -0.45900
O 	O 	0.35680 0.22490 0.66510 -0.57900
O 	O 	0.32500 0.15290 0.71670 -0.42500
O 	O 	0.23320 0.32090 0.60950 -0.56100
O 	O 	0.27120 0.33810 0.69910 -0.51800
O 	O 	0.59390 0.75550 0.71760 -0.44300
O 	O 	0.67020 0.69550 0.67450 -0.54400
O 	O 	0.82460 0.68210 0.53510 -0.58200
O 	O 	0.88790 0.73550 0.47930 -0.49000
O 	O 	0.80880 0.64900 0.98530 -0.41000
O 	O 	0.68230 0.63590 0.92010 -0.43500
O 	O 	0.33010 0.27340 0.99200 -0.57000
O 	O 	0.39580 0.20850 0.94880 -0.48200
O 	O 	0.16160 0.29220 0.13390 -0.57700
O 	O 	0.08000 0.23600 0.17630 -0.43600
O 	O 	0.14320 0.32390 0.25650 -0.53100
O 	O 	0.09490 0.30540 0.33470 -0.52900
O 	O 	0.78970 0.70310 0.19590 -0.54700
O 	O 	0.68150 0.69380 0.11900 -0.45900
O 	O 	0.35680 0.27510 0.16510 -0.57900
O 	O 	0.32500 0.34710 0.21670 -0.42400
O 	O 	0.23320 0.17910 0.10950 -0.56100
O 	O 	0.27120 0.16190 0.19910 -0.51800
O 	O 	0.59390 0.74450 0.21760 -0.44300
O 	O 	0.67020 0.80450 0.17450 -0.54400
O 	O 	0.82460 0.81790 0.03510 -0.58200
O 	O 	0.88790 0.76450 0.97930 -0.49000
O 	O 	0.19120 0.14900 0.51470 -0.41000
O 	O 	0.31770 0.13590 0.57990 -0.43500
O 	O 	0.66990 0.77340 0.50800 -0.57000
O 	O 	0.60420 0.70850 0.55120 -0.48200
O 	O 	0.83840 0.79220 0.36610 -0.57700
O 	O 	0.92000 0.73600 0.32370 -0.43600
O 	O 	0.85680 0.82390 0.24350 -0.53100
O 	O 	0.90510 0.80540 0.16530 -0.53000
O 	O 	0.21030 0.20310 0.30410 -0.54700
O 	O 	0.31850 0.19380 0.38100 -0.45900
O 	O 	0.64320 0.77510 0.33490 -0.57900
O 	O 	0.67500 0.84710 0.28330 -0.42500
O 	O 	0.76680 0.67910 0.39050 -0.56100
O 	O 	0.72880 0.66190 0.30090 -0.51800
O 	O 	0.40610 0.24450 0.28240 -0.44300
O 	O 	0.32980 0.30450 0.32550 -0.54400
O 	O 	0.17540 0.31790 0.46490 -0.58200
O 	O 	0.11210 0.26450 0.52070 -0.49000
