data_crystal

_cell_length_a 16.63070
_cell_length_b 16.63070
_cell_length_c 16.30710
_cell_angle_alpha 90.00000
_cell_angle_beta  90.00000
_cell_angle_gamma 90.00000

_symmetry_space_group_name_	'P 1'
_symmetry_space_group_name_H-M	'P 1'

loop_
_symmetry_equiv_pos_as_xyz
  x,y,z

loop_
_atom_site_label
_atom_site_type_symbol
_atom_site_fract_x
_atom_site_fract_y
_atom_site_fract_z
_atom_site_charge
C 	C 	0.92340 0.42820 0.63769 0.40100
C 	C 	0.87930 0.39020 0.56739 -0.20500
C 	C 	0.90100 0.31610 0.53690 0.14000
H 	H 	0.94420 0.28900 0.56030 0.00100
C 	C 	0.85990 0.28110 0.47230 -0.24900
H 	H 	0.87490 0.23090 0.45250 0.12300
C 	C 	0.79540 0.32280 0.43720 0.21200
C 	C 	0.77420 0.39640 0.46860 -0.26600
H 	H 	0.73110 0.42410 0.44570 0.12500
C 	C 	0.81460 0.42900 0.53180 0.15600
H 	H 	0.79860 0.47870 0.55210 -0.01000
H 	H 	0.71520 0.24990 0.40140 0.13400
O 	O 	0.89522 0.49304 0.66360 -0.42900
O 	O 	0.98429 0.39378 0.66603 -0.41500
C 	C 	0.42340 0.92820 0.13769 0.36500
C 	C 	0.37930 0.89020 0.06739 -0.11200
C 	C 	0.40100 0.81610 0.03690 0.00000
H 	H 	0.44420 0.78900 0.06030 0.04100
C 	C 	0.35990 0.78110 0.97230 -0.11300
H 	H 	0.37490 0.73090 0.95250 0.08400
C 	C 	0.29540 0.82280 0.93720 0.13000
C 	C 	0.27420 0.89640 0.96860 -0.11600
H 	H 	0.23110 0.92410 0.94570 0.08200
C 	C 	0.31460 0.92900 0.03180 0.00400
H 	H 	0.29860 0.97870 0.05210 0.03400
H 	H 	0.21520 0.74990 0.90140 0.13700
O 	O 	0.39522 0.99304 0.16360 -0.42400
O 	O 	0.48429 0.89378 0.16603 -0.41000
C 	C 	0.57660 0.07180 0.13769 0.36500
C 	C 	0.62070 0.10980 0.06739 -0.11200
C 	C 	0.59900 0.18390 0.03690 0.00000
H 	H 	0.55580 0.21100 0.06030 0.04100
C 	C 	0.64010 0.21890 0.97230 -0.11300
H 	H 	0.62510 0.26910 0.95250 0.08400
C 	C 	0.70460 0.17720 0.93720 0.13000
C 	C 	0.72580 0.10360 0.96860 -0.11600
H 	H 	0.76890 0.07590 0.94570 0.08200
C 	C 	0.68540 0.07100 0.03180 0.00400
H 	H 	0.70140 0.02130 0.05210 0.03400
H 	H 	0.78480 0.25010 0.90140 0.13700
O 	O 	0.60478 0.00696 0.16360 -0.42400
O 	O 	0.51571 0.10622 0.16603 -0.41000
C 	C 	0.07660 0.57180 0.63769 0.40000
C 	C 	0.12070 0.60980 0.56739 -0.20600
C 	C 	0.09900 0.68390 0.53690 0.13900
H 	H 	0.05580 0.71100 0.56030 0.00000
C 	C 	0.14010 0.71890 0.47230 -0.25000
H 	H 	0.12510 0.76910 0.45250 0.12200
C 	C 	0.20460 0.67720 0.43720 0.21100
C 	C 	0.22580 0.60360 0.46860 -0.26700
H 	H 	0.26890 0.57590 0.44570 0.12400
C 	C 	0.18540 0.57100 0.53180 0.15500
H 	H 	0.20140 0.52130 0.55210 -0.01000
H 	H 	0.28480 0.75010 0.40140 0.13400
O 	O 	0.10478 0.50696 0.66360 -0.42900
O 	O 	0.01571 0.60622 0.66603 -0.41500
C 	C 	0.57180 0.42340 0.88769 0.39800
C 	C 	0.60980 0.37930 0.81739 -0.19900
C 	C 	0.68390 0.40100 0.78690 0.13500
H 	H 	0.71100 0.44420 0.81030 0.00400
C 	C 	0.71890 0.35990 0.72230 -0.24700
H 	H 	0.76910 0.37490 0.70250 0.12100
C 	C 	0.67720 0.29540 0.68720 0.20900
C 	C 	0.60360 0.27420 0.71860 -0.26300
H 	H 	0.57590 0.23110 0.69570 0.12400
C 	C 	0.57100 0.31460 0.78180 0.15200
H 	H 	0.52130 0.29860 0.80210 -0.00600
H 	H 	0.75010 0.21520 0.65140 0.13400
O 	O 	0.50696 0.39522 0.91360 -0.41400
O 	O 	0.60622 0.48429 0.91603 -0.40100
C 	C 	0.07180 0.92340 0.38769 0.40100
C 	C 	0.10980 0.87930 0.31739 -0.20800
C 	C 	0.18390 0.90100 0.28690 0.14000
H 	H 	0.21100 0.94420 0.31030 -0.00100
C 	C 	0.21890 0.85990 0.22230 -0.25400
H 	H 	0.26910 0.87490 0.20250 0.12300
C 	C 	0.17720 0.79540 0.18720 0.21200
C 	C 	0.10360 0.77420 0.21860 -0.27100
H 	H 	0.07590 0.73110 0.19570 0.12200
C 	C 	0.07100 0.81460 0.28180 0.15700
H 	H 	0.02130 0.79860 0.30210 -0.01200
H 	H 	0.25010 0.71520 0.15140 0.13500
O 	O 	0.00696 0.89522 0.41360 -0.42900
O 	O 	0.10622 0.98429 0.41603 -0.41500
C 	C 	0.92820 0.07660 0.38769 0.40100
C 	C 	0.89020 0.12070 0.31739 -0.20800
C 	C 	0.81610 0.09900 0.28690 0.14000
H 	H 	0.78900 0.05580 0.31030 -0.00100
C 	C 	0.78110 0.14010 0.22230 -0.25400
H 	H 	0.73090 0.12510 0.20250 0.12300
C 	C 	0.82280 0.20460 0.18720 0.21200
C 	C 	0.89640 0.22580 0.21860 -0.27100
H 	H 	0.92410 0.26890 0.19570 0.12200
C 	C 	0.92900 0.18540 0.28180 0.15700
H 	H 	0.97870 0.20140 0.30210 -0.01200
H 	H 	0.74990 0.28480 0.15140 0.13500
O 	O 	0.99304 0.10478 0.41360 -0.42900
O 	O 	0.89378 0.01571 0.41603 -0.41500
C 	C 	0.42820 0.57660 0.88769 0.39800
C 	C 	0.39020 0.62070 0.81739 -0.19900
C 	C 	0.31610 0.59900 0.78690 0.13500
H 	H 	0.28900 0.55580 0.81030 0.00400
C 	C 	0.28110 0.64010 0.72230 -0.24700
H 	H 	0.23090 0.62510 0.70250 0.12100
C 	C 	0.32280 0.70460 0.68720 0.20900
C 	C 	0.39640 0.72580 0.71860 -0.26300
H 	H 	0.42410 0.76890 0.69570 0.12400
C 	C 	0.42900 0.68540 0.78180 0.15200
H 	H 	0.47870 0.70140 0.80210 -0.00600
H 	H 	0.24990 0.78480 0.65140 0.13400
O 	O 	0.49304 0.60478 0.91360 -0.41400
O 	O 	0.39378 0.51571 0.91603 -0.40100
C 	C 	0.57660 0.42820 0.11231 0.40200
C 	C 	0.62070 0.39020 0.18261 -0.21200
C 	C 	0.59900 0.31610 0.21310 0.14300
H 	H 	0.55580 0.28900 0.18970 -0.00400
C 	C 	0.64010 0.28110 0.27770 -0.25400
H 	H 	0.62510 0.23090 0.29750 0.12300
C 	C 	0.70460 0.32280 0.31280 0.21300
C 	C 	0.72580 0.39640 0.28140 -0.27000
H 	H 	0.76890 0.42410 0.30430 0.12400
C 	C 	0.68540 0.42900 0.21820 0.15900
H 	H 	0.70140 0.47870 0.19790 -0.01400
H 	H 	0.78480 0.24990 0.34860 0.13400
O 	O 	0.60478 0.49304 0.08640 -0.43800
O 	O 	0.51571 0.39378 0.08397 -0.42500
C 	C 	0.07660 0.92820 0.61231 0.40000
C 	C 	0.12070 0.89020 0.68261 -0.20300
C 	C 	0.09900 0.81610 0.71310 0.13800
H 	H 	0.05580 0.78900 0.68970 0.00100
C 	C 	0.14010 0.78110 0.77770 -0.24600
H 	H 	0.12510 0.73090 0.79750 0.12200
C 	C 	0.20460 0.82280 0.81280 0.21000
C 	C 	0.22580 0.89640 0.78140 -0.26100
H 	H 	0.26890 0.92410 0.80430 0.12600
C 	C 	0.18540 0.92900 0.71820 0.15400
H 	H 	0.20140 0.97870 0.69790 -0.00800
H 	H 	0.28480 0.74990 0.84860 0.13300
O 	O 	0.10478 0.99304 0.58640 -0.42700
O 	O 	0.01571 0.89378 0.58397 -0.41400
C 	C 	0.92340 0.07180 0.61231 0.40000
C 	C 	0.87930 0.10980 0.68261 -0.20300
C 	C 	0.90100 0.18390 0.71310 0.13800
H 	H 	0.94420 0.21100 0.68970 0.00100
C 	C 	0.85990 0.21890 0.77770 -0.24600
H 	H 	0.87490 0.26910 0.79750 0.12200
C 	C 	0.79540 0.17720 0.81280 0.21000
C 	C 	0.77420 0.10360 0.78140 -0.26100
H 	H 	0.73110 0.07590 0.80430 0.12600
C 	C 	0.81460 0.07100 0.71820 0.15400
H 	H 	0.79860 0.02130 0.69790 -0.00800
H 	H 	0.71520 0.25010 0.84860 0.13300
O 	O 	0.89522 0.00696 0.58640 -0.42700
O 	O 	0.98429 0.10622 0.58397 -0.41400
C 	C 	0.42340 0.57180 0.11231 0.40200
C 	C 	0.37930 0.60980 0.18261 -0.21200
C 	C 	0.40100 0.68390 0.21310 0.14300
H 	H 	0.44420 0.71100 0.18970 -0.00400
C 	C 	0.35990 0.71890 0.27770 -0.25400
H 	H 	0.37490 0.76910 0.29750 0.12300
C 	C 	0.29540 0.67720 0.31280 0.21300
C 	C 	0.27420 0.60360 0.28140 -0.27000
H 	H 	0.23110 0.57590 0.30430 0.12400
C 	C 	0.31460 0.57100 0.21820 0.15900
H 	H 	0.29860 0.52130 0.19790 -0.01400
H 	H 	0.21520 0.75010 0.34860 0.13400
O 	O 	0.39522 0.50696 0.08640 -0.43800
O 	O 	0.48429 0.60622 0.08397 -0.42500
C 	C 	0.92820 0.42340 0.86231 0.43700
C 	C 	0.89020 0.37930 0.93261 -0.30000
C 	C 	0.81610 0.40100 0.96310 0.27900
H 	H 	0.78900 0.44420 0.93970 -0.04100
C 	C 	0.78110 0.35990 0.02770 -0.38800
H 	H 	0.73090 0.37490 0.04750 0.16200
C 	C 	0.82280 0.29540 0.06280 0.29300
C 	C 	0.89640 0.27420 0.03140 -0.41700
H 	H 	0.92410 0.23110 0.05430 0.16700
C 	C 	0.92900 0.31460 0.96820 0.30700
H 	H 	0.97870 0.29860 0.94790 -0.05400
H 	H 	0.74990 0.21520 0.09860 0.13100
O 	O 	0.99304 0.39522 0.83640 -0.43500
O 	O 	0.89378 0.48429 0.83397 -0.42300
C 	C 	0.42820 0.92340 0.36231 0.40200
C 	C 	0.39020 0.87930 0.43261 -0.20700
C 	C 	0.31610 0.90100 0.46310 0.14000
H 	H 	0.28900 0.94420 0.43970 -0.00000
C 	C 	0.28110 0.85990 0.52770 -0.25100
H 	H 	0.23090 0.87490 0.54750 0.12300
C 	C 	0.32280 0.79540 0.56280 0.21200
C 	C 	0.39640 0.77420 0.53140 -0.26700
H 	H 	0.42410 0.73110 0.55430 0.12400
C 	C 	0.42900 0.81460 0.46820 0.15600
H 	H 	0.47870 0.79860 0.44790 -0.01100
H 	H 	0.24990 0.71520 0.59860 0.13400
O 	O 	0.49304 0.89522 0.33640 -0.43100
O 	O 	0.39378 0.98429 0.33397 -0.41700
C 	C 	0.57180 0.07660 0.36231 0.40200
C 	C 	0.60980 0.12070 0.43261 -0.20700
C 	C 	0.68390 0.09900 0.46310 0.14000
H 	H 	0.71100 0.05580 0.43970 -0.00000
C 	C 	0.71890 0.14010 0.52770 -0.25100
H 	H 	0.76910 0.12510 0.54750 0.12300
C 	C 	0.67720 0.20460 0.56280 0.21200
C 	C 	0.60360 0.22580 0.53140 -0.26700
H 	H 	0.57590 0.26890 0.55430 0.12400
C 	C 	0.57100 0.18540 0.46820 0.15600
H 	H 	0.52130 0.20140 0.44790 -0.01100
H 	H 	0.75010 0.28480 0.59860 0.13400
O 	O 	0.50696 0.10478 0.33640 -0.43100
O 	O 	0.60622 0.01571 0.33397 -0.41700
C 	C 	0.07180 0.57660 0.86231 0.43700
C 	C 	0.10980 0.62070 0.93261 -0.30000
C 	C 	0.18390 0.59900 0.96310 0.27900
H 	H 	0.21100 0.55580 0.93970 -0.04100
C 	C 	0.21890 0.64010 0.02770 -0.38800
H 	H 	0.26910 0.62510 0.04750 0.16200
C 	C 	0.17720 0.70460 0.06280 0.29300
C 	C 	0.10360 0.72580 0.03140 -0.41700
H 	H 	0.07590 0.76890 0.05430 0.16700
C 	C 	0.07100 0.68540 0.96820 0.30700
H 	H 	0.02130 0.70140 0.94790 -0.05400
H 	H 	0.25010 0.78480 0.09860 0.13100
O 	O 	0.00696 0.60478 0.83640 -0.43500
O 	O 	0.10622 0.51571 0.83397 -0.42300
Cu	Cu	0.94413 0.55587 0.75000 0.90500
Cu	Cu	0.55587 0.94413 0.25000 0.90200
Cu	Cu	0.44413 0.44413 -0.00000 0.89000
Cu	Cu	0.05587 0.05587 0.50000 0.90000
Cu	Cu	0.55587 0.55587 -0.00000 0.89000
Cu	Cu	0.94413 0.94413 0.50000 0.90000
Cu	Cu	0.05587 0.44413 0.75000 0.90500
Cu	Cu	0.44413 0.05587 0.25000 0.90200
N 	N 	0.75000 0.28240 0.37500 -0.32300
N 	N 	0.25000 0.78240 0.87500 -0.30800
N 	N 	0.75000 0.21760 0.87500 -0.30800
N 	N 	0.25000 0.71760 0.37500 -0.32300
N 	N 	0.71760 0.25000 0.62500 -0.32200
N 	N 	0.21760 0.75000 0.12500 -0.33700
N 	N 	0.78240 0.25000 0.12500 -0.33700
N 	N 	0.28240 0.75000 0.62500 -0.32200
