data_crystal

_cell_length_a 14.26800
_cell_length_b 15.72100
_cell_length_c 16.01700
_cell_angle_alpha 90.00000
_cell_angle_beta  90.00000
_cell_angle_gamma 90.00000

_symmetry_space_group_name_	'P 1'
_symmetry_space_group_name_H-M	'P 1'

loop_
_symmetry_equiv_pos_as_xyz
  x,y,z

loop_
_atom_site_label
_atom_site_type_symbol
_atom_site_fract_x
_atom_site_fract_y
_atom_site_fract_z
_atom_site_charge
Cd	Cd	0.12518 0.01931 0.54364 1.22300
Cd	Cd	0.39416 0.93485 0.54087 1.23100
Cd	Cd	0.37482 0.51931 0.45636 1.22500
Cd	Cd	0.10584 0.43485 0.45913 1.23000
Cd	Cd	0.87482 0.98069 0.04364 1.22200
Cd	Cd	0.60584 0.06515 0.04087 1.22900
Cd	Cd	0.62518 0.48069 0.95636 1.22400
Cd	Cd	0.89416 0.56515 0.95913 1.22900
Cd	Cd	0.87482 0.98069 0.45636 1.22200
Cd	Cd	0.60584 0.06515 0.45913 1.23000
Cd	Cd	0.62518 0.48069 0.54364 1.22400
Cd	Cd	0.89416 0.56515 0.54087 1.22900
Cd	Cd	0.12518 0.01931 0.95636 1.22200
Cd	Cd	0.39416 0.93485 0.95913 1.22900
Cd	Cd	0.37482 0.51931 0.04364 1.22400
Cd	Cd	0.10584 0.43485 0.04087 1.22900
Cd	Cd	0.73642 0.03685 0.75000 1.22400
Cd	Cd	0.76358 0.53685 0.25000 1.22300
Cd	Cd	0.26358 0.96315 0.25000 1.22400
Cd	Cd	0.23642 0.46315 0.75000 1.22300
H 	H 	0.02690 0.22300 0.51630 -0.00400
H 	H 	0.47310 0.72300 0.48370 -0.00200
H 	H 	0.97310 0.77700 0.01630 -0.00400
H 	H 	0.52690 0.27700 0.98370 -0.00200
H 	H 	0.97310 0.77700 0.48370 -0.00400
H 	H 	0.52690 0.27700 0.51630 -0.00200
H 	H 	0.02690 0.22300 0.98370 -0.00400
H 	H 	0.47310 0.72300 0.01630 -0.00200
H 	H 	0.32440 0.88550 0.75000 -0.02300
H 	H 	0.20520 0.01880 0.75000 -0.04100
H 	H 	0.17560 0.38550 0.25000 -0.02300
H 	H 	0.29480 0.51880 0.25000 -0.04100
H 	H 	0.67560 0.11450 0.25000 -0.02300
H 	H 	0.79480 0.98120 0.25000 -0.04100
H 	H 	0.82440 0.61450 0.75000 -0.02300
H 	H 	0.70520 0.48120 0.75000 -0.04100
C 	C 	0.09050 0.22420 0.50390 0.10000
C 	C 	0.23250 0.18360 0.48520 -0.03600
C 	C 	0.22640 0.26950 0.46620 -0.04200
C 	C 	0.31220 0.12440 0.48450 0.31200
C 	C 	0.29870 0.33200 0.44250 0.31800
C 	C 	0.49170 0.99620 0.70650 -0.06800
C 	C 	0.55140 0.03900 0.64250 0.36900
C 	C 	0.99940 0.02170 0.70630 -0.05800
C 	C 	0.92530 0.02080 0.64070 0.37300
C 	C 	0.40950 0.72420 0.49610 0.10000
C 	C 	0.26750 0.68360 0.51480 -0.03500
C 	C 	0.27360 0.76950 0.53380 -0.04100
C 	C 	0.18780 0.62440 0.51550 0.31200
C 	C 	0.20130 0.83200 0.55750 0.31700
C 	C 	0.00830 0.49620 0.29350 -0.06800
C 	C 	0.94860 0.53900 0.35750 0.36700
C 	C 	0.50060 0.52170 0.29370 -0.06400
C 	C 	0.57470 0.52080 0.35930 0.37400
C 	C 	0.90950 0.77580 0.00390 0.10100
C 	C 	0.76750 0.81640 0.98520 -0.03700
C 	C 	0.77360 0.73050 0.96620 -0.04200
C 	C 	0.68780 0.87560 0.98450 0.30900
C 	C 	0.70130 0.66800 0.94250 0.31800
C 	C 	0.50830 0.00380 0.20650 -0.06900
C 	C 	0.44860 0.96100 0.14250 0.36900
C 	C 	0.00060 0.97830 0.20630 -0.05800
C 	C 	0.07470 0.97920 0.14070 0.37300
C 	C 	0.59050 0.27580 0.99610 0.10200
C 	C 	0.73250 0.31640 0.01480 -0.03600
C 	C 	0.72640 0.23050 0.03380 -0.04100
C 	C 	0.81220 0.37560 0.01550 0.31200
C 	C 	0.79870 0.16800 0.05750 0.31800
C 	C 	0.99170 0.50380 0.79350 -0.06800
C 	C 	0.05140 0.46100 0.85750 0.36700
C 	C 	0.49940 0.47830 0.79370 -0.06400
C 	C 	0.42530 0.47920 0.85930 0.37400
C 	C 	0.90950 0.77580 0.49610 0.10000
C 	C 	0.76750 0.81640 0.51480 -0.03600
C 	C 	0.77360 0.73050 0.53380 -0.04200
C 	C 	0.68780 0.87560 0.51550 0.31200
C 	C 	0.70130 0.66800 0.55750 0.31800
C 	C 	0.50830 0.00380 0.29350 -0.06800
C 	C 	0.44860 0.96100 0.35750 0.36900
C 	C 	0.00060 0.97830 0.29370 -0.05800
C 	C 	0.07470 0.97920 0.35930 0.37300
C 	C 	0.59050 0.27580 0.50390 0.10000
C 	C 	0.73250 0.31640 0.48520 -0.03500
C 	C 	0.72640 0.23050 0.46620 -0.04100
C 	C 	0.81220 0.37560 0.48450 0.31200
C 	C 	0.79870 0.16800 0.44250 0.31700
C 	C 	0.99170 0.50380 0.70650 -0.06800
C 	C 	0.05140 0.46100 0.64250 0.36700
C 	C 	0.49940 0.47830 0.70630 -0.06400
C 	C 	0.42530 0.47920 0.64070 0.37400
C 	C 	0.09050 0.22420 0.99610 0.10100
C 	C 	0.23250 0.18360 0.01480 -0.03700
C 	C 	0.22640 0.26950 0.03380 -0.04200
C 	C 	0.31220 0.12440 0.01550 0.30900
C 	C 	0.29870 0.33200 0.05750 0.31800
C 	C 	0.49170 0.99620 0.79350 -0.06900
C 	C 	0.55140 0.03900 0.85750 0.36900
C 	C 	0.99940 0.02170 0.79370 -0.05800
C 	C 	0.92530 0.02080 0.85930 0.37300
C 	C 	0.40950 0.72420 0.00390 0.10200
C 	C 	0.26750 0.68360 0.98520 -0.03600
C 	C 	0.27360 0.76950 0.96620 -0.04100
C 	C 	0.18780 0.62440 0.98450 0.31200
C 	C 	0.20130 0.83200 0.94250 0.31800
C 	C 	0.00830 0.49620 0.20650 -0.06800
C 	C 	0.94860 0.53900 0.14250 0.36700
C 	C 	0.50060 0.52170 0.20630 -0.06400
C 	C 	0.57470 0.52080 0.14070 0.37400
C 	C 	0.37690 0.92060 0.75000 0.10400
C 	C 	0.14000 0.02050 0.75000 0.11400
C 	C 	0.12310 0.42060 0.25000 0.10300
C 	C 	0.36000 0.52050 0.25000 0.11500
C 	C 	0.62310 0.07940 0.25000 0.10400
C 	C 	0.86000 0.97950 0.25000 0.11400
C 	C 	0.87690 0.57940 0.75000 0.10300
C 	C 	0.64000 0.47950 0.75000 0.11500
N 	N 	0.13610 0.29490 0.47930 -0.21900
N 	N 	0.14570 0.15580 0.50850 -0.23100
N 	N 	0.09040 0.02180 0.68040 -0.23100
N 	N 	0.41760 0.94780 0.67980 -0.21900
N 	N 	0.36390 0.79490 0.52070 -0.21800
N 	N 	0.35430 0.65580 0.49150 -0.23000
N 	N 	0.40960 0.52180 0.31960 -0.22700
N 	N 	0.08240 0.44780 0.32020 -0.21900
N 	N 	0.86390 0.70510 0.97930 -0.22000
N 	N 	0.85430 0.84420 0.00850 -0.23000
N 	N 	0.90960 0.97820 0.18040 -0.23100
N 	N 	0.58240 0.05220 0.17980 -0.21900
N 	N 	0.63610 0.20510 0.02070 -0.21900
N 	N 	0.64570 0.34420 0.99150 -0.23000
N 	N 	0.59040 0.47820 0.81960 -0.22700
N 	N 	0.91760 0.55220 0.82020 -0.21900
N 	N 	0.86390 0.70510 0.52070 -0.21900
N 	N 	0.85430 0.84420 0.49150 -0.23100
N 	N 	0.90960 0.97820 0.31960 -0.23100
N 	N 	0.58240 0.05220 0.32020 -0.21900
N 	N 	0.63610 0.20510 0.47930 -0.21800
N 	N 	0.64570 0.34420 0.50850 -0.23000
N 	N 	0.59040 0.47820 0.68040 -0.22700
N 	N 	0.91760 0.55220 0.67980 -0.21900
N 	N 	0.13610 0.29490 0.02070 -0.22000
N 	N 	0.14570 0.15580 0.99150 -0.23000
N 	N 	0.09040 0.02180 0.81960 -0.23100
N 	N 	0.41760 0.94780 0.82020 -0.21900
N 	N 	0.36390 0.79490 0.97930 -0.21900
N 	N 	0.35430 0.65580 0.00850 -0.23000
N 	N 	0.40960 0.52180 0.18040 -0.22700
N 	N 	0.08240 0.44780 0.17980 -0.21900
O 	O 	0.27450 0.40710 0.43680 -0.50300
O 	O 	0.38160 0.30570 0.43090 -0.26900
O 	O 	0.39210 0.15070 0.45640 -0.27900
O 	O 	0.29870 0.05190 0.51130 -0.47800
O 	O 	0.84200 0.00860 0.65560 -0.48300
O 	O 	0.95530 0.02920 0.56710 -0.51600
O 	O 	0.51560 0.04000 0.57090 -0.50100
O 	O 	0.62870 0.07000 0.65730 -0.47700
O 	O 	0.22550 0.90710 0.56320 -0.50100
O 	O 	0.11840 0.80570 0.56910 -0.26800
O 	O 	0.10790 0.65070 0.54360 -0.27800
O 	O 	0.20130 0.55190 0.48870 -0.47700
O 	O 	0.65800 0.50860 0.34440 -0.48600
O 	O 	0.54470 0.52920 0.43290 -0.51900
O 	O 	0.98440 0.54000 0.42910 -0.50200
O 	O 	0.87130 0.57000 0.34270 -0.47800
O 	O 	0.72550 0.59290 0.93680 -0.50300
O 	O 	0.61840 0.69430 0.93090 -0.26900
O 	O 	0.60790 0.84930 0.95640 -0.27900
O 	O 	0.70130 0.94810 0.01130 -0.47500
O 	O 	0.15800 0.99140 0.15560 -0.48300
O 	O 	0.04470 0.97080 0.06710 -0.51500
O 	O 	0.48440 0.96000 0.07090 -0.50000
O 	O 	0.37130 0.93000 0.15730 -0.47700
O 	O 	0.77450 0.09290 0.06320 -0.50200
O 	O 	0.88160 0.19430 0.06910 -0.26800
O 	O 	0.89210 0.34930 0.04360 -0.27800
O 	O 	0.79870 0.44810 0.98870 -0.47600
O 	O 	0.34200 0.49140 0.84440 -0.48500
O 	O 	0.45530 0.47080 0.93290 -0.51900
O 	O 	0.01560 0.46000 0.92910 -0.50100
O 	O 	0.12870 0.43000 0.84270 -0.47800
O 	O 	0.72550 0.59290 0.56320 -0.50300
O 	O 	0.61840 0.69430 0.56910 -0.26900
O 	O 	0.60790 0.84930 0.54360 -0.27900
O 	O 	0.70130 0.94810 0.48870 -0.47800
O 	O 	0.15800 0.99140 0.34440 -0.48300
O 	O 	0.04470 0.97080 0.43290 -0.51600
O 	O 	0.48440 0.96000 0.42910 -0.50100
O 	O 	0.37130 0.93000 0.34270 -0.47700
O 	O 	0.77450 0.09290 0.43680 -0.50100
O 	O 	0.88160 0.19430 0.43090 -0.26800
O 	O 	0.89210 0.34930 0.45640 -0.27800
O 	O 	0.79870 0.44810 0.51130 -0.47700
O 	O 	0.34200 0.49140 0.65560 -0.48600
O 	O 	0.45530 0.47080 0.56710 -0.51900
O 	O 	0.01560 0.46000 0.57090 -0.50200
O 	O 	0.12870 0.43000 0.65730 -0.47800
O 	O 	0.27450 0.40710 0.06320 -0.50300
O 	O 	0.38160 0.30570 0.06910 -0.26900
O 	O 	0.39210 0.15070 0.04360 -0.27900
O 	O 	0.29870 0.05190 0.98870 -0.47500
O 	O 	0.84200 0.00860 0.84440 -0.48300
O 	O 	0.95530 0.02920 0.93290 -0.51500
O 	O 	0.51560 0.04000 0.92910 -0.50000
O 	O 	0.62870 0.07000 0.84270 -0.47700
O 	O 	0.22550 0.90710 0.93680 -0.50200
O 	O 	0.11840 0.80570 0.93090 -0.26800
O 	O 	0.10790 0.65070 0.95640 -0.27800
O 	O 	0.20130 0.55190 0.01130 -0.47600
O 	O 	0.65800 0.50860 0.15560 -0.48500
O 	O 	0.54470 0.52920 0.06710 -0.51900
O 	O 	0.98440 0.54000 0.07090 -0.50100
O 	O 	0.87130 0.57000 0.15730 -0.47800
