data_crystal

_cell_length_a 8.58320
_cell_length_b 8.58320
_cell_length_c 52.61000
_cell_angle_alpha 90.00000
_cell_angle_beta  90.00000
_cell_angle_gamma 120.00000

_symmetry_space_group_name_	'P 1'
_symmetry_space_group_name_H-M	'P 1'

loop_
_symmetry_equiv_pos_as_xyz
  x,y,z

loop_
_atom_site_label
_atom_site_type_symbol
_atom_site_fract_x
_atom_site_fract_y
_atom_site_fract_z
_atom_site_charge
Zn	Zn	0.96943 0.70358 0.00999 1.21800
P 	P 	0.98500 0.94560 0.96105 0.50600
P 	P 	0.63180 0.30450 0.00363 0.54600
O 	O 	0.96420 0.87980 0.93314 -0.25700
O 	O 	0.81630 0.94040 0.96952 -0.44100
O 	O 	0.76460 0.47470 0.01719 -0.44900
O 	O 	0.50750 0.16710 0.02531 -0.38900
H 	H 	0.39600 0.15500 0.02370 0.20100
O 	O 	0.51080 0.33470 0.98548 -0.42100
O 	O 	0.72330 0.21730 0.98964 -0.43900
O 	O 	0.14900 0.13620 0.96213 -0.41600
O 	O 	0.01800 0.81400 0.97651 -0.41600
Zn	Zn	0.29642 0.26585 0.67666 1.23500
P 	P 	0.05440 0.03940 0.62772 0.53100
P 	P 	0.69550 0.32730 0.67030 0.54700
O 	O 	0.12020 0.08440 0.59981 -0.24400
O 	O 	0.05960 0.87590 0.63619 -0.50000
O 	O 	0.52530 0.28990 0.68386 -0.43100
O 	O 	0.83290 0.34040 0.69198 -0.36100
H 	H 	0.84500 0.24100 0.69037 0.21400
O 	O 	0.66530 0.17610 0.65215 -0.39700
O 	O 	0.78270 0.50600 0.65631 -0.40100
O 	O 	0.86380 0.01280 0.62880 -0.37100
O 	O 	0.18600 0.20400 0.64318 -0.47300
Zn	Zn	0.73415 0.03057 0.34332 1.19900
P 	P 	0.96060 0.01500 0.29438 0.47500
P 	P 	0.67270 0.36820 0.33696 0.54600
O 	O 	0.91560 0.03580 0.26647 -0.22800
O 	O 	0.12410 0.18370 0.30285 -0.52000
O 	O 	0.71010 0.23540 0.35052 -0.44900
O 	O 	0.65960 0.49250 0.35864 -0.37000
H 	H 	0.75900 0.60400 0.35703 0.21400
O 	O 	0.82390 0.48920 0.31881 -0.39200
O 	O 	0.49400 0.27670 0.32297 -0.44300
O 	O 	0.98720 0.85100 0.29546 -0.32000
O 	O 	0.79600 0.98200 0.30984 -0.36900
Zn	Zn	0.03057 0.29642 0.50999 1.18900
P 	P 	0.01500 0.05440 0.46105 0.37000
P 	P 	0.36820 0.69550 0.50363 0.54700
O 	O 	0.03580 0.12020 0.43314 -0.26900
O 	O 	0.18370 0.05960 0.46952 -0.46700
O 	O 	0.23540 0.52530 0.51719 -0.47000
O 	O 	0.49250 0.83290 0.52531 -0.37400
H 	H 	0.60400 0.84500 0.52370 0.20900
O 	O 	0.48920 0.66530 0.48548 -0.41800
O 	O 	0.27670 0.78270 0.48964 -0.42900
O 	O 	0.85100 0.86380 0.46213 -0.31800
O 	O 	0.98200 0.18600 0.47651 -0.36400
Zn	Zn	0.70358 0.73415 0.17666 1.24000
P 	P 	0.94560 0.96060 0.12772 0.62900
P 	P 	0.30450 0.67270 0.17030 0.54700
O 	O 	0.87980 0.91560 0.09981 -0.20100
O 	O 	0.94040 0.12410 0.13619 -0.52500
O 	O 	0.47470 0.71010 0.18386 -0.42100
O 	O 	0.16710 0.65960 0.19198 -0.37700
H 	H 	0.15500 0.75900 0.19037 0.20900
O 	O 	0.33470 0.82390 0.15215 -0.38400
O 	O 	0.21730 0.49400 0.15631 -0.42800
O 	O 	0.13620 0.98720 0.12880 -0.39600
O 	O 	0.81400 0.79600 0.14318 -0.46600
Zn	Zn	0.26585 0.96943 0.84332 1.22200
P 	P 	0.03940 0.98500 0.79438 0.50900
P 	P 	0.32730 0.63180 0.83696 0.54700
O 	O 	0.08440 0.96420 0.76647 -0.26200
O 	O 	0.87590 0.81630 0.80285 -0.47100
O 	O 	0.28990 0.76460 0.85052 -0.43900
O 	O 	0.34040 0.50750 0.85864 -0.37100
H 	H 	0.24100 0.39600 0.85703 0.20900
O 	O 	0.17610 0.51080 0.81881 -0.41100
O 	O 	0.50600 0.72330 0.82297 -0.43000
O 	O 	0.01280 0.14900 0.79546 -0.39300
O 	O 	0.20400 0.01800 0.80984 -0.42700
Zn	Zn	0.70358 0.96943 0.65668 1.21700
P 	P 	0.94560 0.98500 0.70562 0.50500
P 	P 	0.30450 0.63180 0.66304 0.54600
O 	O 	0.87980 0.96420 0.73353 -0.25800
O 	O 	0.94040 0.81630 0.69715 -0.44200
O 	O 	0.47470 0.76460 0.64948 -0.45000
O 	O 	0.16710 0.50750 0.64136 -0.39000
H 	H 	0.15500 0.39600 0.64297 0.20000
O 	O 	0.33470 0.51080 0.68119 -0.42300
O 	O 	0.21730 0.72330 0.67703 -0.44000
O 	O 	0.13620 0.14900 0.70454 -0.41600
O 	O 	0.81400 0.01800 0.69016 -0.41600
Zn	Zn	0.26585 0.29642 0.99001 1.23500
P 	P 	0.03940 0.05440 0.03895 0.53100
P 	P 	0.32730 0.69550 0.99637 0.54800
O 	O 	0.08440 0.12020 0.06686 -0.24400
O 	O 	0.87590 0.05960 0.03048 -0.50000
O 	O 	0.28990 0.52530 0.98281 -0.43100
O 	O 	0.34040 0.83290 0.97469 -0.36100
H 	H 	0.24100 0.84500 0.97630 0.21400
O 	O 	0.17610 0.66530 0.01452 -0.39700
O 	O 	0.50600 0.78270 0.01036 -0.40100
O 	O 	0.01280 0.86380 0.03787 -0.37100
O 	O 	0.20400 0.18600 0.02349 -0.47300
Zn	Zn	0.03057 0.73415 0.32334 1.19900
P 	P 	0.01500 0.96060 0.37228 0.47500
P 	P 	0.36820 0.67270 0.32970 0.54600
O 	O 	0.03580 0.91560 0.40019 -0.22800
O 	O 	0.18370 0.12410 0.36381 -0.52000
O 	O 	0.23540 0.71010 0.31614 -0.44900
O 	O 	0.49250 0.65960 0.30802 -0.37000
H 	H 	0.60400 0.75900 0.30963 0.21400
O 	O 	0.48920 0.82390 0.34785 -0.39200
O 	O 	0.27670 0.49400 0.34369 -0.44300
O 	O 	0.85100 0.98720 0.37120 -0.32000
O 	O 	0.98200 0.79600 0.35682 -0.36900
Zn	Zn	0.29642 0.03057 0.15668 1.18900
P 	P 	0.05440 0.01500 0.20562 0.37000
P 	P 	0.69550 0.36820 0.16304 0.54700
O 	O 	0.12020 0.03580 0.23353 -0.26900
O 	O 	0.05960 0.18370 0.19715 -0.46700
O 	O 	0.52530 0.23540 0.14948 -0.47000
O 	O 	0.83290 0.49250 0.14136 -0.37400
H 	H 	0.84500 0.60400 0.14297 0.20900
O 	O 	0.66530 0.48920 0.18119 -0.41800
O 	O 	0.78270 0.27670 0.17703 -0.42900
O 	O 	0.86380 0.85100 0.20454 -0.31800
O 	O 	0.18600 0.98200 0.19016 -0.36400
Zn	Zn	0.73415 0.70358 0.49001 1.24000
P 	P 	0.96060 0.94560 0.53895 0.62900
P 	P 	0.67270 0.30450 0.49637 0.54700
O 	O 	0.91560 0.87980 0.56686 -0.20100
O 	O 	0.12410 0.94040 0.53048 -0.52500
O 	O 	0.71010 0.47470 0.48281 -0.42100
O 	O 	0.65960 0.16710 0.47469 -0.37700
H 	H 	0.75900 0.15500 0.47630 0.20900
O 	O 	0.82390 0.33470 0.51452 -0.38400
O 	O 	0.49400 0.21730 0.51036 -0.42800
O 	O 	0.98720 0.13620 0.53787 -0.39600
O 	O 	0.79600 0.81400 0.52349 -0.46600
Zn	Zn	0.96943 0.26585 0.82334 1.22200
P 	P 	0.98500 0.03940 0.87228 0.50900
P 	P 	0.63180 0.32730 0.82970 0.54700
O 	O 	0.96420 0.08440 0.90019 -0.26200
O 	O 	0.81630 0.87590 0.86381 -0.47100
O 	O 	0.76460 0.28990 0.81614 -0.43900
O 	O 	0.50750 0.34040 0.80802 -0.37100
H 	H 	0.39600 0.24100 0.80963 0.20900
O 	O 	0.51080 0.17610 0.84785 -0.41100
O 	O 	0.72330 0.50600 0.84369 -0.43000
O 	O 	0.14900 0.01280 0.87120 -0.39300
O 	O 	0.01800 0.20400 0.85682 -0.42700
Zn	Zn	0.72969 0.00000 -0.00000 1.21500
Zn	Zn	0.00000 0.72969 0.66667 1.21500
Zn	Zn	0.27031 0.27031 0.33333 1.22200
Zn	Zn	0.27031 0.00000 0.50000 1.22000
Zn	Zn	-0.00000 0.27031 0.16667 1.22000
Zn	Zn	0.72969 0.72969 0.83333 1.22900
H 	H 	0.96900 0.98450 0.91667 0.20200
H 	H 	0.01550 0.98450 0.58333 0.14200
H 	H 	0.01550 0.03100 0.25000 0.14900
H 	H 	0.03100 0.01550 0.41667 0.14900
H 	H 	0.98450 0.01550 0.08333 0.14200
H 	H 	0.98450 0.96900 0.75000 0.20200
