data_crystal

_cell_length_a 10.31310
_cell_length_b 10.31310
_cell_length_c 14.49500
_cell_angle_alpha 90.00000
_cell_angle_beta  90.00000
_cell_angle_gamma 90.00000

_symmetry_space_group_name_	'P 1'
_symmetry_space_group_name_H-M	'P 1'

loop_
_symmetry_equiv_pos_as_xyz
  x,y,z

loop_
_atom_site_label
_atom_site_type_symbol
_atom_site_fract_x
_atom_site_fract_y
_atom_site_fract_z
_atom_site_charge
Dy	Dy	0.64911 0.64911 0.87500 2.02000
Dy	Dy	0.35089 0.35089 0.37500 2.00000
Dy	Dy	0.35089 0.64911 0.12500 1.97400
Dy	Dy	0.64911 0.35089 0.62500 2.00000
H 	H 	0.58270 0.06050 0.87470 -0.03800
H 	H 	0.41730 0.93950 0.37470 -0.03500
H 	H 	0.93950 0.58270 0.12470 -0.03800
H 	H 	0.06050 0.41730 0.62470 -0.03400
H 	H 	0.41730 0.06050 0.12530 -0.03400
H 	H 	0.58270 0.93950 0.62530 -0.03400
H 	H 	0.06050 0.58270 0.87530 -0.03000
H 	H 	0.93950 0.41730 0.37530 -0.03500
H 	H 	0.50000 0.39810 -0.00000 -0.05400
H 	H 	0.50000 0.60190 0.50000 -0.05800
H 	H 	0.60190 0.50000 0.25000 -0.05700
H 	H 	0.39810 0.50000 0.75000 -0.05700
C 	C 	0.54800 0.10560 0.92440 0.23300
C 	C 	0.54450 0.23900 0.92270 -0.27400
C 	C 	0.58970 0.31620 0.84000 0.56600
C 	C 	0.45200 0.89440 0.42440 0.21700
C 	C 	0.45550 0.76100 0.42270 -0.29700
C 	C 	0.41030 0.68380 0.34000 0.56900
C 	C 	0.89440 0.54800 0.17440 0.21700
C 	C 	0.76100 0.54450 0.17270 -0.29900
C 	C 	0.68380 0.58970 0.09000 0.57100
C 	C 	0.10560 0.45200 0.67440 0.21600
C 	C 	0.23900 0.45550 0.67270 -0.29500
C 	C 	0.31620 0.41030 0.59000 0.56900
C 	C 	0.45200 0.10560 0.07560 0.21300
C 	C 	0.45550 0.23900 0.07730 -0.29100
C 	C 	0.41030 0.31620 0.16000 0.56500
C 	C 	0.54800 0.89440 0.57560 0.21700
C 	C 	0.54450 0.76100 0.57730 -0.29700
C 	C 	0.58970 0.68380 0.66000 0.57000
C 	C 	0.10560 0.54800 0.82560 0.21500
C 	C 	0.23900 0.54450 0.82730 -0.29200
C 	C 	0.31620 0.58970 0.91000 0.56800
C 	C 	0.89440 0.45200 0.32560 0.21600
C 	C 	0.76100 0.45550 0.32730 -0.29700
C 	C 	0.68380 0.41030 0.41000 0.57000
C 	C 	0.50000 0.89250 -0.00000 0.50700
C 	C 	0.50000 0.03770 -0.00000 -0.30400
C 	C 	0.50000 0.30790 -0.00000 0.19000
C 	C 	0.50000 0.10750 0.50000 0.53300
C 	C 	0.50000 0.96230 0.50000 -0.29000
C 	C 	0.50000 0.69210 0.50000 0.22200
C 	C 	0.10750 0.50000 0.25000 0.53100
C 	C 	0.96230 0.50000 0.25000 -0.28900
C 	C 	0.69210 0.50000 0.25000 0.22300
C 	C 	0.89250 0.50000 0.75000 0.53300
C 	C 	0.03770 0.50000 0.75000 -0.28600
C 	C 	0.30790 0.50000 0.75000 0.22100
O 	O 	0.57130 0.83530 0.94110 -0.52000
O 	O 	0.59720 0.25720 0.76520 -0.54700
O 	O 	0.61240 0.43100 0.85030 -0.56400
O 	O 	0.42870 0.16470 0.44110 -0.54200
O 	O 	0.40280 0.74280 0.26520 -0.54600
O 	O 	0.38760 0.56900 0.35030 -0.56700
O 	O 	0.16470 0.57130 0.19110 -0.54300
O 	O 	0.74280 0.59720 0.01520 -0.56300
O 	O 	0.56900 0.61240 0.10030 -0.57100
O 	O 	0.83530 0.42870 0.69110 -0.54200
O 	O 	0.25720 0.40280 0.51520 -0.54800
O 	O 	0.43100 0.38760 0.60030 -0.56800
O 	O 	0.42870 0.83530 0.05890 -0.54000
O 	O 	0.40280 0.25720 0.23480 -0.54800
O 	O 	0.38760 0.43100 0.14970 -0.56700
O 	O 	0.57130 0.16470 0.55890 -0.54200
O 	O 	0.59720 0.74280 0.73480 -0.55000
O 	O 	0.61240 0.56900 0.64970 -0.56900
O 	O 	0.83530 0.57130 0.80890 -0.54100
O 	O 	0.25720 0.59720 0.98480 -0.53100
O 	O 	0.43100 0.61240 0.89970 -0.56300
O 	O 	0.16470 0.42870 0.30890 -0.54200
O 	O 	0.74280 0.40280 0.48480 -0.54900
O 	O 	0.56900 0.38760 0.39970 -0.56800
