data_crystal

_cell_length_a 13.64900
_cell_length_b 13.64900
_cell_length_c 8.09200
_cell_angle_alpha 90.00000
_cell_angle_beta  90.00000
_cell_angle_gamma 90.00000

_symmetry_space_group_name_	'P 1'
_symmetry_space_group_name_H-M	'P 1'

loop_
_symmetry_equiv_pos_as_xyz
  x,y,z

loop_
_atom_site_label
_atom_site_type_symbol
_atom_site_fract_x
_atom_site_fract_y
_atom_site_fract_z
_atom_site_charge
C 	C 	0.00000 0.30010 0.35430 -0.17600
H 	H 	0.00000 0.33300 0.25080 0.08300
C 	C 	0.00000 0.19780 0.36240 0.09900
H 	H 	0.00000 0.16240 0.26130 -0.03900
C 	C 	0.00000 0.69990 0.35430 -0.17200
H 	H 	-0.00000 0.66700 0.25080 0.08400
C 	C 	0.00000 0.80220 0.36240 0.10100
H 	H 	0.00000 0.83760 0.26130 -0.02900
C 	C 	0.69990 0.00000 0.35430 -0.17100
H 	H 	0.66700 0.00000 0.25080 0.08500
C 	C 	0.80220 0.00000 0.36240 0.10200
H 	H 	0.83760 0.00000 0.26130 -0.02800
C 	C 	0.30010 0.00000 0.35430 -0.17500
H 	H 	0.33300 0.00000 0.25080 0.08400
C 	C 	0.19780 0.00000 0.36240 0.10000
H 	H 	0.16240 0.00000 0.26130 -0.03800
C 	C 	0.00000 0.30010 0.64570 -0.17400
H 	H 	0.00000 0.33300 0.74920 0.08600
C 	C 	0.00000 0.19780 0.63760 0.10000
H 	H 	0.00000 0.16240 0.73870 -0.03600
C 	C 	0.00000 0.69990 0.64570 -0.17000
H 	H 	-0.00000 0.66700 0.74920 0.08600
C 	C 	0.00000 0.80220 0.63760 0.10200
H 	H 	0.00000 0.83760 0.73870 -0.02700
C 	C 	0.30010 0.00000 0.64570 -0.17400
H 	H 	0.33300 0.00000 0.74920 0.08600
C 	C 	0.19780 0.00000 0.63760 0.10000
H 	H 	0.16240 0.00000 0.73870 -0.03600
C 	C 	0.69990 0.00000 0.64570 -0.17000
H 	H 	0.66700 0.00000 0.74920 0.08600
C 	C 	0.80220 0.00000 0.63760 0.10200
H 	H 	0.83760 0.00000 0.73870 -0.02700
Cu	Cu	-0.00000 0.00000 0.50000 0.84200
N 	N 	-0.00000 0.14760 0.50000 -0.25600
C 	C 	0.00000 0.45690 0.50000 -0.05000
C 	C 	-0.00000 0.35190 0.50000 0.10700
N 	N 	-0.00000 0.85240 0.50000 -0.24600
C 	C 	0.00000 0.54310 0.50000 -0.04900
C 	C 	-0.00000 0.64810 0.50000 0.10600
N 	N 	0.85240 0.00000 0.50000 -0.24600
C 	C 	0.54310 0.00000 0.50000 -0.04900
C 	C 	0.64810 0.00000 0.50000 0.10600
N 	N 	0.14760 0.00000 0.50000 -0.25600
C 	C 	0.45690 0.00000 0.50000 -0.05000
C 	C 	0.35190 0.00000 0.50000 0.10700
C 	C 	0.50000 0.80010 0.85430 -0.14500
H 	H 	0.50000 0.83300 0.75080 0.08800
C 	C 	0.50000 0.69780 0.86240 0.10100
H 	H 	0.50000 0.66240 0.76130 -0.02800
C 	C 	0.50000 0.19990 0.85430 -0.18400
H 	H 	0.50000 0.16700 0.75080 0.09500
C 	C 	0.50000 0.30220 0.86240 0.11700
H 	H 	0.50000 0.33760 0.76130 -0.03500
C 	C 	0.19990 0.50000 0.85430 -0.18400
H 	H 	0.16700 0.50000 0.75080 0.09500
C 	C 	0.30220 0.50000 0.86240 0.11700
H 	H 	0.33760 0.50000 0.76130 -0.03500
C 	C 	0.80010 0.50000 0.85430 -0.14500
H 	H 	0.83300 0.50000 0.75080 0.08800
C 	C 	0.69780 0.50000 0.86240 0.10100
H 	H 	0.66240 0.50000 0.76130 -0.02800
C 	C 	0.50000 0.80010 0.14570 -0.15000
H 	H 	0.50000 0.83300 0.24920 0.08900
C 	C 	0.50000 0.69780 0.13760 0.09500
H 	H 	0.50000 0.66240 0.23870 -0.02700
C 	C 	0.50000 0.19990 0.14570 -0.18900
H 	H 	0.50000 0.16700 0.24920 0.09500
C 	C 	0.50000 0.30220 0.13760 0.11100
H 	H 	0.50000 0.33760 0.23870 -0.03400
C 	C 	0.80010 0.50000 0.14570 -0.15000
H 	H 	0.83300 0.50000 0.24920 0.08900
C 	C 	0.69780 0.50000 0.13760 0.09500
H 	H 	0.66240 0.50000 0.23870 -0.02700
C 	C 	0.19990 0.50000 0.14570 -0.18900
H 	H 	0.16700 0.50000 0.24920 0.09500
C 	C 	0.30220 0.50000 0.13760 0.11100
H 	H 	0.33760 0.50000 0.23870 -0.03400
Cu	Cu	0.50000 0.50000 -0.00000 0.85400
N 	N 	0.50000 0.64760 -0.00000 -0.25200
C 	C 	0.50000 0.95690 -0.00000 0.02300
C 	C 	0.50000 0.85190 -0.00000 0.07700
N 	N 	0.50000 0.35240 -0.00000 -0.25900
C 	C 	0.50000 0.04310 -0.00000 -0.10500
C 	C 	0.50000 0.14810 -0.00000 0.13500
N 	N 	0.35240 0.50000 -0.00000 -0.25900
C 	C 	0.04310 0.50000 -0.00000 -0.10500
C 	C 	0.14810 0.50000 -0.00000 0.13500
N 	N 	0.64760 0.50000 -0.00000 -0.25200
C 	C 	0.95690 0.50000 -0.00000 0.02300
C 	C 	0.85190 0.50000 -0.00000 0.07700
