data_crystal

_cell_length_a 13.63160
_cell_length_b 13.63160
_cell_length_c 7.96800
_cell_angle_alpha 90.00000
_cell_angle_beta  90.00000
_cell_angle_gamma 90.00000

_symmetry_space_group_name_	'P 1'
_symmetry_space_group_name_H-M	'P 1'

loop_
_symmetry_equiv_pos_as_xyz
  x,y,z

loop_
_atom_site_label
_atom_site_type_symbol
_atom_site_fract_x
_atom_site_fract_y
_atom_site_fract_z
_atom_site_charge
C 	C 	0.45750 0.30170 0.87690 0.04100
H 	H 	0.42710 0.33720 0.78840 -0.01300
C 	C 	0.45580 0.20130 0.87240 -0.08600
H 	H 	0.42440 0.16810 0.78240 0.05200
C 	C 	0.54250 0.69830 0.87690 0.04100
H 	H 	0.57290 0.66280 0.78840 -0.01300
C 	C 	0.54420 0.79870 0.87240 -0.08600
H 	H 	0.57560 0.83190 0.78240 0.05200
C 	C 	0.69830 0.45750 0.87690 0.04200
H 	H 	0.66280 0.42710 0.78840 -0.01200
C 	C 	0.79870 0.45580 0.87240 -0.08500
H 	H 	0.83190 0.42440 0.78240 0.05300
C 	C 	0.30170 0.54250 0.87690 0.04200
H 	H 	0.33720 0.57290 0.78840 -0.01200
C 	C 	0.20130 0.54420 0.87240 -0.08500
H 	H 	0.16810 0.57560 0.78240 0.05300
C 	C 	0.54250 0.30170 0.12310 0.03900
H 	H 	0.57290 0.33720 0.21160 -0.01100
C 	C 	0.54420 0.20130 0.12760 -0.08800
H 	H 	0.57560 0.16810 0.21760 0.05300
C 	C 	0.45750 0.69830 0.12310 0.03900
H 	H 	0.42710 0.66280 0.21160 -0.01100
C 	C 	0.45580 0.79870 0.12760 -0.08800
H 	H 	0.42440 0.83190 0.21760 0.05300
C 	C 	0.30170 0.45750 0.12310 0.03900
H 	H 	0.33720 0.42710 0.21160 -0.01100
C 	C 	0.20130 0.45580 0.12760 -0.08800
H 	H 	0.16810 0.42440 0.21760 0.05300
C 	C 	0.69830 0.54250 0.12310 0.03900
H 	H 	0.66280 0.57290 0.21160 -0.01100
C 	C 	0.79870 0.54420 0.12760 -0.08800
H 	H 	0.83190 0.57560 0.21760 0.05300
C 	C 	0.54250 0.69830 0.12310 0.03900
H 	H 	0.57290 0.66280 0.21160 -0.01100
C 	C 	0.54420 0.79870 0.12760 -0.08800
H 	H 	0.57560 0.83190 0.21760 0.05300
C 	C 	0.45750 0.30170 0.12310 0.03900
H 	H 	0.42710 0.33720 0.21160 -0.01100
C 	C 	0.45580 0.20130 0.12760 -0.08800
H 	H 	0.42440 0.16810 0.21760 0.05300
C 	C 	0.30170 0.54250 0.12310 0.03900
H 	H 	0.33720 0.57290 0.21160 -0.01100
C 	C 	0.20130 0.54420 0.12760 -0.08800
H 	H 	0.16810 0.57560 0.21760 0.05300
C 	C 	0.69830 0.45750 0.12310 0.03900
H 	H 	0.66280 0.42710 0.21160 -0.01100
C 	C 	0.79870 0.45580 0.12760 -0.08800
H 	H 	0.83190 0.42440 0.21760 0.05300
C 	C 	0.45750 0.69830 0.87690 0.04200
H 	H 	0.42710 0.66280 0.78840 -0.01200
C 	C 	0.45580 0.79870 0.87240 -0.08500
H 	H 	0.42440 0.83190 0.78240 0.05300
C 	C 	0.54250 0.30170 0.87690 0.04200
H 	H 	0.57290 0.33720 0.78840 -0.01200
C 	C 	0.54420 0.20130 0.87240 -0.08500
H 	H 	0.57560 0.16810 0.78240 0.05300
C 	C 	0.69830 0.54250 0.87690 0.04200
H 	H 	0.66280 0.57290 0.78840 -0.01200
C 	C 	0.79870 0.54420 0.87240 -0.08500
H 	H 	0.83190 0.57560 0.78240 0.05300
C 	C 	0.30170 0.45750 0.87690 0.04200
H 	H 	0.33720 0.42710 0.78840 -0.01200
C 	C 	0.20130 0.45580 0.87240 -0.08500
H 	H 	0.16810 0.42440 0.78240 0.05300
Cu	Cu	0.50000 0.50000 -0.00000 0.84800
C 	C 	0.50000 0.14860 -0.00000 0.09900
N 	N 	0.50000 0.35130 -0.00000 -0.24400
C 	C 	0.50000 0.04420 -0.00000 -0.04700
C 	C 	0.50000 0.85140 -0.00000 0.09900
N 	N 	0.50000 0.64870 -0.00000 -0.24400
C 	C 	0.50000 0.95580 -0.00000 -0.04700
C 	C 	0.85140 0.50000 -0.00000 0.09900
N 	N 	0.64870 0.50000 -0.00000 -0.24400
C 	C 	0.95580 0.50000 -0.00000 -0.04700
C 	C 	0.14860 0.50000 -0.00000 0.09900
N 	N 	0.35130 0.50000 -0.00000 -0.24400
C 	C 	0.04420 0.50000 -0.00000 -0.04700
