data_crystal

_cell_length_a 15.62890
_cell_length_b 15.62890
_cell_length_c 15.62890
_cell_angle_alpha 90.00000
_cell_angle_beta  90.00000
_cell_angle_gamma 90.00000

_symmetry_space_group_name_	'P 1'
_symmetry_space_group_name_H-M	'P 1'

loop_
_symmetry_equiv_pos_as_xyz
  x,y,z

loop_
_atom_site_label
_atom_site_type_symbol
_atom_site_fract_x
_atom_site_fract_y
_atom_site_fract_z
_atom_site_charge
N 	N 	0.50020 0.69960 0.87930 -0.17000
N 	N 	0.42971 0.67322 0.92230 -0.13900
C 	C 	0.47190 0.75200 0.82120 0.08000
H 	H 	0.50690 0.77940 0.78160 -0.03400
C 	C 	0.38310 0.76270 0.82470 -0.15400
H 	H 	0.34880 0.79680 0.79010 0.06900
C 	C 	0.35860 0.71110 0.89120 0.08100
H 	H 	0.30310 0.70360 0.91130 -0.00200
C 	C 	0.43570 0.61520 0.99230 0.21500
C 	C 	0.50180 0.62350 0.05010 -0.31500
H 	H 	0.53700 0.66780 0.03900 0.12300
N 	N 	0.99980 0.30040 0.37930 -0.17100
N 	N 	0.07029 0.32678 0.42230 -0.14000
C 	C 	0.02810 0.24800 0.32120 0.08000
H 	H 	0.99310 0.22060 0.28160 -0.03400
C 	C 	0.11690 0.23730 0.32470 -0.15400
H 	H 	0.15120 0.20320 0.29010 0.06900
C 	C 	0.14140 0.28890 0.39120 0.08100
H 	H 	0.19690 0.29640 0.41130 -0.00200
C 	C 	0.06430 0.38480 0.49230 0.21600
C 	C 	0.99820 0.37650 0.55010 -0.31500
H 	H 	0.96300 0.33220 0.53900 0.12300
N 	N 	0.49980 0.19960 0.62070 -0.17100
N 	N 	0.57029 0.17322 0.57770 -0.14000
C 	C 	0.52810 0.25200 0.67880 0.07900
H 	H 	0.49310 0.27940 0.71840 -0.03400
C 	C 	0.61690 0.26270 0.67530 -0.15400
H 	H 	0.65120 0.29680 0.70990 0.06900
C 	C 	0.64140 0.21110 0.60880 0.08100
H 	H 	0.69690 0.20360 0.58870 -0.00200
C 	C 	0.56430 0.11520 0.50770 0.21500
C 	C 	0.49820 0.12350 0.44990 -0.31500
H 	H 	0.46300 0.16780 0.46100 0.12300
N 	N 	0.00020 0.80040 0.12070 -0.17000
N 	N 	0.92971 0.82678 0.07770 -0.14000
C 	C 	0.97190 0.74800 0.17880 0.07900
H 	H 	0.00690 0.72060 0.21840 -0.03400
C 	C 	0.88310 0.73730 0.17530 -0.15300
H 	H 	0.84880 0.70320 0.20990 0.06900
C 	C 	0.85860 0.78890 0.10880 0.08100
H 	H 	0.80310 0.79640 0.08870 -0.00200
C 	C 	0.93570 0.88480 0.00770 0.21500
C 	C 	0.00180 0.87650 0.94990 -0.31500
H 	H 	0.03700 0.83220 0.96100 0.12300
N 	N 	0.87930 0.50020 0.69960 -0.17100
N 	N 	0.92230 0.42971 0.67322 -0.14000
C 	C 	0.82120 0.47190 0.75200 0.07900
H 	H 	0.78160 0.50690 0.77940 -0.03400
C 	C 	0.82470 0.38310 0.76270 -0.15400
H 	H 	0.79010 0.34880 0.79680 0.06900
C 	C 	0.89120 0.35860 0.71110 0.08100
H 	H 	0.91130 0.30310 0.70360 -0.00200
C 	C 	0.99230 0.43570 0.61520 0.21500
C 	C 	0.05010 0.50180 0.62350 -0.31500
H 	H 	0.03900 0.53700 0.66780 0.12300
N 	N 	0.37930 0.99980 0.30040 -0.17100
N 	N 	0.42230 0.07029 0.32678 -0.14000
C 	C 	0.32120 0.02810 0.24800 0.08000
H 	H 	0.28160 0.99310 0.22060 -0.03400
C 	C 	0.32470 0.11690 0.23730 -0.15400
H 	H 	0.29010 0.15120 0.20320 0.06900
C 	C 	0.39120 0.14140 0.28890 0.08100
H 	H 	0.41130 0.19690 0.29640 -0.00200
C 	C 	0.49230 0.06430 0.38480 0.21600
C 	C 	0.55010 0.99820 0.37650 -0.31500
H 	H 	0.53900 0.96300 0.33220 0.12300
N 	N 	0.62070 0.49980 0.19960 -0.17100
N 	N 	0.57770 0.57029 0.17322 -0.14000
C 	C 	0.67880 0.52810 0.25200 0.07900
H 	H 	0.71840 0.49310 0.27940 -0.03400
C 	C 	0.67530 0.61690 0.26270 -0.15400
H 	H 	0.70990 0.65120 0.29680 0.06900
C 	C 	0.60880 0.64140 0.21110 0.08100
H 	H 	0.58870 0.69690 0.20360 -0.00200
C 	C 	0.50770 0.56430 0.11520 0.21500
C 	C 	0.44990 0.49820 0.12350 -0.31500
H 	H 	0.46100 0.46300 0.16780 0.12300
N 	N 	0.12070 0.00020 0.80040 -0.17000
N 	N 	0.07770 0.92971 0.82678 -0.14000
C 	C 	0.17880 0.97190 0.74800 0.07900
H 	H 	0.21840 0.00690 0.72060 -0.03400
C 	C 	0.17530 0.88310 0.73730 -0.15300
H 	H 	0.20990 0.84880 0.70320 0.06900
C 	C 	0.10880 0.85860 0.78890 0.08100
H 	H 	0.08870 0.80310 0.79640 -0.00200
C 	C 	0.00770 0.93570 0.88480 0.21500
C 	C 	0.94990 0.00180 0.87650 -0.31500
H 	H 	0.96100 0.03700 0.83220 0.12300
N 	N 	0.69960 0.87930 0.50020 -0.17100
N 	N 	0.67322 0.92230 0.42971 -0.14000
C 	C 	0.75200 0.82120 0.47190 0.07900
H 	H 	0.77940 0.78160 0.50690 -0.03400
C 	C 	0.76270 0.82470 0.38310 -0.15400
H 	H 	0.79680 0.79010 0.34880 0.06900
C 	C 	0.71110 0.89120 0.35860 0.08100
H 	H 	0.70360 0.91130 0.30310 -0.00200
C 	C 	0.61520 0.99230 0.43570 0.21500
C 	C 	0.62350 0.05010 0.50180 -0.31500
H 	H 	0.66780 0.03900 0.53700 0.12300
N 	N 	0.30040 0.37930 0.99980 -0.17100
N 	N 	0.32678 0.42230 0.07029 -0.14000
C 	C 	0.24800 0.32120 0.02810 0.08000
H 	H 	0.22060 0.28160 0.99310 -0.03400
C 	C 	0.23730 0.32470 0.11690 -0.15400
H 	H 	0.20320 0.29010 0.15120 0.06900
C 	C 	0.28890 0.39120 0.14140 0.08100
H 	H 	0.29640 0.41130 0.19690 -0.00200
C 	C 	0.38480 0.49230 0.06430 0.21600
C 	C 	0.37650 0.55010 0.99820 -0.31500
H 	H 	0.33220 0.53900 0.96300 0.12300
N 	N 	0.19960 0.62070 0.49980 -0.17100
N 	N 	0.17322 0.57770 0.57029 -0.14000
C 	C 	0.25200 0.67880 0.52810 0.07900
H 	H 	0.27940 0.71840 0.49310 -0.03400
C 	C 	0.26270 0.67530 0.61690 -0.15400
H 	H 	0.29680 0.70990 0.65120 0.06900
C 	C 	0.21110 0.60880 0.64140 0.08100
H 	H 	0.20360 0.58870 0.69690 -0.00200
C 	C 	0.11520 0.50770 0.56430 0.21500
C 	C 	0.12350 0.44990 0.49820 -0.31500
H 	H 	0.16780 0.46100 0.46300 0.12300
N 	N 	0.80040 0.12070 0.00020 -0.17000
N 	N 	0.82678 0.07770 0.92971 -0.14000
C 	C 	0.74800 0.17880 0.97190 0.07900
H 	H 	0.72060 0.21840 0.00690 -0.03400
C 	C 	0.73730 0.17530 0.88310 -0.15300
H 	H 	0.70320 0.20990 0.84880 0.06900
C 	C 	0.78890 0.10880 0.85860 0.08100
H 	H 	0.79640 0.08870 0.80310 -0.00200
C 	C 	0.88480 0.00770 0.93570 0.21500
C 	C 	0.87650 0.94990 0.00180 -0.31500
H 	H 	0.83220 0.96100 0.03700 0.12300
N 	N 	0.44960 0.75020 0.37070 -0.17100
N 	N 	0.42322 0.67971 0.32770 -0.14000
C 	C 	0.50200 0.72190 0.42880 0.07900
H 	H 	0.52940 0.75690 0.46840 -0.03400
C 	C 	0.51270 0.63310 0.42530 -0.15400
H 	H 	0.54680 0.59880 0.45990 0.06900
C 	C 	0.46110 0.60860 0.35880 0.08100
H 	H 	0.45360 0.55310 0.33870 -0.00200
C 	C 	0.36520 0.68570 0.25770 0.21600
C 	C 	0.37350 0.75180 0.19990 -0.31500
H 	H 	0.41780 0.78700 0.21100 0.12300
N 	N 	0.05040 0.24980 0.87070 -0.17100
N 	N 	0.07678 0.32029 0.82770 -0.14000
C 	C 	0.99800 0.27810 0.92880 0.07900
H 	H 	0.97060 0.24310 0.96840 -0.03400
C 	C 	0.98730 0.36690 0.92530 -0.15400
H 	H 	0.95320 0.40120 0.95990 0.06900
C 	C 	0.03890 0.39140 0.85880 0.08100
H 	H 	0.04640 0.44690 0.83870 -0.00200
C 	C 	0.13480 0.31430 0.75770 0.21600
C 	C 	0.12650 0.24820 0.69990 -0.31500
H 	H 	0.08220 0.21300 0.71100 0.12300
N 	N 	0.94960 0.74980 0.62930 -0.17100
N 	N 	0.92322 0.82029 0.67230 -0.14000
C 	C 	0.00200 0.77810 0.57120 0.07900
H 	H 	0.02940 0.74310 0.53160 -0.03400
C 	C 	0.01270 0.86690 0.57470 -0.15300
H 	H 	0.04680 0.90120 0.54010 0.06900
C 	C 	0.96110 0.89140 0.64120 0.08100
H 	H 	0.95360 0.94690 0.66130 -0.00200
C 	C 	0.86520 0.81430 0.74230 0.21500
C 	C 	0.87350 0.74820 0.80010 -0.31500
H 	H 	0.91780 0.71300 0.78900 0.12200
N 	N 	0.55040 0.25020 0.12930 -0.17100
N 	N 	0.57678 0.17971 0.17230 -0.14000
C 	C 	0.49800 0.22190 0.07120 0.07900
H 	H 	0.47060 0.25690 0.03160 -0.03400
C 	C 	0.48730 0.13310 0.07470 -0.15400
H 	H 	0.45320 0.09880 0.04010 0.06900
C 	C 	0.53890 0.10860 0.14120 0.08100
H 	H 	0.54640 0.05310 0.16130 -0.00200
C 	C 	0.63480 0.18570 0.24230 0.21600
C 	C 	0.62650 0.25180 0.30010 -0.31500
H 	H 	0.58220 0.28700 0.28900 0.12300
N 	N 	0.25020 0.12930 0.55040 -0.17100
N 	N 	0.17971 0.17230 0.57678 -0.14000
C 	C 	0.22190 0.07120 0.49800 0.07900
H 	H 	0.25690 0.03160 0.47060 -0.03400
C 	C 	0.13310 0.07470 0.48730 -0.15400
H 	H 	0.09880 0.04010 0.45320 0.06900
C 	C 	0.10860 0.14120 0.53890 0.08100
H 	H 	0.05310 0.16130 0.54640 -0.00200
C 	C 	0.18570 0.24230 0.63480 0.21600
C 	C 	0.25180 0.30010 0.62650 -0.31500
H 	H 	0.28700 0.28900 0.58220 0.12300
N 	N 	0.74980 0.62930 0.94960 -0.17100
N 	N 	0.82029 0.67230 0.92322 -0.14000
C 	C 	0.77810 0.57120 0.00200 0.07900
H 	H 	0.74310 0.53160 0.02940 -0.03400
C 	C 	0.86690 0.57470 0.01270 -0.15300
H 	H 	0.90120 0.54010 0.04680 0.06900
C 	C 	0.89140 0.64120 0.96110 0.08100
H 	H 	0.94690 0.66130 0.95360 -0.00200
C 	C 	0.81430 0.74230 0.86520 0.21500
C 	C 	0.74820 0.80010 0.87350 -0.31500
H 	H 	0.71300 0.78900 0.91780 0.12200
N 	N 	0.24980 0.87070 0.05040 -0.17100
N 	N 	0.32029 0.82770 0.07678 -0.14000
C 	C 	0.27810 0.92880 0.99800 0.07900
H 	H 	0.24310 0.96840 0.97060 -0.03400
C 	C 	0.36690 0.92530 0.98730 -0.15400
H 	H 	0.40120 0.95990 0.95320 0.06900
C 	C 	0.39140 0.85880 0.03890 0.08100
H 	H 	0.44690 0.83870 0.04640 -0.00200
C 	C 	0.31430 0.75770 0.13480 0.21600
C 	C 	0.24820 0.69990 0.12650 -0.31500
H 	H 	0.21300 0.71100 0.08220 0.12300
N 	N 	0.75020 0.37070 0.44960 -0.17100
N 	N 	0.67971 0.32770 0.42322 -0.14000
C 	C 	0.72190 0.42880 0.50200 0.07900
H 	H 	0.75690 0.46840 0.52940 -0.03400
C 	C 	0.63310 0.42530 0.51270 -0.15400
H 	H 	0.59880 0.45990 0.54680 0.06900
C 	C 	0.60860 0.35880 0.46110 0.08100
H 	H 	0.55310 0.33870 0.45360 -0.00200
C 	C 	0.68570 0.25770 0.36520 0.21600
C 	C 	0.75180 0.19990 0.37350 -0.31500
H 	H 	0.78700 0.21100 0.41780 0.12300
N 	N 	0.62930 0.94960 0.74980 -0.17100
N 	N 	0.67230 0.92322 0.82029 -0.14000
C 	C 	0.57120 0.00200 0.77810 0.07900
H 	H 	0.53160 0.02940 0.74310 -0.03400
C 	C 	0.57470 0.01270 0.86690 -0.15300
H 	H 	0.54010 0.04680 0.90120 0.06900
C 	C 	0.64120 0.96110 0.89140 0.08100
H 	H 	0.66130 0.95360 0.94690 -0.00200
C 	C 	0.74230 0.86520 0.81430 0.21500
C 	C 	0.80010 0.87350 0.74820 -0.31500
H 	H 	0.78900 0.91780 0.71300 0.12200
N 	N 	0.12930 0.55040 0.25020 -0.17100
N 	N 	0.17230 0.57678 0.17971 -0.14000
C 	C 	0.07120 0.49800 0.22190 0.07900
H 	H 	0.03160 0.47060 0.25690 -0.03400
C 	C 	0.07470 0.48730 0.13310 -0.15400
H 	H 	0.04010 0.45320 0.09880 0.06900
C 	C 	0.14120 0.53890 0.10860 0.08100
H 	H 	0.16130 0.54640 0.05310 -0.00200
C 	C 	0.24230 0.63480 0.18570 0.21600
C 	C 	0.30010 0.62650 0.25180 -0.31500
H 	H 	0.28900 0.58220 0.28700 0.12300
N 	N 	0.37070 0.44960 0.75020 -0.17100
N 	N 	0.32770 0.42322 0.67971 -0.14000
C 	C 	0.42880 0.50200 0.72190 0.07900
H 	H 	0.46840 0.52940 0.75690 -0.03400
C 	C 	0.42530 0.51270 0.63310 -0.15400
H 	H 	0.45990 0.54680 0.59880 0.06900
C 	C 	0.35880 0.46110 0.60860 0.08100
H 	H 	0.33870 0.45360 0.55310 -0.00200
C 	C 	0.25770 0.36520 0.68570 0.21600
C 	C 	0.19990 0.37350 0.75180 -0.31500
H 	H 	0.21100 0.41780 0.78700 0.12300
N 	N 	0.87070 0.05040 0.24980 -0.17100
N 	N 	0.82770 0.07678 0.32029 -0.14000
C 	C 	0.92880 0.99800 0.27810 0.07900
H 	H 	0.96840 0.97060 0.24310 -0.03400
C 	C 	0.92530 0.98730 0.36690 -0.15400
H 	H 	0.95990 0.95320 0.40120 0.06900
C 	C 	0.85880 0.03890 0.39140 0.08100
H 	H 	0.83870 0.04640 0.44690 -0.00200
C 	C 	0.75770 0.13480 0.31430 0.21600
C 	C 	0.69990 0.12650 0.24820 -0.31500
H 	H 	0.71100 0.08220 0.21300 0.12300
Ag	Ag	0.62500 0.64128 0.89128 0.49600
Ag	Ag	0.87500 0.35872 0.39128 0.49600
Ag	Ag	0.37500 0.14128 0.60872 0.49600
Ag	Ag	0.12500 0.85872 0.10872 0.49600
Ag	Ag	0.89128 0.62500 0.64128 0.49600
Ag	Ag	0.39128 0.87500 0.35872 0.49600
Ag	Ag	0.60872 0.37500 0.14128 0.49600
Ag	Ag	0.10872 0.12500 0.85872 0.49600
Ag	Ag	0.64128 0.89128 0.62500 0.49600
Ag	Ag	0.35872 0.39128 0.87500 0.49600
Ag	Ag	0.14128 0.60872 0.37500 0.49600
Ag	Ag	0.85872 0.10872 0.12500 0.49600
