data_crystal

_cell_length_a 15.18800
_cell_length_b 15.18800
_cell_length_c 15.18800
_cell_angle_alpha 90.00000
_cell_angle_beta  90.00000
_cell_angle_gamma 90.00000

_symmetry_space_group_name_	'P 1'
_symmetry_space_group_name_H-M	'P 1'

loop_
_symmetry_equiv_pos_as_xyz
  x,y,z

loop_
_atom_site_label
_atom_site_type_symbol
_atom_site_fract_x
_atom_site_fract_y
_atom_site_fract_z
_atom_site_charge
N 	N 	0.87590 0.95320 0.24880 -0.16500
N 	N 	0.83304 0.92550 0.17620 -0.14500
C 	C 	0.93380 0.01040 0.21840 0.08900
H 	H 	0.97340 0.04100 0.25370 -0.04000
C 	C 	0.92900 0.01950 0.12880 -0.16800
H 	H 	0.96300 0.05600 0.09330 0.07500
C 	C 	0.86430 0.96430 0.10320 0.09600
H 	H 	0.84500 0.95480 0.04590 -0.00800
C 	C 	0.76120 0.86500 0.18420 0.23600
C 	C 	0.75310 0.79740 0.12430 -0.35100
H 	H 	0.78400 0.79400 0.07400 0.14400
N 	N 	0.62410 0.04680 0.74880 -0.16600
N 	N 	0.66696 0.07450 0.67620 -0.14600
C 	C 	0.56620 0.98960 0.71840 0.08800
H 	H 	0.52660 0.95900 0.75370 -0.04100
C 	C 	0.57100 0.98050 0.62880 -0.16900
H 	H 	0.53700 0.94400 0.59330 0.07400
C 	C 	0.63570 0.03570 0.60320 0.09600
H 	H 	0.65500 0.04520 0.54590 -0.01000
C 	C 	0.73880 0.13500 0.68420 0.23500
C 	C 	0.74690 0.20260 0.62430 -0.35100
H 	H 	0.71600 0.20600 0.57400 0.14400
N 	N 	0.12410 0.45320 0.25120 -0.16600
N 	N 	0.16696 0.42550 0.32380 -0.14600
C 	C 	0.06620 0.51040 0.28160 0.08800
H 	H 	0.02660 0.54100 0.24630 -0.04100
C 	C 	0.07100 0.51950 0.37120 -0.16900
H 	H 	0.03700 0.55600 0.40670 0.07400
C 	C 	0.13570 0.46430 0.39680 0.09500
H 	H 	0.15500 0.45480 0.45410 -0.01000
C 	C 	0.23880 0.36500 0.31580 0.23500
C 	C 	0.24690 0.29740 0.37570 -0.35100
H 	H 	0.21600 0.29400 0.42600 0.14400
N 	N 	0.37590 0.54680 0.75120 -0.16600
N 	N 	0.33304 0.57450 0.82380 -0.14600
C 	C 	0.43380 0.48960 0.78160 0.08800
H 	H 	0.47340 0.45900 0.74630 -0.04100
C 	C 	0.42900 0.48050 0.87120 -0.16900
H 	H 	0.46300 0.44400 0.90670 0.07400
C 	C 	0.36430 0.53570 0.89680 0.09500
H 	H 	0.34500 0.54520 0.95410 -0.01000
C 	C 	0.26120 0.63500 0.81580 0.23500
C 	C 	0.25310 0.70260 0.87570 -0.35100
H 	H 	0.28400 0.70600 0.92600 0.14400
N 	N 	0.24880 0.87590 0.95320 -0.16600
N 	N 	0.17620 0.83304 0.92550 -0.14600
C 	C 	0.21840 0.93380 0.01040 0.08800
H 	H 	0.25370 0.97340 0.04100 -0.04100
C 	C 	0.12880 0.92900 0.01950 -0.16900
H 	H 	0.09330 0.96300 0.05600 0.07400
C 	C 	0.10320 0.86430 0.96430 0.09500
H 	H 	0.04590 0.84500 0.95480 -0.00900
C 	C 	0.18420 0.76120 0.86500 0.23500
C 	C 	0.12430 0.75310 0.79740 -0.35100
H 	H 	0.07400 0.78400 0.79400 0.14400
N 	N 	0.74880 0.62410 0.04680 -0.16600
N 	N 	0.67620 0.66696 0.07450 -0.14600
C 	C 	0.71840 0.56620 0.98960 0.08800
H 	H 	0.75370 0.52660 0.95900 -0.04100
C 	C 	0.62880 0.57100 0.98050 -0.16900
H 	H 	0.59330 0.53700 0.94400 0.07400
C 	C 	0.60320 0.63570 0.03570 0.09600
H 	H 	0.54590 0.65500 0.04520 -0.01000
C 	C 	0.68420 0.73880 0.13500 0.23500
C 	C 	0.62430 0.74690 0.20260 -0.35100
H 	H 	0.57400 0.71600 0.20600 0.14400
N 	N 	0.25120 0.12410 0.45320 -0.16600
N 	N 	0.32380 0.16696 0.42550 -0.14600
C 	C 	0.28160 0.06620 0.51040 0.08800
H 	H 	0.24630 0.02660 0.54100 -0.04100
C 	C 	0.37120 0.07100 0.51950 -0.16900
H 	H 	0.40670 0.03700 0.55600 0.07400
C 	C 	0.39680 0.13570 0.46430 0.09500
H 	H 	0.45410 0.15500 0.45480 -0.01000
C 	C 	0.31580 0.23880 0.36500 0.23500
C 	C 	0.37570 0.24690 0.29740 -0.35100
H 	H 	0.42600 0.21600 0.29400 0.14400
N 	N 	0.75120 0.37590 0.54680 -0.16600
N 	N 	0.82380 0.33304 0.57450 -0.14600
C 	C 	0.78160 0.43380 0.48960 0.08800
H 	H 	0.74630 0.47340 0.45900 -0.04100
C 	C 	0.87120 0.42900 0.48050 -0.16900
H 	H 	0.90670 0.46300 0.44400 0.07400
C 	C 	0.89680 0.36430 0.53570 0.09500
H 	H 	0.95410 0.34500 0.54520 -0.01000
C 	C 	0.81580 0.26120 0.63500 0.23500
C 	C 	0.87570 0.25310 0.70260 -0.35100
H 	H 	0.92600 0.28400 0.70600 0.14400
N 	N 	0.95320 0.24880 0.87590 -0.16600
N 	N 	0.92550 0.17620 0.83304 -0.14600
C 	C 	0.01040 0.21840 0.93380 0.08800
H 	H 	0.04100 0.25370 0.97340 -0.04100
C 	C 	0.01950 0.12880 0.92900 -0.16900
H 	H 	0.05600 0.09330 0.96300 0.07400
C 	C 	0.96430 0.10320 0.86430 0.09500
H 	H 	0.95480 0.04590 0.84500 -0.00900
C 	C 	0.86500 0.18420 0.76120 0.23500
C 	C 	0.79740 0.12430 0.75310 -0.35100
H 	H 	0.79400 0.07400 0.78400 0.14400
N 	N 	0.04680 0.74880 0.62410 -0.16600
N 	N 	0.07450 0.67620 0.66696 -0.14600
C 	C 	0.98960 0.71840 0.56620 0.08800
H 	H 	0.95900 0.75370 0.52660 -0.04100
C 	C 	0.98050 0.62880 0.57100 -0.16900
H 	H 	0.94400 0.59330 0.53700 0.07400
C 	C 	0.03570 0.60320 0.63570 0.09600
H 	H 	0.04520 0.54590 0.65500 -0.01000
C 	C 	0.13500 0.68420 0.73880 0.23500
C 	C 	0.20260 0.62430 0.74690 -0.35100
H 	H 	0.20600 0.57400 0.71600 0.14400
N 	N 	0.45320 0.25120 0.12410 -0.16600
N 	N 	0.42550 0.32380 0.16696 -0.14600
C 	C 	0.51040 0.28160 0.06620 0.08800
H 	H 	0.54100 0.24630 0.02660 -0.04100
C 	C 	0.51950 0.37120 0.07100 -0.16900
H 	H 	0.55600 0.40670 0.03700 0.07400
C 	C 	0.46430 0.39680 0.13570 0.09500
H 	H 	0.45480 0.45410 0.15500 -0.01000
C 	C 	0.36500 0.31580 0.23880 0.23500
C 	C 	0.29740 0.37570 0.24690 -0.35100
H 	H 	0.29400 0.42600 0.21600 0.14400
N 	N 	0.54680 0.75120 0.37590 -0.16600
N 	N 	0.57450 0.82380 0.33304 -0.14600
C 	C 	0.48960 0.78160 0.43380 0.08800
H 	H 	0.45900 0.74630 0.47340 -0.04100
C 	C 	0.48050 0.87120 0.42900 -0.16900
H 	H 	0.44400 0.90670 0.46300 0.07400
C 	C 	0.53570 0.89680 0.36430 0.09500
H 	H 	0.54520 0.95410 0.34500 -0.01000
C 	C 	0.63500 0.81580 0.26120 0.23500
C 	C 	0.70260 0.87570 0.25310 -0.35100
H 	H 	0.70600 0.92600 0.28400 0.14400
N 	N 	0.70320 0.12590 0.00120 -0.16600
N 	N 	0.67550 0.08304 0.07380 -0.14600
C 	C 	0.76040 0.18380 0.03160 0.08800
H 	H 	0.79100 0.22340 0.99630 -0.04100
C 	C 	0.76950 0.17900 0.12120 -0.16900
H 	H 	0.80600 0.21300 0.15670 0.07400
C 	C 	0.71430 0.11430 0.14680 0.09500
H 	H 	0.70480 0.09500 0.20410 -0.01000
C 	C 	0.61500 0.01120 0.06580 0.23600
C 	C 	0.54740 0.00310 0.12570 -0.35100
H 	H 	0.54400 0.03400 0.17600 0.14400
N 	N 	0.79680 0.87410 0.50120 -0.16600
N 	N 	0.82450 0.91696 0.57380 -0.14600
C 	C 	0.73960 0.81620 0.53160 0.08800
H 	H 	0.70900 0.77660 0.49630 -0.04100
C 	C 	0.73050 0.82100 0.62120 -0.16900
H 	H 	0.69400 0.78700 0.65670 0.07400
C 	C 	0.78570 0.88570 0.64680 0.09500
H 	H 	0.79520 0.90500 0.70410 -0.01000
C 	C 	0.88500 0.98880 0.56580 0.23500
C 	C 	0.95260 0.99690 0.62570 -0.35100
H 	H 	0.95600 0.96600 0.67600 0.14400
N 	N 	0.20320 0.37410 0.99880 -0.16600
N 	N 	0.17550 0.41696 0.92620 -0.14600
C 	C 	0.26040 0.31620 0.96840 0.08900
H 	H 	0.29100 0.27660 0.00370 -0.04200
C 	C 	0.26950 0.32100 0.87880 -0.17000
H 	H 	0.30600 0.28700 0.84330 0.07400
C 	C 	0.21430 0.38570 0.85320 0.09600
H 	H 	0.20480 0.40500 0.79590 -0.01000
C 	C 	0.11500 0.48880 0.93420 0.23600
C 	C 	0.04740 0.49690 0.87430 -0.35000
H 	H 	0.04400 0.46600 0.82400 0.14400
N 	N 	0.29680 0.62590 0.49880 -0.16600
N 	N 	0.32450 0.58304 0.42620 -0.14600
C 	C 	0.23960 0.68380 0.46840 0.08800
H 	H 	0.20900 0.72340 0.50370 -0.04100
C 	C 	0.23050 0.67900 0.37880 -0.16900
H 	H 	0.19400 0.71300 0.34330 0.07400
C 	C 	0.28570 0.61430 0.35320 0.09500
H 	H 	0.29520 0.59500 0.29590 -0.01000
C 	C 	0.38500 0.51120 0.43420 0.23500
C 	C 	0.45260 0.50310 0.37430 -0.35100
H 	H 	0.45600 0.53400 0.32400 0.14400
N 	N 	0.62590 0.49880 0.29680 -0.16600
N 	N 	0.58304 0.42620 0.32450 -0.14600
C 	C 	0.68380 0.46840 0.23960 0.08800
H 	H 	0.72340 0.50370 0.20900 -0.04100
C 	C 	0.67900 0.37880 0.23050 -0.16900
H 	H 	0.71300 0.34330 0.19400 0.07400
C 	C 	0.61430 0.35320 0.28570 0.09500
H 	H 	0.59500 0.29590 0.29520 -0.01000
C 	C 	0.51120 0.43420 0.38500 0.23500
C 	C 	0.50310 0.37430 0.45260 -0.35100
H 	H 	0.53400 0.32400 0.45600 0.14400
N 	N 	0.37410 0.99880 0.20320 -0.16600
N 	N 	0.41696 0.92620 0.17550 -0.14600
C 	C 	0.31620 0.96840 0.26040 0.08900
H 	H 	0.27660 0.00370 0.29100 -0.04200
C 	C 	0.32100 0.87880 0.26950 -0.17000
H 	H 	0.28700 0.84330 0.30600 0.07400
C 	C 	0.38570 0.85320 0.21430 0.09600
H 	H 	0.40500 0.79590 0.20480 -0.01000
C 	C 	0.48880 0.93420 0.11500 0.23600
C 	C 	0.49690 0.87430 0.04740 -0.35000
H 	H 	0.46600 0.82400 0.04400 0.14400
N 	N 	0.87410 0.50120 0.79680 -0.16600
N 	N 	0.91696 0.57380 0.82450 -0.14600
C 	C 	0.81620 0.53160 0.73960 0.08800
H 	H 	0.77660 0.49630 0.70900 -0.04100
C 	C 	0.82100 0.62120 0.73050 -0.16900
H 	H 	0.78700 0.65670 0.69400 0.07400
C 	C 	0.88570 0.64680 0.78570 0.09500
H 	H 	0.90500 0.70410 0.79520 -0.01000
C 	C 	0.98880 0.56580 0.88500 0.23500
C 	C 	0.99690 0.62570 0.95260 -0.35100
H 	H 	0.96600 0.67600 0.95600 0.14400
N 	N 	0.12590 0.00120 0.70320 -0.16600
N 	N 	0.08304 0.07380 0.67550 -0.14600
C 	C 	0.18380 0.03160 0.76040 0.08800
H 	H 	0.22340 0.99630 0.79100 -0.04100
C 	C 	0.17900 0.12120 0.76950 -0.16900
H 	H 	0.21300 0.15670 0.80600 0.07400
C 	C 	0.11430 0.14680 0.71430 0.09500
H 	H 	0.09500 0.20410 0.70480 -0.01000
C 	C 	0.01120 0.06580 0.61500 0.23600
C 	C 	0.00310 0.12570 0.54740 -0.35100
H 	H 	0.03400 0.17600 0.54400 0.14400
N 	N 	0.99880 0.20320 0.37410 -0.16600
N 	N 	0.92620 0.17550 0.41696 -0.14600
C 	C 	0.96840 0.26040 0.31620 0.08900
H 	H 	0.00370 0.29100 0.27660 -0.04200
C 	C 	0.87880 0.26950 0.32100 -0.17000
H 	H 	0.84330 0.30600 0.28700 0.07400
C 	C 	0.85320 0.21430 0.38570 0.09600
H 	H 	0.79590 0.20480 0.40500 -0.01000
C 	C 	0.93420 0.11500 0.48880 0.23600
C 	C 	0.87430 0.04740 0.49690 -0.35000
H 	H 	0.82400 0.04400 0.46600 0.14400
N 	N 	0.49880 0.29680 0.62590 -0.16600
N 	N 	0.42620 0.32450 0.58304 -0.14600
C 	C 	0.46840 0.23960 0.68380 0.08800
H 	H 	0.50370 0.20900 0.72340 -0.04100
C 	C 	0.37880 0.23050 0.67900 -0.16900
H 	H 	0.34330 0.19400 0.71300 0.07400
C 	C 	0.35320 0.28570 0.61430 0.09500
H 	H 	0.29590 0.29520 0.59500 -0.01000
C 	C 	0.43420 0.38500 0.51120 0.23500
C 	C 	0.37430 0.45260 0.50310 -0.35100
H 	H 	0.32400 0.45600 0.53400 0.14400
N 	N 	0.00120 0.70320 0.12590 -0.16600
N 	N 	0.07380 0.67550 0.08304 -0.14600
C 	C 	0.03160 0.76040 0.18380 0.08800
H 	H 	0.99630 0.79100 0.22340 -0.04100
C 	C 	0.12120 0.76950 0.17900 -0.16900
H 	H 	0.15670 0.80600 0.21300 0.07400
C 	C 	0.14680 0.71430 0.11430 0.09500
H 	H 	0.20410 0.70480 0.09500 -0.01000
C 	C 	0.06580 0.61500 0.01120 0.23600
C 	C 	0.12570 0.54740 0.00310 -0.35100
H 	H 	0.17600 0.54400 0.03400 0.14400
N 	N 	0.50120 0.79680 0.87410 -0.16600
N 	N 	0.57380 0.82450 0.91696 -0.14600
C 	C 	0.53160 0.73960 0.81620 0.08800
H 	H 	0.49630 0.70900 0.77660 -0.04100
C 	C 	0.62120 0.73050 0.82100 -0.16900
H 	H 	0.65670 0.69400 0.78700 0.07400
C 	C 	0.64680 0.78570 0.88570 0.09500
H 	H 	0.70410 0.79520 0.90500 -0.01000
C 	C 	0.56580 0.88500 0.98880 0.23500
C 	C 	0.62570 0.95260 0.99690 -0.35100
H 	H 	0.67600 0.95600 0.96600 0.14400
Ag	Ag	0.87058 0.87942 0.37500 0.49200
Ag	Ag	0.62942 0.12058 0.87500 0.49200
Ag	Ag	0.12942 0.37942 0.12500 0.49200
Ag	Ag	0.37058 0.62058 0.62500 0.49200
Ag	Ag	0.37500 0.87058 0.87942 0.49200
Ag	Ag	0.87500 0.62942 0.12058 0.49200
Ag	Ag	0.12500 0.12942 0.37942 0.49200
Ag	Ag	0.62500 0.37058 0.62058 0.49200
Ag	Ag	0.87942 0.37500 0.87058 0.49200
Ag	Ag	0.12058 0.87500 0.62942 0.49200
Ag	Ag	0.37942 0.12500 0.12942 0.49200
Ag	Ag	0.62058 0.62500 0.37058 0.49200
