data_crystal

_cell_length_a 8.79800
_cell_length_b 15.62700
_cell_length_c 17.96900
_cell_angle_alpha 105.46000
_cell_angle_beta  98.58000
_cell_angle_gamma 98.15000

_symmetry_space_group_name_	'P 1'
_symmetry_space_group_name_H-M	'P 1'

loop_
_symmetry_equiv_pos_as_xyz
  x,y,z

loop_
_atom_site_label
_atom_site_type_symbol
_atom_site_fract_x
_atom_site_fract_y
_atom_site_fract_z
_atom_site_charge
Eu	Eu	0.82668 0.16992 0.77584 0.90100
Eu	Eu	0.17332 0.83008 0.22416 0.85200
K 	K 	0.94140 0.29655 0.38712 0.61500
K 	K 	0.05860 0.70345 0.61288 0.58100
Ni	Ni	-0.00000 0.00000 -0.00000 0.90300
Ni	Ni	-0.00000 0.00000 0.50000 0.92900
Ni	Ni	-0.00000 0.50000 -0.00000 0.95500
Ni	Ni	0.50000 0.50000 0.50000 1.04900
C 	C 	0.94350 0.06120 0.92640 -0.18700
C 	C 	0.83260 0.90510 0.95030 -0.09600
C 	C 	0.96280 0.06100 0.59790 -0.25100
C 	C 	0.92860 0.08660 0.45710 -0.26400
C 	C 	0.91750 0.38370 0.93210 -0.14500
C 	C 	0.83900 0.49170 0.05620 -0.23900
C 	C 	0.61550 0.41890 0.44980 -0.29600
C 	C 	0.33850 0.40500 0.48770 -0.34000
C 	C 	0.05650 0.93880 0.07360 -0.28100
C 	C 	0.16740 0.09490 0.04970 -0.44000
C 	C 	0.03720 0.93900 0.40210 -0.28100
C 	C 	0.07140 0.91340 0.54290 -0.29200
C 	C 	0.08250 0.61630 0.06790 -0.35800
C 	C 	0.16100 0.50830 0.94380 -0.29800
C 	C 	0.38450 0.58110 0.55020 -0.30300
C 	C 	0.66150 0.59500 0.51230 -0.29600
N 	N 	0.91190 0.10040 0.88310 -0.18600
N 	N 	0.72740 0.84640 0.92340 -0.08600
N 	N 	0.93390 0.09780 0.65750 -0.19500
N 	N 	0.88200 0.13990 0.43030 -0.15100
N 	N 	0.86940 0.31350 0.88830 -0.18900
N 	N 	0.74370 0.48600 0.09260 -0.10100
N 	N 	0.69100 0.37130 0.42070 -0.14400
N 	N 	0.23680 0.34790 0.47980 -0.18000
N 	N 	0.08810 0.89960 0.11690 -0.18700
N 	N 	0.27260 0.15360 0.07660 -0.11300
N 	N 	0.06610 0.90220 0.34250 -0.20200
N 	N 	0.11800 0.86010 0.56970 -0.15700
N 	N 	0.13060 0.68650 0.11170 -0.18100
N 	N 	0.25630 0.51400 0.90740 -0.09000
N 	N 	0.30900 0.62870 0.57930 -0.15600
N 	N 	0.76320 0.65210 0.52020 -0.10000
