data_crystal

_cell_length_a 8.85150
_cell_length_b 15.67330
_cell_length_c 17.94570
_cell_angle_alpha 105.45900
_cell_angle_beta  99.10000
_cell_angle_gamma 98.58600

_symmetry_space_group_name_	'P 1'
_symmetry_space_group_name_H-M	'P 1'

loop_
_symmetry_equiv_pos_as_xyz
  x,y,z

loop_
_atom_site_label
_atom_site_type_symbol
_atom_site_fract_x
_atom_site_fract_y
_atom_site_fract_z
_atom_site_charge
Yb	Yb	0.31963 0.16822 0.27452 1.24900
Yb	Yb	0.68037 0.83178 0.72548 1.26700
K 	K 	0.55430 0.70630 0.11910 0.60100
K 	K 	0.44570 0.29370 0.88090 0.60200
Pt	Pt	0.50000 0.00000 0.50000 0.25100
Pt	Pt	0.50000 0.50000 0.50000 0.28300
Pt	Pt	0.50000 0.00000 -0.00000 0.21300
Pt	Pt	-0.00000 0.50000 -0.00000 0.23700
C 	C 	0.43800 0.06240 0.42210 -0.08000
C 	C 	0.68600 0.10130 0.54850 -0.08900
C 	C 	0.40800 0.37550 0.42560 -0.06500
C 	C 	0.32900 0.49300 0.55760 -0.08800
C 	C 	0.45500 0.06260 0.10410 -0.09700
C 	C 	0.59500 0.91460 0.04840 -0.09200
C 	C 	0.17100 0.60530 0.00920 -0.10300
C 	C 	0.87900 0.58140 0.05810 -0.08000
C 	C 	0.56200 0.93760 0.57790 -0.05100
C 	C 	0.31400 0.89870 0.45150 -0.06700
C 	C 	0.59200 0.62450 0.57440 -0.06000
C 	C 	0.67100 0.50700 0.44240 -0.08600
C 	C 	0.54500 0.93740 0.89590 -0.04700
C 	C 	0.40500 0.08540 0.95160 -0.09800
C 	C 	0.82900 0.39470 0.99080 -0.06800
C 	C 	0.12100 0.41860 0.94190 -0.06900
N 	N 	0.40500 0.10160 0.37850 -0.28300
N 	N 	0.79100 0.15960 0.57580 -0.13800
N 	N 	0.35980 0.30570 0.37960 -0.29500
N 	N 	0.23200 0.48880 0.59450 -0.13700
N 	N 	0.42310 0.09680 0.16220 -0.30500
N 	N 	0.64700 0.86090 0.07510 -0.19300
N 	N 	0.26600 0.66490 0.01540 -0.19000
N 	N 	0.80800 0.62730 0.09040 -0.19400
N 	N 	0.59500 0.89840 0.62150 -0.28000
N 	N 	0.20900 0.84040 0.42420 -0.14100
N 	N 	0.64020 0.69430 0.62040 -0.29000
N 	N 	0.76800 0.51120 0.40550 -0.13400
N 	N 	0.57690 0.90320 0.83780 -0.30200
N 	N 	0.35300 0.13910 0.92490 -0.19600
N 	N 	0.73400 0.33510 0.98460 -0.18900
N 	N 	0.19200 0.37270 0.90960 -0.19600
