data_crystal

_cell_length_a 11.26900
_cell_length_b 11.27000
_cell_length_c 20.71100
_cell_angle_alpha 77.60800
_cell_angle_beta  77.60300
_cell_angle_gamma 64.72700

_symmetry_space_group_name_	'P 1'
_symmetry_space_group_name_H-M	'P 1'

loop_
_symmetry_equiv_pos_as_xyz
  x,y,z

loop_
_atom_site_label
_atom_site_type_symbol
_atom_site_fract_x
_atom_site_fract_y
_atom_site_fract_z
_atom_site_charge
Ni	Ni	0.63538 0.46531 0.06926 1.11400
Ni	Ni	0.53470 0.36453 0.43081 1.11400
Ni	Ni	0.36462 0.53469 0.93074 1.11400
Ni	Ni	0.46530 0.63547 0.56919 1.11400
H 	H 	0.69730 0.68510 0.97710 0.00400
H 	H 	0.69870 0.88650 0.97640 0.08000
H 	H 	0.56870 0.86010 0.17030 0.09200
H 	H 	0.56970 0.65880 0.16540 0.00900
H 	H 	0.78040 0.02300 0.99480 0.08100
H 	H 	0.77750 0.22580 0.99670 -0.00300
H 	H 	0.50480 0.28490 0.15060 0.01000
H 	H 	0.50110 0.08230 0.15450 0.08700
H 	H 	0.33940 0.43110 0.33420 0.00800
H 	H 	0.14190 0.42890 0.32940 0.09200
H 	H 	0.11450 0.30120 0.52380 0.08200
H 	H 	0.31500 0.30390 0.52280 0.00400
H 	H 	0.71460 0.49440 0.34960 0.01000
H 	H 	0.91670 0.49880 0.34540 0.08700
H 	H 	0.77480 0.22260 0.50390 -0.00300
H 	H 	0.97720 0.22020 0.50520 0.08000
H 	H 	0.85030 0.27640 0.25830 -0.00500
H 	H 	0.03640 0.18500 0.31210 0.14900
H 	H 	0.25890 0.23690 0.14000 0.15100
H 	H 	0.07590 0.31840 0.08510 -0.01400
H 	H 	0.27470 0.93970 0.24160 0.15500
H 	H 	0.35470 0.73240 0.30410 -0.02800
H 	H 	0.43720 0.88760 0.43620 -0.02500
H 	H 	0.36260 0.09290 0.37210 0.16800
H 	H 	0.11310 0.56240 0.06350 -0.02500
H 	H 	0.90650 0.63670 0.12830 0.16800
H 	H 	0.06020 0.72570 0.25770 0.15800
H 	H 	0.26730 0.64290 0.19660 -0.03000
H 	H 	0.81550 0.96450 0.18780 0.14900
H 	H 	0.72410 0.14940 0.24170 -0.00500
H 	H 	0.68170 0.92410 0.41490 -0.01400
H 	H 	0.76320 0.74070 0.36000 0.15100
H 	H 	0.30270 0.31490 0.02290 0.00500
H 	H 	0.30130 0.11350 0.02360 0.08100
H 	H 	0.43130 0.13990 0.82970 0.09200
H 	H 	0.43030 0.34120 0.83460 0.00900
H 	H 	0.21960 0.97700 0.00520 0.08100
H 	H 	0.22250 0.77420 0.00330 -0.00300
H 	H 	0.49520 0.71510 0.84940 0.01000
H 	H 	0.49890 0.91770 0.84550 0.08700
H 	H 	0.66060 0.56890 0.66580 0.00800
H 	H 	0.85810 0.57110 0.67060 0.09200
H 	H 	0.88550 0.69880 0.47620 0.08200
H 	H 	0.68500 0.69610 0.47720 0.00400
H 	H 	0.28540 0.50560 0.65040 0.01000
H 	H 	0.08330 0.50120 0.65460 0.08700
H 	H 	0.22520 0.77740 0.49610 -0.00300
H 	H 	0.02280 0.77980 0.49480 0.08000
H 	H 	0.14970 0.72360 0.74170 -0.00500
H 	H 	0.96360 0.81500 0.68790 0.14900
H 	H 	0.74110 0.76310 0.86000 0.15100
H 	H 	0.92410 0.68160 0.91490 -0.01400
H 	H 	0.72530 0.06030 0.75840 0.15500
H 	H 	0.64530 0.26760 0.69590 -0.02800
H 	H 	0.56280 0.11240 0.56380 -0.02500
H 	H 	0.63740 0.90710 0.62790 0.16800
H 	H 	0.88690 0.43760 0.93650 -0.02500
H 	H 	0.09350 0.36330 0.87170 0.16800
H 	H 	0.93980 0.27430 0.74230 0.15800
H 	H 	0.73270 0.35710 0.80340 -0.03000
H 	H 	0.18450 0.03550 0.81220 0.14900
H 	H 	0.27590 0.85060 0.75830 -0.00500
H 	H 	0.31830 0.07590 0.58510 -0.01400
H 	H 	0.23680 0.25930 0.64000 0.15100
C 	C 	0.66990 0.72100 0.01690 0.09000
C 	C 	0.67160 0.84230 0.01620 -0.14400
C 	C 	0.63380 0.89870 0.07330 0.06800
C 	C 	0.59520 0.82700 0.12980 -0.14700
C 	C 	0.59590 0.70550 0.12630 0.09500
C 	C 	0.63690 0.02930 0.07380 0.05800
C 	C 	0.72220 0.07490 0.02680 -0.14000
C 	C 	0.71950 0.19740 0.02830 0.08800
C 	C 	0.56030 0.23180 0.11850 0.08700
C 	C 	0.55710 0.11000 0.12100 -0.14100
C 	C 	0.29340 0.40410 0.37330 0.09600
C 	C 	0.17440 0.40360 0.37010 -0.14900
C 	C 	0.10150 0.36580 0.42670 0.06800
C 	C 	0.15840 0.32830 0.48390 -0.14600
C 	C 	0.27920 0.33050 0.48310 0.09300
C 	C 	0.76790 0.43910 0.38170 0.08700
C 	C 	0.88950 0.44260 0.37900 -0.14000
C 	C 	0.97180 0.36250 0.42620 0.05600
C 	C 	0.80300 0.28050 0.47200 0.08700
C 	C 	0.92540 0.27820 0.47310 -0.13800
C 	C 	0.82660 0.36310 0.12990 0.33900
C 	C 	0.94390 0.30510 0.16620 -0.19900
C 	C 	0.93270 0.26660 0.23400 0.17500
C 	C 	0.04390 0.21320 0.26630 -0.31200
C 	C 	0.16490 0.20190 0.23060 0.33000
C 	C 	0.17700 0.24270 0.16370 -0.31400
C 	C 	0.06710 0.29280 0.13100 0.17400
C 	C 	0.31210 0.03430 0.30100 0.34800
C 	C 	0.30890 0.92850 0.28060 -0.34700
C 	C 	0.35670 0.80460 0.31800 0.21600
C 	C 	0.40730 0.78760 0.37620 -0.25200
C 	C 	0.40630 0.89710 0.39640 0.21200
C 	C 	0.36060 0.02030 0.35860 -0.33400
C 	C 	0.46170 0.65260 0.41690 0.43900
C 	C 	0.34730 0.53890 0.08350 0.43600
C 	C 	0.21160 0.59320 0.12340 -0.25500
C 	C 	0.10340 0.59320 0.10330 0.21200
C 	C 	0.97910 0.63890 0.14170 -0.33400
C 	C 	0.96580 0.68670 0.19920 0.35200
C 	C 	0.07140 0.69050 0.21900 -0.35500
C 	C 	0.19480 0.64240 0.18210 0.22300
C 	C 	0.79770 0.83500 0.26960 0.32700
C 	C 	0.78700 0.95690 0.23350 -0.31000
C 	C 	0.73390 0.06680 0.26590 0.17500
C 	C 	0.69490 0.05530 0.33400 -0.19800
C 	C 	0.70720 0.93280 0.36900 0.17400
C 	C 	0.75730 0.82260 0.33630 -0.31400
C 	C 	0.63740 0.17280 0.37050 0.33800
C 	C 	0.33010 0.27900 0.98310 0.09000
C 	C 	0.32840 0.15770 0.98380 -0.14400
C 	C 	0.36620 0.10130 0.92670 0.06800
C 	C 	0.40480 0.17300 0.87020 -0.14700
C 	C 	0.40410 0.29450 0.87370 0.09500
C 	C 	0.36310 0.97070 0.92620 0.05800
C 	C 	0.27780 0.92510 0.97320 -0.14000
C 	C 	0.28050 0.80260 0.97170 0.08800
C 	C 	0.43970 0.76820 0.88150 0.08700
C 	C 	0.44290 0.89000 0.87900 -0.14100
C 	C 	0.70660 0.59590 0.62670 0.09600
C 	C 	0.82560 0.59640 0.62990 -0.14900
C 	C 	0.89850 0.63420 0.57330 0.06800
C 	C 	0.84160 0.67170 0.51610 -0.14600
C 	C 	0.72080 0.66950 0.51690 0.09300
C 	C 	0.23210 0.56090 0.61830 0.08700
C 	C 	0.11050 0.55740 0.62100 -0.14000
C 	C 	0.02820 0.63750 0.57380 0.05600
C 	C 	0.19700 0.71950 0.52800 0.08700
C 	C 	0.07460 0.72180 0.52690 -0.13800
C 	C 	0.17340 0.63690 0.87010 0.33900
C 	C 	0.05610 0.69490 0.83380 -0.19900
C 	C 	0.06730 0.73340 0.76600 0.17500
C 	C 	0.95610 0.78680 0.73370 -0.31200
C 	C 	0.83510 0.79810 0.76940 0.33000
C 	C 	0.82300 0.75730 0.83630 -0.31400
C 	C 	0.93290 0.70720 0.86900 0.17400
C 	C 	0.68790 0.96570 0.69900 0.34800
C 	C 	0.69110 0.07150 0.71940 -0.34700
C 	C 	0.64330 0.19540 0.68200 0.21600
C 	C 	0.59270 0.21240 0.62380 -0.25200
C 	C 	0.59370 0.10290 0.60360 0.21200
C 	C 	0.63940 0.97970 0.64140 -0.33400
C 	C 	0.53830 0.34740 0.58310 0.43900
C 	C 	0.65270 0.46110 0.91650 0.43600
C 	C 	0.78840 0.40680 0.87660 -0.25500
C 	C 	0.89660 0.40680 0.89670 0.21200
C 	C 	0.02090 0.36110 0.85830 -0.33400
C 	C 	0.03420 0.31330 0.80080 0.35200
C 	C 	0.92860 0.30950 0.78100 -0.35500
C 	C 	0.80520 0.35760 0.81790 0.22300
C 	C 	0.20230 0.16500 0.73040 0.32700
C 	C 	0.21300 0.04310 0.76650 -0.31000
C 	C 	0.26610 0.93320 0.73410 0.17500
C 	C 	0.30510 0.94470 0.66600 -0.19800
C 	C 	0.29280 0.06720 0.63100 0.17400
C 	C 	0.24270 0.17740 0.66370 -0.31400
C 	C 	0.36260 0.82720 0.62950 0.33800
N 	N 	0.63130 0.65240 0.07117 -0.22400
N 	N 	0.63930 0.27740 0.07206 -0.22800
N 	N 	0.34760 0.36830 0.42890 -0.22400
N 	N 	0.72270 0.36040 0.42809 -0.22800
N 	N 	0.36870 0.34760 0.92883 -0.22400
N 	N 	0.36070 0.72260 0.92794 -0.22800
N 	N 	0.65240 0.63170 0.57110 -0.22400
N 	N 	0.27730 0.63960 0.57191 -0.22800
O 	O 	0.84330 0.38260 0.06722 -0.37800
O 	O 	0.71160 0.39300 0.16192 -0.36500
O 	O 	0.44160 0.54010 0.10516 -0.43800
O 	O 	0.35700 0.49130 0.03180 -0.44800
O 	O 	0.45990 0.55830 0.39471 -0.43600
O 	O 	0.50810 0.64300 0.46816 -0.45400
O 	O 	0.60710 0.28790 0.33813 -0.36300
O 	O 	0.61730 0.15650 0.43298 -0.37900
O 	O 	0.27550 0.15840 0.26240 -0.33100
O 	O 	0.84120 0.72420 0.23790 -0.33000
O 	O 	0.15670 0.61740 0.93278 -0.37800
O 	O 	0.28840 0.60700 0.83808 -0.36500
O 	O 	0.55840 0.45990 0.89484 -0.43800
O 	O 	0.64300 0.50870 0.96820 -0.44800
O 	O 	0.54010 0.44170 0.60529 -0.43600
O 	O 	0.49190 0.35700 0.53184 -0.45400
O 	O 	0.39290 0.71210 0.66187 -0.36300
O 	O 	0.38270 0.84350 0.56702 -0.37900
O 	O 	0.72450 0.84160 0.73760 -0.33100
O 	O 	0.15880 0.27580 0.76210 -0.33000
