data_crystal

_cell_length_a 8.43400
_cell_length_b 11.73700
_cell_length_c 12.80400
_cell_angle_alpha 90.00000
_cell_angle_beta  103.40000
_cell_angle_gamma 90.00000

_symmetry_space_group_name_	'P 1'
_symmetry_space_group_name_H-M	'P 1'

loop_
_symmetry_equiv_pos_as_xyz
  x,y,z

loop_
_atom_site_label
_atom_site_type_symbol
_atom_site_fract_x
_atom_site_fract_y
_atom_site_fract_z
_atom_site_charge
Ag	Ag	0.66660 0.88178 0.68130 0.35100
Ag	Ag	0.93250 0.73798 0.79642 0.26100
Ag	Ag	0.67710 0.59787 0.64878 0.38700
Ag	Ag	0.06990 0.63773 0.62083 0.42400
Ag	Ag	0.05560 0.89280 0.64750 0.36500
Ag	Ag	0.24324 0.70424 0.18216 0.41800
Ag	Ag	0.33330 0.92854 0.05817 0.28200
Ag	Ag	0.41331 0.69866 0.00243 0.23200
Ag	Ag	0.73270 0.80126 0.12141 0.36600
Ag	Ag	0.33340 0.38178 0.31870 0.34800
Ag	Ag	0.06750 0.23798 0.20358 0.25800
Ag	Ag	0.32290 0.09787 0.35122 0.38300
Ag	Ag	0.93010 0.13773 0.37917 0.42100
Ag	Ag	0.94440 0.39280 0.35250 0.36200
Ag	Ag	0.75676 0.20424 0.81784 0.41700
Ag	Ag	0.66670 0.42854 0.94183 0.28000
Ag	Ag	0.58669 0.19866 0.99757 0.23100
Ag	Ag	0.26730 0.30126 0.87859 0.36500
H 	H 	0.81570 0.72880 0.37610 0.04200
H 	H 	0.77990 0.85800 0.39180 0.05900
H 	H 	0.56870 0.68140 0.38210 -0.00900
H 	H 	0.53090 0.80590 0.41500 0.01200
H 	H 	0.18430 0.22880 0.62390 0.04100
H 	H 	0.22010 0.35800 0.60820 0.05800
H 	H 	0.43130 0.18140 0.61790 -0.01000
H 	H 	0.46910 0.30590 0.58500 0.01000
C 	C 	0.84260 0.75750 0.63100 -0.53400
C 	C 	0.81000 0.76700 0.53000 0.02900
C 	C 	0.75500 0.78100 0.41100 -0.19900
C 	C 	0.59200 0.76100 0.37400 -0.11200
C 	C 	0.54000 0.79600 0.25080 0.01500
C 	C 	0.47550 0.79670 0.15730 -0.52000
C 	C 	0.15740 0.25750 0.36900 -0.53500
C 	C 	0.19000 0.26700 0.47000 0.02800
C 	C 	0.24500 0.28100 0.58900 -0.19900
C 	C 	0.40800 0.26100 0.62600 -0.11200
C 	C 	0.46000 0.29600 0.74920 0.01400
C 	C 	0.52450 0.29670 0.84270 -0.52100
N 	N 	0.95170 0.40440 0.74930 0.06500
N 	N 	0.18340 0.61790 0.41500 0.06700
N 	N 	0.04830 0.90440 0.25070 0.06500
N 	N 	0.81660 0.11790 0.58500 0.06700
O 	O 	0.80230 0.42390 0.71830 -0.33000
O 	O 	0.99710 0.30740 0.80340 -0.37400
O 	O 	0.05740 0.46680 0.72940 -0.35200
O 	O 	0.13000 0.54590 0.47040 -0.32400
O 	O 	0.22800 0.58620 0.33230 -0.35500
O 	O 	0.18300 0.72070 0.43820 -0.25000
O 	O 	0.19770 0.92390 0.28170 -0.32800
O 	O 	0.00290 0.80740 0.19660 -0.37200
O 	O 	0.94260 0.96680 0.27060 -0.34900
O 	O 	0.87000 0.04590 0.52960 -0.32800
O 	O 	0.77200 0.08620 0.66770 -0.35800
O 	O 	0.81700 0.22070 0.56180 -0.25200
