data_crystal

_cell_length_a 23.09200
_cell_length_b 23.09200
_cell_length_c 23.09200
_cell_angle_alpha 60.00000
_cell_angle_beta  60.00000
_cell_angle_gamma 60.00000

_symmetry_space_group_name_	'P 1'
_symmetry_space_group_name_H-M	'P 1'

loop_
_symmetry_equiv_pos_as_xyz
  x,y,z

loop_
_atom_site_label
_atom_site_type_symbol
_atom_site_fract_x
_atom_site_fract_y
_atom_site_fract_z
_atom_site_charge
H 	H 	0.62650 0.85270 0.55990 0.21600
H 	H 	0.44010 0.14730 0.37350 0.21500
H 	H 	0.41230 0.76470 0.58770 0.00800
H 	H 	0.41220 0.86700 0.58780 0.08300
C 	C 	0.44789 0.78531 0.55211 0.09500
C 	C 	0.44780 0.84620 0.55220 -0.19100
O 	O 	0.45047 0.66683 0.54953 -0.66500
H 	H 	0.85270 0.62650 0.96090 0.21500
H 	H 	0.14730 0.44010 0.03910 0.21400
H 	H 	0.76470 0.41230 0.23530 0.00800
H 	H 	0.86700 0.41220 0.13300 0.08300
C 	C 	0.78531 0.44789 0.21469 0.09500
C 	C 	0.84620 0.44780 0.15380 -0.19200
O 	O 	0.66683 0.45047 0.33317 -0.66500
H 	H 	0.55990 0.96090 0.62650 0.21600
H 	H 	0.37350 0.03910 0.44010 0.21500
H 	H 	0.58770 0.23530 0.41230 0.00900
H 	H 	0.58780 0.13300 0.41220 0.08400
C 	C 	0.55211 0.21469 0.44789 0.09600
C 	C 	0.55220 0.15380 0.44780 -0.19000
O 	O 	0.54953 0.33317 0.45047 -0.66400
H 	H 	0.96090 0.55990 0.85270 0.21500
H 	H 	0.03910 0.37350 0.14730 0.21500
H 	H 	0.23530 0.58770 0.76470 0.00900
H 	H 	0.13300 0.58780 0.86700 0.08400
C 	C 	0.21469 0.55211 0.78531 0.09600
C 	C 	0.15380 0.55220 0.84620 -0.19100
O 	O 	0.33317 0.54953 0.66683 -0.66400
H 	H 	0.55990 0.62650 0.85270 0.21700
H 	H 	0.37350 0.44010 0.14730 0.21600
H 	H 	0.58770 0.41230 0.76470 0.00900
H 	H 	0.58780 0.41220 0.86700 0.08400
C 	C 	0.55211 0.44789 0.78531 0.09600
C 	C 	0.55220 0.44780 0.84620 -0.19000
O 	O 	0.54953 0.45047 0.66683 -0.66400
H 	H 	0.96090 0.85270 0.62650 0.21600
H 	H 	0.03910 0.14730 0.44010 0.21500
H 	H 	0.23530 0.76470 0.41230 0.00900
H 	H 	0.13300 0.86700 0.41220 0.08400
C 	C 	0.21469 0.78531 0.44789 0.09600
C 	C 	0.15380 0.84620 0.44780 -0.19100
O 	O 	0.33317 0.66683 0.45047 -0.66400
H 	H 	0.62650 0.55990 0.96090 0.21600
H 	H 	0.44010 0.37350 0.03910 0.21500
H 	H 	0.41230 0.58770 0.23530 0.00900
H 	H 	0.41220 0.58780 0.13300 0.08400
C 	C 	0.44789 0.55211 0.21469 0.09600
C 	C 	0.44780 0.55220 0.15380 -0.19000
O 	O 	0.45047 0.54953 0.33317 -0.66400
H 	H 	0.85270 0.96090 0.55990 0.21500
H 	H 	0.14730 0.03910 0.37350 0.21500
H 	H 	0.76470 0.23530 0.58770 0.00900
H 	H 	0.86700 0.13300 0.58780 0.08400
C 	C 	0.78531 0.21469 0.55211 0.09600
C 	C 	0.84620 0.15380 0.55220 -0.19100
O 	O 	0.66683 0.33317 0.54953 -0.66400
H 	H 	0.85270 0.55990 0.62650 0.21700
H 	H 	0.14730 0.37350 0.44010 0.21600
H 	H 	0.76470 0.58770 0.41230 0.00900
H 	H 	0.86700 0.58780 0.41220 0.08400
C 	C 	0.78531 0.55211 0.44789 0.09600
C 	C 	0.84620 0.55220 0.44780 -0.19000
O 	O 	0.66683 0.54953 0.45047 -0.66400
H 	H 	0.62650 0.96090 0.85270 0.21600
H 	H 	0.44010 0.03910 0.14730 0.21500
H 	H 	0.41230 0.23530 0.76470 0.00900
H 	H 	0.41220 0.13300 0.86700 0.08400
C 	C 	0.44789 0.21469 0.78531 0.09600
C 	C 	0.44780 0.15380 0.84620 -0.19100
O 	O 	0.45047 0.33317 0.66683 -0.66400
H 	H 	0.96090 0.62650 0.55990 0.21600
H 	H 	0.03910 0.44010 0.37350 0.21500
H 	H 	0.23530 0.41230 0.58770 0.00900
H 	H 	0.13300 0.41220 0.58780 0.08400
C 	C 	0.21469 0.44789 0.55211 0.09600
C 	C 	0.15380 0.44780 0.55220 -0.19000
O 	O 	0.33317 0.45047 0.54953 -0.66400
H 	H 	0.55990 0.85270 0.96090 0.21500
H 	H 	0.37350 0.14730 0.03910 0.21500
H 	H 	0.58770 0.76470 0.23530 0.00900
H 	H 	0.58780 0.86700 0.13300 0.08400
C 	C 	0.55211 0.78531 0.21469 0.09600
C 	C 	0.55220 0.84620 0.15380 -0.19100
O 	O 	0.54953 0.66683 0.33317 -0.66400
H 	H 	0.85270 0.62650 0.55990 0.21700
H 	H 	0.14730 0.44010 0.37350 0.21600
H 	H 	0.76470 0.41230 0.58770 0.00900
H 	H 	0.86700 0.41220 0.58780 0.08400
C 	C 	0.78531 0.44789 0.55211 0.09600
C 	C 	0.84620 0.44780 0.55220 -0.19000
O 	O 	0.66683 0.45047 0.54953 -0.66400
H 	H 	0.62650 0.85270 0.96090 0.21600
H 	H 	0.44010 0.14730 0.03910 0.21500
H 	H 	0.41230 0.76470 0.23530 0.00900
H 	H 	0.41220 0.86700 0.13300 0.08400
C 	C 	0.44789 0.78531 0.21469 0.09600
C 	C 	0.44780 0.84620 0.15380 -0.19100
O 	O 	0.45047 0.66683 0.33317 -0.66400
H 	H 	0.96090 0.55990 0.62650 0.21600
H 	H 	0.03910 0.37350 0.44010 0.21500
H 	H 	0.23530 0.58770 0.41230 0.00900
H 	H 	0.13300 0.58780 0.41220 0.08400
C 	C 	0.21469 0.55211 0.44789 0.09600
C 	C 	0.15380 0.55220 0.44780 -0.19000
O 	O 	0.33317 0.54953 0.45047 -0.66400
H 	H 	0.55990 0.96090 0.85270 0.21500
H 	H 	0.37350 0.03910 0.14730 0.21500
H 	H 	0.58770 0.23530 0.76470 0.00900
H 	H 	0.58780 0.13300 0.86700 0.08400
C 	C 	0.55211 0.21469 0.78531 0.09600
C 	C 	0.55220 0.15380 0.84620 -0.19100
O 	O 	0.54953 0.33317 0.66683 -0.66400
H 	H 	0.62650 0.55990 0.85270 0.21700
H 	H 	0.44010 0.37350 0.14730 0.21600
H 	H 	0.41230 0.58770 0.76470 0.00900
H 	H 	0.41220 0.58780 0.86700 0.08400
C 	C 	0.44789 0.55211 0.78531 0.09600
C 	C 	0.44780 0.55220 0.84620 -0.19000
O 	O 	0.45047 0.54953 0.66683 -0.66400
H 	H 	0.85270 0.96090 0.62650 0.21600
H 	H 	0.14730 0.03910 0.44010 0.21500
H 	H 	0.76470 0.23530 0.41230 0.00900
H 	H 	0.86700 0.13300 0.41220 0.08400
C 	C 	0.78531 0.21469 0.44789 0.09600
C 	C 	0.84620 0.15380 0.44780 -0.19100
O 	O 	0.66683 0.33317 0.45047 -0.66400
H 	H 	0.55990 0.62650 0.96090 0.21600
H 	H 	0.37350 0.44010 0.03910 0.21500
H 	H 	0.58770 0.41230 0.23530 0.00900
H 	H 	0.58780 0.41220 0.13300 0.08400
C 	C 	0.55211 0.44789 0.21469 0.09600
C 	C 	0.55220 0.44780 0.15380 -0.19000
O 	O 	0.54953 0.45047 0.33317 -0.66400
H 	H 	0.96090 0.85270 0.55990 0.21500
H 	H 	0.03910 0.14730 0.37350 0.21500
H 	H 	0.23530 0.76470 0.58770 0.00900
H 	H 	0.13300 0.86700 0.58780 0.08400
C 	C 	0.21469 0.78531 0.55211 0.09600
C 	C 	0.15380 0.84620 0.55220 -0.19100
O 	O 	0.33317 0.66683 0.54953 -0.66400
H 	H 	0.55990 0.85270 0.62650 0.21700
H 	H 	0.37350 0.14730 0.44010 0.21600
H 	H 	0.58770 0.76470 0.41230 0.00900
H 	H 	0.58780 0.86700 0.41220 0.08400
C 	C 	0.55211 0.78531 0.44789 0.09600
C 	C 	0.55220 0.84620 0.44780 -0.19000
O 	O 	0.54953 0.66683 0.45047 -0.66400
H 	H 	0.96090 0.62650 0.85270 0.21600
H 	H 	0.03910 0.44010 0.14730 0.21500
H 	H 	0.23530 0.41230 0.76470 0.00900
H 	H 	0.13300 0.41220 0.86700 0.08400
C 	C 	0.21469 0.44789 0.78531 0.09600
C 	C 	0.15380 0.44780 0.84620 -0.19100
O 	O 	0.33317 0.45047 0.66683 -0.66400
H 	H 	0.62650 0.96090 0.55990 0.21600
H 	H 	0.44010 0.03910 0.37350 0.21500
H 	H 	0.41230 0.23530 0.58770 0.00900
H 	H 	0.41220 0.13300 0.58780 0.08400
C 	C 	0.44789 0.21469 0.55211 0.09600
C 	C 	0.44780 0.15380 0.55220 -0.19000
O 	O 	0.45047 0.33317 0.54953 -0.66400
H 	H 	0.85270 0.55990 0.96090 0.21500
H 	H 	0.14730 0.37350 0.03910 0.21500
H 	H 	0.76470 0.58770 0.23530 0.00900
H 	H 	0.86700 0.58780 0.13300 0.08400
C 	C 	0.78531 0.55211 0.21469 0.09600
C 	C 	0.84620 0.55220 0.15380 -0.19100
O 	O 	0.66683 0.54953 0.33317 -0.66400
Zr	Zr	0.42465 0.57535 0.57535 3.22100
Zr	Zr	0.57535 0.42465 0.42465 3.22100
Zr	Zr	0.57535 0.42465 0.57535 3.22100
Zr	Zr	0.42465 0.57535 0.42465 3.22100
Zr	Zr	0.57535 0.57535 0.42465 3.22100
Zr	Zr	0.42465 0.42465 0.57535 3.22100
H 	H 	0.57190 0.82430 0.57190 0.22800
H 	H 	0.42810 0.17570 0.42810 0.22700
C 	C 	0.50000 0.68934 0.50000 0.53100
C 	C 	0.50000 0.75520 0.50000 -0.18500
C 	C 	0.50000 0.87520 0.50000 0.13200
C 	C 	0.50000 0.94066 0.50000 -0.15700
C 	C 	0.53718 0.93272 0.53718 0.12400
C 	C 	0.57770 0.85910 0.57770 -0.68000
C 	C 	0.46282 0.06728 0.46282 0.12400
C 	C 	0.42230 0.14090 0.42230 -0.67800
H 	H 	0.82430 0.57190 0.03190 0.22600
H 	H 	0.17570 0.42810 0.96810 0.22500
C 	C 	0.68934 0.50000 0.31066 0.53100
C 	C 	0.75520 0.50000 0.24480 -0.18500
C 	C 	0.87520 0.50000 0.12480 0.13200
C 	C 	0.94066 0.50000 0.05934 -0.15900
C 	C 	0.93272 0.53718 0.99292 0.12500
C 	C 	0.85910 0.57770 0.98550 -0.67600
C 	C 	0.06728 0.46282 0.00708 0.12400
C 	C 	0.14090 0.42230 0.01450 -0.67400
H 	H 	0.57190 0.03190 0.57190 0.22700
H 	H 	0.42810 0.96810 0.42810 0.22600
C 	C 	0.50000 0.31066 0.50000 0.53100
C 	C 	0.50000 0.24480 0.50000 -0.18500
C 	C 	0.50000 0.12480 0.50000 0.13200
C 	C 	0.50000 0.05934 0.50000 -0.15700
C 	C 	0.53718 0.99292 0.53718 0.12300
C 	C 	0.57770 0.98550 0.57770 -0.67800
C 	C 	0.46282 0.00708 0.46282 0.12300
C 	C 	0.42230 0.01450 0.42230 -0.67600
H 	H 	0.03190 0.57190 0.82430 0.22600
H 	H 	0.96810 0.42810 0.17570 0.22500
C 	C 	0.31066 0.50000 0.68934 0.53100
C 	C 	0.24480 0.50000 0.75520 -0.18500
C 	C 	0.12480 0.50000 0.87520 0.13200
C 	C 	0.05934 0.50000 0.94066 -0.15900
C 	C 	0.99292 0.53718 0.93272 0.12500
C 	C 	0.98550 0.57770 0.85910 -0.67600
C 	C 	0.00708 0.46282 0.06728 0.12400
C 	C 	0.01450 0.42230 0.14090 -0.67400
H 	H 	0.57190 0.57190 0.82430 0.22800
H 	H 	0.42810 0.42810 0.17570 0.22700
C 	C 	0.50000 0.50000 0.68934 0.53100
C 	C 	0.50000 0.50000 0.75520 -0.18500
C 	C 	0.50000 0.50000 0.87520 0.13200
C 	C 	0.50000 0.50000 0.94066 -0.15700
C 	C 	0.53718 0.53718 0.93272 0.12400
C 	C 	0.57770 0.57770 0.85910 -0.68000
C 	C 	0.46282 0.46282 0.06728 0.12400
C 	C 	0.42230 0.42230 0.14090 -0.67800
H 	H 	0.03190 0.82430 0.57190 0.22600
H 	H 	0.96810 0.17570 0.42810 0.22500
C 	C 	0.31066 0.68934 0.50000 0.53100
C 	C 	0.24480 0.75520 0.50000 -0.18500
C 	C 	0.12480 0.87520 0.50000 0.13200
C 	C 	0.05934 0.94066 0.50000 -0.15900
C 	C 	0.99292 0.93272 0.53718 0.12500
C 	C 	0.98550 0.85910 0.57770 -0.67600
C 	C 	0.00708 0.06728 0.46282 0.12400
C 	C 	0.01450 0.14090 0.42230 -0.67400
H 	H 	0.57190 0.57190 0.03190 0.22700
H 	H 	0.42810 0.42810 0.96810 0.22600
C 	C 	0.50000 0.50000 0.31066 0.53100
C 	C 	0.50000 0.50000 0.24480 -0.18500
C 	C 	0.50000 0.50000 0.12480 0.13200
C 	C 	0.50000 0.50000 0.05934 -0.15700
C 	C 	0.53718 0.53718 0.99292 0.12300
C 	C 	0.57770 0.57770 0.98550 -0.67800
C 	C 	0.46282 0.46282 0.00708 0.12300
C 	C 	0.42230 0.42230 0.01450 -0.67600
H 	H 	0.82430 0.03190 0.57190 0.22600
H 	H 	0.17570 0.96810 0.42810 0.22500
C 	C 	0.68934 0.31066 0.50000 0.53100
C 	C 	0.75520 0.24480 0.50000 -0.18500
C 	C 	0.87520 0.12480 0.50000 0.13200
C 	C 	0.94066 0.05934 0.50000 -0.15900
C 	C 	0.93272 0.99292 0.53718 0.12500
C 	C 	0.85910 0.98550 0.57770 -0.67600
C 	C 	0.06728 0.00708 0.46282 0.12400
C 	C 	0.14090 0.01450 0.42230 -0.67400
H 	H 	0.82430 0.57190 0.57190 0.22800
H 	H 	0.17570 0.42810 0.42810 0.22700
C 	C 	0.68934 0.50000 0.50000 0.53100
C 	C 	0.75520 0.50000 0.50000 -0.18500
C 	C 	0.87520 0.50000 0.50000 0.13200
C 	C 	0.94066 0.50000 0.50000 -0.15700
C 	C 	0.93272 0.53718 0.53718 0.12400
C 	C 	0.85910 0.57770 0.57770 -0.68000
C 	C 	0.06728 0.46282 0.46282 0.12400
C 	C 	0.14090 0.42230 0.42230 -0.67800
H 	H 	0.57190 0.03190 0.82430 0.22600
H 	H 	0.42810 0.96810 0.17570 0.22500
C 	C 	0.50000 0.31066 0.68934 0.53100
C 	C 	0.50000 0.24480 0.75520 -0.18500
C 	C 	0.50000 0.12480 0.87520 0.13200
C 	C 	0.50000 0.05934 0.94066 -0.15900
C 	C 	0.53718 0.99292 0.93272 0.12500
C 	C 	0.57770 0.98550 0.85910 -0.67600
C 	C 	0.46282 0.00708 0.06728 0.12400
C 	C 	0.42230 0.01450 0.14090 -0.67400
H 	H 	0.03190 0.57190 0.57190 0.22700
H 	H 	0.96810 0.42810 0.42810 0.22600
C 	C 	0.31066 0.50000 0.50000 0.53100
C 	C 	0.24480 0.50000 0.50000 -0.18500
C 	C 	0.12480 0.50000 0.50000 0.13200
C 	C 	0.05934 0.50000 0.50000 -0.15700
C 	C 	0.99292 0.53718 0.53718 0.12300
C 	C 	0.98550 0.57770 0.57770 -0.67800
C 	C 	0.00708 0.46282 0.46282 0.12300
C 	C 	0.01450 0.42230 0.42230 -0.67600
H 	H 	0.57190 0.82430 0.03190 0.22600
H 	H 	0.42810 0.17570 0.96810 0.22500
C 	C 	0.50000 0.68934 0.31066 0.53100
C 	C 	0.50000 0.75520 0.24480 -0.18500
C 	C 	0.50000 0.87520 0.12480 0.13200
C 	C 	0.50000 0.94066 0.05934 -0.15900
C 	C 	0.53718 0.93272 0.99292 0.12500
C 	C 	0.57770 0.85910 0.98550 -0.67600
C 	C 	0.46282 0.06728 0.00708 0.12400
C 	C 	0.42230 0.14090 0.01450 -0.67400
O 	O 	0.46293 0.61121 0.46293 -1.30000
O 	O 	0.53707 0.38879 0.53707 -1.24500
O 	O 	0.61121 0.46293 0.46293 -1.30000
O 	O 	0.38879 0.53707 0.53707 -1.24500
O 	O 	0.46293 0.46293 0.46293 -1.30000
O 	O 	0.53707 0.53707 0.53707 -1.24500
O 	O 	0.46293 0.46293 0.61121 -1.30000
O 	O 	0.53707 0.53707 0.38879 -1.24500
H 	H 	0.44119 0.44119 0.44119 0.12000
H 	H 	0.44119 0.44119 0.67644 0.12000
H 	H 	0.44119 0.67644 0.44119 0.12000
H 	H 	0.67644 0.44119 0.44119 0.12000
