data_crystal

_cell_length_a 12.57290
_cell_length_b 12.57290
_cell_length_c 25.94400
_cell_angle_alpha 90.00000
_cell_angle_beta  90.00000
_cell_angle_gamma 90.00000

_symmetry_space_group_name_	'P 1'
_symmetry_space_group_name_H-M	'P 1'

loop_
_symmetry_equiv_pos_as_xyz
  x,y,z

loop_
_atom_site_label
_atom_site_type_symbol
_atom_site_fract_x
_atom_site_fract_y
_atom_site_fract_z
_atom_site_charge
Ho	Ho	0.14353 0.95724 0.44838 1.69800
Ho	Ho	0.85647 0.04276 0.44838 1.67900
Ho	Ho	0.95724 0.85647 0.55162 1.70900
Ho	Ho	0.04276 0.14353 0.55162 1.66300
Ho	Ho	0.35647 0.45724 0.05162 1.68700
Ho	Ho	0.64353 0.54276 0.05162 1.69000
Ho	Ho	0.54276 0.35647 0.94838 1.68800
Ho	Ho	0.45724 0.64353 0.94838 1.68900
H 	H 	0.96090 0.83930 0.44360 0.28500
H 	H 	0.34350 0.46020 0.22170 -0.04700
H 	H 	0.34720 0.46310 0.31050 0.11300
H 	H 	0.36850 0.52810 0.45020 0.12100
H 	H 	0.27760 0.39510 0.49580 -0.02900
H 	H 	0.39100 0.17270 0.40330 -0.04300
H 	H 	0.50700 0.29350 0.36540 0.11200
H 	H 	0.03910 0.16070 0.44360 0.28400
H 	H 	0.65650 0.53980 0.22170 -0.04500
H 	H 	0.65280 0.53690 0.31050 0.11500
H 	H 	0.63150 0.47190 0.45020 0.12100
H 	H 	0.72240 0.60490 0.49580 -0.02800
H 	H 	0.60900 0.82730 0.40330 -0.03900
H 	H 	0.49300 0.70650 0.36540 0.11200
H 	H 	0.83930 0.03910 0.55640 0.28300
H 	H 	0.46020 0.65650 0.77830 -0.04600
H 	H 	0.46310 0.65280 0.68950 0.11500
H 	H 	0.52810 0.63150 0.54980 0.12200
H 	H 	0.39510 0.72240 0.50420 -0.02900
H 	H 	0.17270 0.60900 0.59670 -0.04300
H 	H 	0.29350 0.49300 0.63460 0.11100
H 	H 	0.16070 0.96090 0.55640 0.28600
H 	H 	0.53980 0.34350 0.77830 -0.04600
H 	H 	0.53690 0.34720 0.68950 0.11400
H 	H 	0.47190 0.36850 0.54980 0.12100
H 	H 	0.60490 0.27760 0.50420 -0.02900
H 	H 	0.82730 0.39100 0.59670 -0.03900
H 	H 	0.70650 0.50700 0.63460 0.11200
H 	H 	0.53910 0.33930 0.05640 0.28400
H 	H 	0.15650 0.96020 0.27830 -0.04500
H 	H 	0.15280 0.96310 0.18950 0.11100
H 	H 	0.13150 0.02810 0.04980 0.11100
H 	H 	0.22240 0.89510 0.00420 -0.02500
H 	H 	0.10900 0.67270 0.09670 -0.04600
H 	H 	0.99300 0.79350 0.13460 0.12600
H 	H 	0.46090 0.66070 0.05640 0.28500
H 	H 	0.84350 0.03980 0.27830 -0.04800
H 	H 	0.84720 0.03690 0.18950 0.10900
H 	H 	0.86850 0.97190 0.04980 0.13400
H 	H 	0.77760 0.10490 0.00420 -0.03300
H 	H 	0.89100 0.32730 0.09670 -0.03800
H 	H 	0.00700 0.20650 0.13460 0.10100
H 	H 	0.66070 0.53910 0.94360 0.28500
H 	H 	0.03980 0.15650 0.72170 -0.04700
H 	H 	0.03690 0.15280 0.81050 0.11000
H 	H 	0.97190 0.13150 0.95020 0.13800
H 	H 	0.10490 0.22240 0.99580 -0.03800
H 	H 	0.32730 0.10900 0.90330 -0.05000
H 	H 	0.20650 0.99300 0.86540 0.12900
H 	H 	0.33930 0.46090 0.94360 0.28400
H 	H 	0.96020 0.84350 0.72170 -0.04600
H 	H 	0.96310 0.84720 0.81050 0.11000
H 	H 	0.02810 0.86850 0.95020 0.11100
H 	H 	0.89510 0.77760 0.99580 -0.02200
H 	H 	0.67270 0.89100 0.90330 -0.03500
H 	H 	0.79350 0.00700 0.86540 0.10000
C 	C 	0.40580 0.47630 0.23932 0.17600
C 	C 	0.40940 0.47780 0.29252 -0.26600
C 	C 	0.44370 0.42250 0.40255 0.20800
C 	C 	0.37600 0.45660 0.44172 -0.26000
C 	C 	0.31930 0.37540 0.46778 0.16900
C 	C 	0.32150 0.26950 0.45444 -0.28900
C 	C 	0.38980 0.24310 0.41430 0.17400
C 	C 	0.45660 0.31540 0.38940 -0.26600
C 	C 	0.25040 0.19100 0.47740 0.52900
C 	C 	0.59420 0.52370 0.23932 0.17600
C 	C 	0.59060 0.52220 0.29252 -0.26600
C 	C 	0.55630 0.57750 0.40255 0.20700
C 	C 	0.62400 0.54340 0.44172 -0.25800
C 	C 	0.68070 0.62460 0.46778 0.16800
C 	C 	0.67850 0.73050 0.45444 -0.28600
C 	C 	0.61020 0.75690 0.41430 0.17300
C 	C 	0.54340 0.68460 0.38940 -0.26300
C 	C 	0.74960 0.80900 0.47740 0.52800
C 	C 	0.47630 0.59420 0.76068 0.17600
C 	C 	0.47780 0.59060 0.70748 -0.26600
C 	C 	0.42250 0.55630 0.59745 0.20800
C 	C 	0.45660 0.62400 0.55828 -0.26000
C 	C 	0.37540 0.68070 0.53222 0.17000
C 	C 	0.26950 0.67850 0.54556 -0.28900
C 	C 	0.24310 0.61020 0.58570 0.17500
C 	C 	0.31540 0.54340 0.61060 -0.26500
C 	C 	0.19100 0.74960 0.52260 0.53100
C 	C 	0.52370 0.40580 0.76068 0.17600
C 	C 	0.52220 0.40940 0.70748 -0.26600
C 	C 	0.57750 0.44370 0.59745 0.20700
C 	C 	0.54340 0.37600 0.55828 -0.25800
C 	C 	0.62460 0.31930 0.53222 0.16700
C 	C 	0.73050 0.32150 0.54556 -0.28600
C 	C 	0.75690 0.38980 0.58570 0.17200
C 	C 	0.68460 0.45660 0.61060 -0.26300
C 	C 	0.80900 0.25040 0.52260 0.52600
C 	C 	0.09420 0.97630 0.26068 0.18100
C 	C 	0.09060 0.97780 0.20748 -0.25200
C 	C 	0.05630 0.92250 0.09745 0.21400
C 	C 	0.12400 0.95660 0.05828 -0.24700
C 	C 	0.18070 0.87540 0.03222 0.16500
C 	C 	0.17850 0.76950 0.04556 -0.29000
C 	C 	0.11020 0.74310 0.08570 0.18300
C 	C 	0.04340 0.81540 0.11060 -0.28400
C 	C 	0.24960 0.69100 0.02260 0.52900
C 	C 	0.90580 0.02370 0.26068 0.18000
C 	C 	0.90940 0.02220 0.20748 -0.25200
C 	C 	0.94370 0.07750 0.09745 0.21500
C 	C 	0.87600 0.04340 0.05828 -0.27700
C 	C 	0.81930 0.12460 0.03222 0.17700
C 	C 	0.82150 0.23050 0.04556 -0.28900
C 	C 	0.88980 0.25690 0.08570 0.16900
C 	C 	0.95660 0.18460 0.11060 -0.25000
C 	C 	0.75040 0.30900 0.02260 0.52900
C 	C 	0.02370 0.09420 0.73932 0.17200
C 	C 	0.02220 0.09060 0.79252 -0.26000
C 	C 	0.07750 0.05630 0.90255 0.22500
C 	C 	0.04340 0.12400 0.94172 -0.29300
C 	C 	0.12460 0.18070 0.96778 0.19000
C 	C 	0.23050 0.17850 0.95444 -0.30500
C 	C 	0.25690 0.11020 0.91430 0.19600
C 	C 	0.18460 0.04340 0.88940 -0.29800
C 	C 	0.30900 0.24960 0.97740 0.53500
C 	C 	0.97630 0.90580 0.73932 0.18600
C 	C 	0.97780 0.90940 0.79252 -0.24400
C 	C 	0.92250 0.94370 0.90255 0.20600
C 	C 	0.95660 0.87600 0.94172 -0.23800
C 	C 	0.87540 0.81930 0.96778 0.15500
C 	C 	0.76950 0.82150 0.95444 -0.27700
C 	C 	0.74310 0.88980 0.91430 0.16000
C 	C 	0.81540 0.95660 0.88940 -0.24300
C 	C 	0.69100 0.75040 0.97740 0.52500
C 	C 	0.50000 0.50000 0.15570 0.52200
C 	C 	0.50000 0.50000 0.21329 -0.27600
C 	C 	0.50000 0.50000 0.32040 0.21100
C 	C 	0.50000 0.50000 0.84430 0.52200
C 	C 	0.50000 0.50000 0.78671 -0.27600
C 	C 	0.50000 0.50000 0.67960 0.21100
C 	C 	-0.00000 0.00000 0.34430 0.50500
C 	C 	-0.00000 0.00000 0.28671 -0.28800
C 	C 	-0.00000 -0.00000 0.17960 0.18900
C 	C 	-0.00000 0.00000 0.65570 0.50200
C 	C 	-0.00000 0.00000 0.71329 -0.28600
C 	C 	-0.00000 0.00000 0.82040 0.19000
N 	N 	0.50000 0.50000 0.37540 -0.21600
N 	N 	0.50000 0.50000 0.62460 -0.21600
N 	N 	-0.00000 0.00000 0.12460 -0.22200
N 	N 	-0.00000 0.00000 0.87540 -0.22200
O 	O 	0.97550 0.89260 0.46252 -0.83100
O 	O 	0.18890 0.22320 0.51126 -0.55000
O 	O 	0.25800 0.09650 0.46349 -0.55900
O 	O 	0.58590 0.49460 0.13272 -0.56200
O 	O 	0.02450 0.10740 0.46252 -0.83900
O 	O 	0.81110 0.77680 0.51126 -0.55000
O 	O 	0.74200 0.90350 0.46349 -0.55000
O 	O 	0.41410 0.50540 0.13272 -0.56200
O 	O 	0.89260 0.02450 0.53748 -0.83400
O 	O 	0.22320 0.81110 0.48874 -0.55200
O 	O 	0.09650 0.74200 0.53651 -0.56100
O 	O 	0.49460 0.41410 0.86728 -0.56200
O 	O 	0.10740 0.97550 0.53748 -0.83300
O 	O 	0.77680 0.18890 0.48874 -0.54800
O 	O 	0.90350 0.25800 0.53651 -0.54700
O 	O 	0.50540 0.58590 0.86728 -0.56200
O 	O 	0.52450 0.39260 0.03748 -0.83500
O 	O 	0.31110 0.72320 0.98874 -0.55000
O 	O 	0.24200 0.59650 0.03651 -0.55500
O 	O 	0.91410 0.99460 0.36728 -0.54300
O 	O 	0.47550 0.60740 0.03748 -0.83500
O 	O 	0.68890 0.27680 0.98874 -0.55100
O 	O 	0.75800 0.40350 0.03651 -0.55400
O 	O 	0.08590 0.00540 0.36728 -0.56400
O 	O 	0.60740 0.52450 0.96252 -0.83500
O 	O 	0.27680 0.31110 0.01126 -0.55300
O 	O 	0.40350 0.24200 0.96349 -0.55700
O 	O 	0.00540 0.91410 0.63272 -0.55700
O 	O 	0.39260 0.47550 0.96252 -0.83500
O 	O 	0.72320 0.68890 0.01126 -0.54900
O 	O 	0.59650 0.75800 0.96349 -0.55200
O 	O 	0.99460 0.08590 0.63272 -0.54700
