data_crystal

_cell_length_a 16.11900
_cell_length_b 20.89800
_cell_length_c 13.32500
_cell_angle_alpha 90.00000
_cell_angle_beta  90.00000
_cell_angle_gamma 90.00000

_symmetry_space_group_name_	'P 1'
_symmetry_space_group_name_H-M	'P 1'

loop_
_symmetry_equiv_pos_as_xyz
  x,y,z

loop_
_atom_site_label
_atom_site_type_symbol
_atom_site_fract_x
_atom_site_fract_y
_atom_site_fract_z
_atom_site_charge
Ag	Ag	0.50439 0.23614 0.56377 0.53900
N 	N 	0.40900 0.24680 0.42870 -0.18900
C 	C 	0.41000 0.29510 0.36390 0.08400
C 	C 	0.35470 0.20040 0.41070 0.08600
C 	C 	0.36000 0.29810 0.28120 -0.15700
C 	C 	0.30330 0.19960 0.32890 -0.14700
C 	C 	0.30480 0.24910 0.26210 0.06500
C 	C 	0.25040 0.24960 0.17270 0.03700
C 	C 	0.22690 0.19290 0.12440 -0.12900
C 	C 	0.21680 0.30540 0.13270 -0.13200
C 	C 	0.17320 0.19470 0.04520 0.06500
C 	C 	0.16230 0.30260 0.05500 0.06800
N 	N 	0.13820 0.24820 0.01030 -0.17900
N 	N 	0.51670 0.13350 0.61880 -0.19800
C 	C 	0.56610 0.11810 0.69210 0.08700
C 	C 	0.46960 0.08690 0.58600 0.07900
C 	C 	0.57050 0.05890 0.73640 -0.14900
C 	C 	0.46930 0.02600 0.62680 -0.14600
C 	C 	0.52070 0.01060 0.70370 0.06100
C 	C 	0.52040 0.94560 0.75010 0.06000
C 	C 	0.56880 0.93120 0.83020 -0.14800
C 	C 	0.47130 0.89740 0.71490 -0.14700
C 	C 	0.56330 0.87250 0.87460 0.08200
C 	C 	0.46950 0.83960 0.76320 0.08300
N 	N 	0.51360 0.82610 0.84400 -0.19400
H 	H 	0.44680 0.32860 0.37540 -0.01000
H 	H 	0.35130 0.16670 0.45610 -0.01000
H 	H 	0.36310 0.33300 0.23810 0.07500
H 	H 	0.26750 0.16530 0.31880 0.07800
H 	H 	0.24790 0.15390 0.14640 0.06900
H 	H 	0.23180 0.34490 0.15930 0.06800
H 	H 	0.16020 0.15630 0.01360 -0.00300
H 	H 	0.14030 0.34090 0.03130 -0.00400
H 	H 	0.60130 0.14980 0.71640 -0.01200
H 	H 	0.43430 0.09520 0.53230 -0.01000
H 	H 	0.60760 0.05170 0.78880 0.07400
H 	H 	0.43340 0.99520 0.60110 0.07500
H 	H 	0.60580 0.96140 0.85500 0.07400
H 	H 	0.43890 0.90390 0.65800 0.07200
H 	H 	0.59670 0.86460 0.93020 -0.00900
H 	H 	0.43500 0.80790 0.73750 -0.01000
Ag	Ag	0.49561 0.73614 0.93623 0.54000
N 	N 	0.59100 0.74680 0.07130 -0.18800
C 	C 	0.59000 0.79510 0.13610 0.08400
C 	C 	0.64530 0.70040 0.08930 0.08600
C 	C 	0.64000 0.79810 0.21880 -0.15700
C 	C 	0.69670 0.69960 0.17110 -0.14700
C 	C 	0.69520 0.74910 0.23790 0.06500
C 	C 	0.74960 0.74960 0.32730 0.03700
C 	C 	0.77310 0.69290 0.37560 -0.12900
C 	C 	0.78320 0.80540 0.36730 -0.13300
C 	C 	0.82680 0.69470 0.45480 0.06500
C 	C 	0.83770 0.80260 0.44500 0.06800
N 	N 	0.86180 0.74820 0.48970 -0.18000
N 	N 	0.48330 0.63350 0.88120 -0.19800
C 	C 	0.43390 0.61810 0.80790 0.08600
C 	C 	0.53040 0.58690 0.91400 0.07900
C 	C 	0.42950 0.55890 0.76360 -0.14900
C 	C 	0.53070 0.52600 0.87320 -0.14500
C 	C 	0.47930 0.51060 0.79630 0.06000
C 	C 	0.47960 0.44560 0.74990 0.06100
C 	C 	0.43120 0.43120 0.66980 -0.14800
C 	C 	0.52870 0.39740 0.78510 -0.14700
C 	C 	0.43670 0.37250 0.62540 0.08300
C 	C 	0.53050 0.33960 0.73680 0.08300
N 	N 	0.48640 0.32610 0.65600 -0.19400
H 	H 	0.55320 0.82860 0.12460 -0.01000
H 	H 	0.64870 0.66670 0.04390 -0.01000
H 	H 	0.63690 0.83300 0.26190 0.07500
H 	H 	0.73250 0.66530 0.18120 0.07800
H 	H 	0.75210 0.65390 0.35360 0.06900
H 	H 	0.76820 0.84490 0.34070 0.06800
H 	H 	0.83980 0.65630 0.48640 -0.00300
H 	H 	0.85970 0.84090 0.46870 -0.00400
H 	H 	0.39870 0.64980 0.78360 -0.01200
H 	H 	0.56570 0.59520 0.96770 -0.01000
H 	H 	0.39240 0.55170 0.71120 0.07400
H 	H 	0.56660 0.49520 0.89890 0.07500
H 	H 	0.39420 0.46140 0.64500 0.07400
H 	H 	0.56110 0.40390 0.84200 0.07300
H 	H 	0.40330 0.36460 0.56980 -0.00900
H 	H 	0.56500 0.30790 0.76250 -0.01000
Ag	Ag	0.00439 0.23614 0.93623 0.53900
N 	N 	0.90900 0.24680 0.07130 -0.18900
C 	C 	0.91000 0.29510 0.13610 0.08400
C 	C 	0.85470 0.20040 0.08930 0.08700
C 	C 	0.86000 0.29810 0.21880 -0.15700
C 	C 	0.80330 0.19960 0.17110 -0.14700
C 	C 	0.80480 0.24910 0.23790 0.06500
C 	C 	0.75040 0.24960 0.32730 0.03700
C 	C 	0.72690 0.19290 0.37560 -0.12900
C 	C 	0.71680 0.30540 0.36730 -0.13200
C 	C 	0.67320 0.19470 0.45480 0.06500
C 	C 	0.66230 0.30260 0.44500 0.06800
N 	N 	0.63820 0.24820 0.48970 -0.18000
N 	N 	0.01670 0.13350 0.88120 -0.19800
C 	C 	0.06610 0.11810 0.80790 0.08100
C 	C 	0.96960 0.08690 0.91400 0.07400
C 	C 	0.07050 0.05890 0.76360 -0.14100
C 	C 	0.96930 0.02600 0.87320 -0.13000
C 	C 	0.02070 0.01060 0.79630 0.04600
C 	C 	0.02040 0.94560 0.74990 0.07100
C 	C 	0.06880 0.93120 0.66980 -0.15500
C 	C 	0.97130 0.89740 0.78510 -0.15500
C 	C 	0.06330 0.87250 0.62540 0.08700
C 	C 	0.96950 0.83960 0.73680 0.08600
N 	N 	0.01360 0.82610 0.65600 -0.19500
H 	H 	0.94680 0.32860 0.12460 -0.01000
H 	H 	0.85130 0.16670 0.04390 -0.01100
H 	H 	0.86310 0.33300 0.26190 0.07500
H 	H 	0.76750 0.16530 0.18120 0.07800
H 	H 	0.74790 0.15390 0.35360 0.06900
H 	H 	0.73180 0.34490 0.34070 0.06800
H 	H 	0.66020 0.15630 0.48640 -0.00300
H 	H 	0.64030 0.34090 0.46870 -0.00400
H 	H 	0.10130 0.14980 0.78360 -0.01100
H 	H 	0.93430 0.09520 0.96770 -0.00700
H 	H 	0.10760 0.05170 0.71120 0.07000
H 	H 	0.93340 0.99520 0.89890 0.06800
H 	H 	0.10580 0.96140 0.64500 0.07700
H 	H 	0.93890 0.90390 0.84200 0.07500
H 	H 	0.09670 0.86460 0.56980 -0.01000
H 	H 	0.93500 0.80790 0.76250 -0.01100
Ag	Ag	0.99561 0.73614 0.56377 0.54000
N 	N 	0.09100 0.74680 0.42870 -0.18800
C 	C 	0.09000 0.79510 0.36390 0.08500
C 	C 	0.14530 0.70040 0.41070 0.08700
C 	C 	0.14000 0.79810 0.28120 -0.15700
C 	C 	0.19670 0.69960 0.32890 -0.14700
C 	C 	0.19520 0.74910 0.26210 0.06500
C 	C 	0.24960 0.74960 0.17270 0.03700
C 	C 	0.27310 0.69290 0.12440 -0.12900
C 	C 	0.28320 0.80540 0.13270 -0.13200
C 	C 	0.32680 0.69470 0.04520 0.06600
C 	C 	0.33770 0.80260 0.05500 0.06800
N 	N 	0.36180 0.74820 0.01030 -0.17900
N 	N 	0.98330 0.63350 0.61880 -0.19800
C 	C 	0.93390 0.61810 0.69210 0.08700
C 	C 	0.03040 0.58690 0.58600 0.07900
C 	C 	0.92950 0.55890 0.73640 -0.14900
C 	C 	0.03070 0.52600 0.62680 -0.14600
C 	C 	0.97930 0.51060 0.70370 0.06000
C 	C 	0.97960 0.44560 0.75010 0.06200
C 	C 	0.93120 0.43120 0.83020 -0.14800
C 	C 	0.02870 0.39740 0.71490 -0.14800
C 	C 	0.93670 0.37250 0.87460 0.08300
C 	C 	0.03050 0.33960 0.76320 0.08100
N 	N 	0.98640 0.32610 0.84400 -0.19300
H 	H 	0.05320 0.82860 0.37540 -0.00900
H 	H 	0.14870 0.66670 0.45610 -0.01000
H 	H 	0.13690 0.83300 0.23810 0.07500
H 	H 	0.23250 0.66530 0.31880 0.07800
H 	H 	0.25210 0.65390 0.14640 0.06900
H 	H 	0.26820 0.84490 0.15930 0.06900
H 	H 	0.33980 0.65630 0.01360 -0.00300
H 	H 	0.35970 0.84090 0.03130 -0.00400
H 	H 	0.89870 0.64980 0.71640 -0.01200
H 	H 	0.06570 0.59520 0.53230 -0.01000
H 	H 	0.89240 0.55170 0.78880 0.07400
H 	H 	0.06660 0.49520 0.60110 0.07500
H 	H 	0.89420 0.46140 0.85500 0.07400
H 	H 	0.06110 0.40390 0.65800 0.07300
H 	H 	0.90330 0.36460 0.93020 -0.00900
H 	H 	0.06500 0.30790 0.73750 -0.01000
Ag	Ag	0.99561 0.76386 0.06377 0.53900
N 	N 	0.09100 0.75320 0.92870 -0.18900
C 	C 	0.09000 0.70490 0.86390 0.08400
C 	C 	0.14530 0.79960 0.91070 0.08700
C 	C 	0.14000 0.70190 0.78120 -0.15700
C 	C 	0.19670 0.80040 0.82890 -0.14700
C 	C 	0.19520 0.75090 0.76210 0.06500
C 	C 	0.24960 0.75040 0.67270 0.03700
C 	C 	0.27310 0.80710 0.62440 -0.12900
C 	C 	0.28320 0.69460 0.63270 -0.13200
C 	C 	0.32680 0.80530 0.54520 0.06500
C 	C 	0.33770 0.69740 0.55500 0.06800
N 	N 	0.36180 0.75180 0.51030 -0.18000
N 	N 	0.98330 0.86650 0.11880 -0.19800
C 	C 	0.93390 0.88190 0.19210 0.08100
C 	C 	0.03040 0.91310 0.08600 0.07400
C 	C 	0.92950 0.94110 0.23640 -0.14100
C 	C 	0.03070 0.97400 0.12680 -0.13000
C 	C 	0.97930 0.98940 0.20370 0.04600
C 	C 	0.97960 0.05440 0.25010 0.07100
C 	C 	0.93120 0.06880 0.33020 -0.15500
C 	C 	0.02870 0.10260 0.21490 -0.15500
C 	C 	0.93670 0.12750 0.37460 0.08700
C 	C 	0.03050 0.16040 0.26320 0.08600
N 	N 	0.98640 0.17390 0.34400 -0.19500
H 	H 	0.05320 0.67140 0.87540 -0.01000
H 	H 	0.14870 0.83330 0.95610 -0.01100
H 	H 	0.13690 0.66700 0.73810 0.07500
H 	H 	0.23250 0.83470 0.81880 0.07800
H 	H 	0.25210 0.84610 0.64640 0.06900
H 	H 	0.26820 0.65510 0.65930 0.06800
H 	H 	0.33980 0.84370 0.51360 -0.00300
H 	H 	0.35970 0.65910 0.53130 -0.00400
H 	H 	0.89870 0.85020 0.21640 -0.01100
H 	H 	0.06570 0.90480 0.03230 -0.00700
H 	H 	0.89240 0.94830 0.28880 0.07000
H 	H 	0.06660 0.00480 0.10110 0.06800
H 	H 	0.89420 0.03860 0.35500 0.07700
H 	H 	0.06110 0.09610 0.15800 0.07500
H 	H 	0.90330 0.13540 0.43020 -0.01000
H 	H 	0.06500 0.19210 0.23750 -0.01100
Ag	Ag	0.00439 0.26386 0.43623 0.54000
N 	N 	0.90900 0.25320 0.57130 -0.18800
C 	C 	0.91000 0.20490 0.63610 0.08500
C 	C 	0.85470 0.29960 0.58930 0.08700
C 	C 	0.86000 0.20190 0.71880 -0.15700
C 	C 	0.80330 0.30040 0.67110 -0.14700
C 	C 	0.80480 0.25090 0.73790 0.06500
C 	C 	0.75040 0.25040 0.82730 0.03700
C 	C 	0.72690 0.30710 0.87560 -0.12900
C 	C 	0.71680 0.19460 0.86730 -0.13200
C 	C 	0.67320 0.30530 0.95480 0.06600
C 	C 	0.66230 0.19740 0.94500 0.06800
N 	N 	0.63820 0.25180 0.98970 -0.17900
N 	N 	0.01670 0.36650 0.38120 -0.19800
C 	C 	0.06610 0.38190 0.30790 0.08700
C 	C 	0.96960 0.41310 0.41400 0.07900
C 	C 	0.07050 0.44110 0.26360 -0.14900
C 	C 	0.96930 0.47400 0.37320 -0.14600
C 	C 	0.02070 0.48940 0.29630 0.06000
C 	C 	0.02040 0.55440 0.24990 0.06200
C 	C 	0.06880 0.56880 0.16980 -0.14800
C 	C 	0.97130 0.60260 0.28510 -0.14800
C 	C 	0.06330 0.62750 0.12540 0.08300
C 	C 	0.96950 0.66040 0.23680 0.08100
N 	N 	0.01360 0.67390 0.15600 -0.19300
H 	H 	0.94680 0.17140 0.62460 -0.00900
H 	H 	0.85130 0.33330 0.54390 -0.01000
H 	H 	0.86310 0.16700 0.76190 0.07500
H 	H 	0.76750 0.33470 0.68120 0.07800
H 	H 	0.74790 0.34610 0.85360 0.06900
H 	H 	0.73180 0.15510 0.84070 0.06900
H 	H 	0.66020 0.34370 0.98640 -0.00300
H 	H 	0.64030 0.15910 0.96870 -0.00400
H 	H 	0.10130 0.35020 0.28360 -0.01200
H 	H 	0.93430 0.40480 0.46770 -0.01000
H 	H 	0.10760 0.44830 0.21120 0.07400
H 	H 	0.93340 0.50480 0.39890 0.07500
H 	H 	0.10580 0.53860 0.14500 0.07400
H 	H 	0.93890 0.59610 0.34200 0.07300
H 	H 	0.09670 0.63540 0.06980 -0.00900
H 	H 	0.93500 0.69210 0.26250 -0.01000
Ag	Ag	0.49561 0.76386 0.43623 0.54000
N 	N 	0.59100 0.75320 0.57130 -0.18800
C 	C 	0.59000 0.70490 0.63610 0.08400
C 	C 	0.64530 0.79960 0.58930 0.08600
C 	C 	0.64000 0.70190 0.71880 -0.15700
C 	C 	0.69670 0.80040 0.67110 -0.14700
C 	C 	0.69520 0.75090 0.73790 0.06500
C 	C 	0.74960 0.75040 0.82730 0.03700
C 	C 	0.77310 0.80710 0.87560 -0.12900
C 	C 	0.78320 0.69460 0.86730 -0.13200
C 	C 	0.82680 0.80530 0.95480 0.06500
C 	C 	0.83770 0.69740 0.94500 0.06800
N 	N 	0.86180 0.75180 0.98970 -0.17900
N 	N 	0.48330 0.86650 0.38120 -0.19800
C 	C 	0.43390 0.88190 0.30790 0.08700
C 	C 	0.53040 0.91310 0.41400 0.07900
C 	C 	0.42950 0.94110 0.26360 -0.14900
C 	C 	0.53070 0.97400 0.37320 -0.14600
C 	C 	0.47930 0.98940 0.29630 0.06100
C 	C 	0.47960 0.05440 0.24990 0.06000
C 	C 	0.43120 0.06880 0.16980 -0.14800
C 	C 	0.52870 0.10260 0.28510 -0.14700
C 	C 	0.43670 0.12750 0.12540 0.08200
C 	C 	0.53050 0.16040 0.23680 0.08300
N 	N 	0.48640 0.17390 0.15600 -0.19400
H 	H 	0.55320 0.67140 0.62460 -0.01000
H 	H 	0.64870 0.83330 0.54390 -0.01000
H 	H 	0.63690 0.66700 0.76190 0.07500
H 	H 	0.73250 0.83470 0.68120 0.07800
H 	H 	0.75210 0.84610 0.85360 0.06900
H 	H 	0.76820 0.65510 0.84070 0.06800
H 	H 	0.83980 0.84370 0.98640 -0.00300
H 	H 	0.85970 0.65910 0.96870 -0.00400
H 	H 	0.39870 0.85020 0.28360 -0.01200
H 	H 	0.56570 0.90480 0.46770 -0.01000
H 	H 	0.39240 0.94830 0.21120 0.07400
H 	H 	0.56660 0.00480 0.39890 0.07500
H 	H 	0.39420 0.03860 0.14500 0.07400
H 	H 	0.56110 0.09610 0.34200 0.07200
H 	H 	0.40330 0.13540 0.06980 -0.00900
H 	H 	0.56500 0.19210 0.26250 -0.01000
Ag	Ag	0.50439 0.26386 0.06377 0.54000
N 	N 	0.40900 0.25320 0.92870 -0.18800
C 	C 	0.41000 0.20490 0.86390 0.08400
C 	C 	0.35470 0.29960 0.91070 0.08600
C 	C 	0.36000 0.20190 0.78120 -0.15700
C 	C 	0.30330 0.30040 0.82890 -0.14700
C 	C 	0.30480 0.25090 0.76210 0.06500
C 	C 	0.25040 0.25040 0.67270 0.03700
C 	C 	0.22690 0.30710 0.62440 -0.12900
C 	C 	0.21680 0.19460 0.63270 -0.13300
C 	C 	0.17320 0.30530 0.54520 0.06500
C 	C 	0.16230 0.19740 0.55500 0.06800
N 	N 	0.13820 0.25180 0.51030 -0.18000
N 	N 	0.51670 0.36650 0.11880 -0.19800
C 	C 	0.56610 0.38190 0.19210 0.08600
C 	C 	0.46960 0.41310 0.08600 0.07900
C 	C 	0.57050 0.44110 0.23640 -0.14900
C 	C 	0.46930 0.47400 0.12680 -0.14500
C 	C 	0.52070 0.48940 0.20370 0.06000
C 	C 	0.52040 0.55440 0.25010 0.06100
C 	C 	0.56880 0.56880 0.33020 -0.14800
C 	C 	0.47130 0.60260 0.21490 -0.14700
C 	C 	0.56330 0.62750 0.37460 0.08300
C 	C 	0.46950 0.66040 0.26320 0.08300
N 	N 	0.51360 0.67390 0.34400 -0.19400
H 	H 	0.44680 0.17140 0.87540 -0.01000
H 	H 	0.35130 0.33330 0.95610 -0.01000
H 	H 	0.36310 0.16700 0.73810 0.07500
H 	H 	0.26750 0.33470 0.81880 0.07800
H 	H 	0.24790 0.34610 0.64640 0.06900
H 	H 	0.23180 0.15510 0.65930 0.06800
H 	H 	0.16020 0.34370 0.51360 -0.00300
H 	H 	0.14030 0.15910 0.53130 -0.00400
H 	H 	0.60130 0.35020 0.21640 -0.01200
H 	H 	0.43430 0.40480 0.03230 -0.01000
H 	H 	0.60760 0.44830 0.28880 0.07400
H 	H 	0.43340 0.50480 0.10110 0.07500
H 	H 	0.60580 0.53860 0.35500 0.07400
H 	H 	0.43890 0.59610 0.15800 0.07300
H 	H 	0.59670 0.63540 0.43020 -0.00900
H 	H 	0.43500 0.69210 0.23750 -0.01000
