data_crystal

_cell_length_a 12.26900
_cell_length_b 12.26900
_cell_length_c 4.82200
_cell_angle_alpha 90.00000
_cell_angle_beta  90.00000
_cell_angle_gamma 90.00000

_symmetry_space_group_name_	'P 1'
_symmetry_space_group_name_H-M	'P 1'

loop_
_symmetry_equiv_pos_as_xyz
  x,y,z

loop_
_atom_site_label
_atom_site_type_symbol
_atom_site_fract_x
_atom_site_fract_y
_atom_site_fract_z
_atom_site_charge
C 	C 	0.71760 0.08650 0.28500 0.07700
C 	C 	0.78660 0.14950 0.44100 -0.15100
H 	H 	0.74160 0.01810 0.22900 -0.03300
H 	H 	0.85560 0.12450 0.48900 0.08600
C 	C 	0.28240 0.91350 0.28500 0.07300
C 	C 	0.21340 0.85050 0.44100 -0.14100
H 	H 	0.25840 0.98190 0.22900 -0.00200
H 	H 	0.14440 0.87550 0.48900 0.07600
C 	C 	0.91350 0.71760 0.28500 0.08000
C 	C 	0.85050 0.78660 0.44100 -0.14300
H 	H 	0.98190 0.74160 0.22900 0.00100
H 	H 	0.87550 0.85560 0.48900 0.09900
C 	C 	0.08650 0.28240 0.28500 0.06800
C 	C 	0.14950 0.21340 0.44100 -0.15000
H 	H 	0.01810 0.25840 0.22900 -0.03600
H 	H 	0.12450 0.14440 0.48900 0.06300
C 	C 	0.21760 0.41350 0.28500 0.07100
C 	C 	0.28660 0.35050 0.44100 -0.14700
H 	H 	0.24160 0.48190 0.22900 -0.01900
H 	H 	0.35560 0.37550 0.48900 0.08000
C 	C 	0.78240 0.58650 0.28500 0.07700
C 	C 	0.71340 0.64950 0.44100 -0.14700
H 	H 	0.75840 0.51810 0.22900 -0.01600
H 	H 	0.64440 0.62450 0.48900 0.08100
C 	C 	0.41350 0.78240 0.28500 0.07400
C 	C 	0.35050 0.71340 0.44100 -0.14400
H 	H 	0.48190 0.75840 0.22900 -0.01500
H 	H 	0.37550 0.64440 0.48900 0.08000
C 	C 	0.58650 0.21760 0.28500 0.07500
C 	C 	0.64950 0.28660 0.44100 -0.15000
H 	H 	0.51810 0.24160 0.22900 -0.02100
H 	H 	0.62450 0.35560 0.48900 0.08200
Ag	Ag	0.50000 0.00000 -0.00000 0.48100
Ag	Ag	-0.00000 0.50000 -0.00000 0.48100
N 	N 	0.61790 0.11790 0.21000 -0.20700
C 	C 	0.75100 0.25100 0.52400 0.07000
C 	C 	0.82170 0.32170 0.67200 0.06600
N 	N 	0.87890 0.37890 0.78300 -0.13800
N 	N 	0.38210 0.88210 0.21000 -0.18900
C 	C 	0.24900 0.74900 0.52400 0.06100
C 	C 	0.17830 0.67830 0.67200 0.05400
N 	N 	0.12110 0.62110 0.78300 -0.16100
N 	N 	0.88210 0.61790 0.21000 -0.19000
C 	C 	0.74900 0.75100 0.52400 0.07000
C 	C 	0.67830 0.82170 0.67200 0.06900
N 	N 	0.62110 0.87890 0.78300 -0.13800
N 	N 	0.11790 0.38210 0.21000 -0.20600
C 	C 	0.25100 0.24900 0.52400 0.06000
C 	C 	0.32170 0.17830 0.67200 0.05100
N 	N 	0.37890 0.12110 0.78300 -0.16200
