data_crystal

_cell_length_a 11.43100
_cell_length_b 11.43100
_cell_length_c 46.60000
_cell_angle_alpha 90.00000
_cell_angle_beta  90.00000
_cell_angle_gamma 120.00000

_symmetry_space_group_name_	'P 1'
_symmetry_space_group_name_H-M	'P 1'

loop_
_symmetry_equiv_pos_as_xyz
  x,y,z

loop_
_atom_site_label
_atom_site_type_symbol
_atom_site_fract_x
_atom_site_fract_y
_atom_site_fract_z
_atom_site_charge
Co	Co	0.01001 0.99939 -0.00000 1.14100
Co	Co	0.34068 0.65979 0.92076 1.15100
Co	Co	0.98938 0.98999 0.66667 1.14900
Co	Co	0.31911 0.65932 0.58743 1.15100
Co	Co	0.00061 0.01062 0.33333 1.14100
Co	Co	0.34021 0.68089 0.25409 1.15100
Co	Co	0.98999 0.00061 0.50000 1.14200
Co	Co	0.65932 0.34021 0.42076 1.15100
Co	Co	0.01062 0.01001 0.16667 1.14900
Co	Co	0.68089 0.34068 0.08743 1.15100
Co	Co	0.99939 0.98938 0.83333 1.14100
Co	Co	0.65979 0.31911 0.75409 1.15100
P 	P 	0.01060 0.00170 0.94873 -0.00300
P 	P 	0.33220 0.65210 0.86941 -0.03800
P 	P 	0.99110 0.98940 0.61540 -0.04200
P 	P 	0.31990 0.66780 0.53608 -0.03800
P 	P 	0.99830 0.00890 0.28206 -0.02100
P 	P 	0.34790 0.68010 0.20274 -0.03900
P 	P 	0.98940 0.99830 0.44873 -0.00300
P 	P 	0.66780 0.34790 0.36941 -0.03800
P 	P 	0.00890 0.01060 0.11540 -0.04200
P 	P 	0.68010 0.33220 0.03608 -0.03600
P 	P 	0.00170 0.99110 0.78206 -0.02100
P 	P 	0.65210 0.31990 0.70274 -0.03900
H 	H 	0.80540 0.98050 0.93430 0.05900
H 	H 	0.85200 0.91030 0.91180 0.06400
H 	H 	0.78380 0.72510 0.94390 0.13900
H 	H 	0.73200 0.79470 0.96550 0.13200
H 	H 	0.02580 0.81770 0.93120 0.06400
H 	H 	0.11190 0.94460 0.91180 0.06300
H 	H 	0.28310 0.03650 0.94800 0.16600
H 	H 	0.19720 0.90810 0.96700 0.14500
H 	H 	0.19380 0.20550 0.93330 0.06700
H 	H 	0.07250 0.16140 0.91210 0.06400
H 	H 	0.96820 0.23750 0.94400 0.14500
H 	H 	0.08220 0.27330 0.96670 0.13600
H 	H 	0.12470 0.46130 0.86070 0.06400
H 	H 	0.21390 0.50030 0.83300 0.06500
H 	H 	0.24810 0.36840 0.88040 0.13000
H 	H 	0.33570 0.40610 0.85240 0.13400
H 	H 	0.52090 0.63260 0.85870 0.06800
H 	H 	0.47500 0.67800 0.83120 0.06400
H 	H 	0.61030 0.85470 0.87730 0.12800
H 	H 	0.57390 0.89780 0.84820 0.12900
H 	H 	0.35340 0.85840 0.85670 0.06200
H 	H 	0.29700 0.75860 0.83070 0.06400
H 	H 	0.08100 0.64950 0.85110 0.13900
H 	H 	0.13580 0.74150 0.87840 0.13600
H 	H 	0.17510 0.19460 0.60097 0.06200
H 	H 	0.05830 0.14800 0.57847 0.06500
H 	H 	0.94130 0.21620 0.61057 0.11900
H 	H 	0.06270 0.26800 0.63217 0.13200
H 	H 	0.79190 0.97420 0.59787 0.06400
H 	H 	0.83270 0.88810 0.57847 0.06500
H 	H 	0.75340 0.71690 0.61467 0.13900
H 	H 	0.71090 0.80280 0.63367 0.13800
H 	H 	0.01170 0.80620 0.59997 0.06800
H 	H 	0.08890 0.92750 0.57877 0.05900
H 	H 	0.26930 0.03180 0.61067 0.13800
H 	H 	0.19110 0.91780 0.63337 0.13900
H 	H 	0.33660 0.87530 0.52737 0.06200
H 	H 	0.28640 0.78610 0.49967 0.06300
H 	H 	0.12030 0.75190 0.54707 0.13300
H 	H 	0.07040 0.66430 0.51907 0.13700
H 	H 	0.11170 0.47910 0.52537 0.06800
H 	H 	0.20300 0.52500 0.49787 0.06400
H 	H 	0.24440 0.38970 0.54397 0.13000
H 	H 	0.32390 0.42610 0.51487 0.13200
H 	H 	0.50500 0.64660 0.52337 0.06500
H 	H 	0.46160 0.70300 0.49737 0.06500
H 	H 	0.56850 0.91900 0.51777 0.13800
H 	H 	0.60570 0.86420 0.54507 0.13500
H 	H 	0.01950 0.82490 0.26763 0.05900
H 	H 	0.08970 0.94170 0.24513 0.06700
H 	H 	0.27490 0.05870 0.27723 0.12300
H 	H 	0.20530 0.93730 0.29883 0.13000
H 	H 	0.18230 0.20810 0.26453 0.06200
H 	H 	0.05540 0.16730 0.24513 0.05900
H 	H 	0.96350 0.24660 0.28133 0.16400
H 	H 	0.09190 0.28910 0.30033 0.14600
H 	H 	0.79450 0.98830 0.26663 0.06800
H 	H 	0.83860 0.91110 0.24543 0.05900
H 	H 	0.76250 0.73070 0.27733 0.15100
H 	H 	0.72670 0.80890 0.30003 0.14300
H 	H 	0.53870 0.66340 0.19403 0.06100
H 	H 	0.49970 0.71360 0.16633 0.06100
H 	H 	0.63160 0.87970 0.21373 0.13300
H 	H 	0.59390 0.92960 0.18573 0.13700
H 	H 	0.36740 0.88830 0.19203 0.06800
H 	H 	0.32200 0.79700 0.16453 0.06300
H 	H 	0.14530 0.75560 0.21063 0.12800
H 	H 	0.10220 0.67610 0.18153 0.12900
H 	H 	0.14160 0.49500 0.19003 0.06200
H 	H 	0.24140 0.53840 0.16403 0.06200
H 	H 	0.35050 0.43150 0.18443 0.13700
H 	H 	0.25850 0.39430 0.21173 0.13500
H 	H 	0.19460 0.01950 0.43430 0.05900
H 	H 	0.14800 0.08970 0.41180 0.06400
H 	H 	0.21620 0.27490 0.44390 0.13800
H 	H 	0.26800 0.20530 0.46550 0.13100
H 	H 	0.97420 0.18230 0.43120 0.06400
H 	H 	0.88810 0.05540 0.41180 0.06300
H 	H 	0.71690 0.96350 0.44800 0.16600
H 	H 	0.80280 0.09190 0.46700 0.14400
H 	H 	0.80620 0.79450 0.43330 0.06800
H 	H 	0.92750 0.83860 0.41210 0.06400
H 	H 	0.03180 0.76250 0.44400 0.14500
H 	H 	0.91780 0.72670 0.46670 0.13600
H 	H 	0.87530 0.53870 0.36070 0.06400
H 	H 	0.78610 0.49970 0.33300 0.06500
H 	H 	0.75190 0.63160 0.38040 0.13000
H 	H 	0.66430 0.59390 0.35240 0.13400
H 	H 	0.47910 0.36740 0.35870 0.06800
H 	H 	0.52500 0.32200 0.33120 0.06400
H 	H 	0.38970 0.14530 0.37730 0.12800
H 	H 	0.42610 0.10220 0.34820 0.12900
H 	H 	0.64660 0.14160 0.35670 0.06200
H 	H 	0.70300 0.24140 0.33070 0.06400
H 	H 	0.91900 0.35050 0.35110 0.13900
H 	H 	0.86420 0.25850 0.37840 0.13600
H 	H 	0.82490 0.80540 0.10097 0.06200
H 	H 	0.94170 0.85200 0.07847 0.06400
H 	H 	0.05870 0.78380 0.11057 0.11900
H 	H 	0.93730 0.73200 0.13217 0.13200
H 	H 	0.20810 0.02580 0.09787 0.06400
H 	H 	0.16730 0.11190 0.07847 0.06500
H 	H 	0.24660 0.28310 0.11467 0.13900
H 	H 	0.28910 0.19720 0.13367 0.13800
H 	H 	0.98830 0.19380 0.09997 0.06800
H 	H 	0.91110 0.07250 0.07877 0.05900
H 	H 	0.73070 0.96820 0.11067 0.13800
H 	H 	0.80890 0.08220 0.13337 0.13900
H 	H 	0.66340 0.12470 0.02737 0.06400
H 	H 	0.71360 0.21390 0.99967 0.06700
H 	H 	0.87970 0.24810 0.04707 0.13200
H 	H 	0.92960 0.33570 0.01907 0.13500
H 	H 	0.88830 0.52090 0.02537 0.06900
H 	H 	0.79700 0.47500 0.99787 0.06800
H 	H 	0.75560 0.61030 0.04397 0.12800
H 	H 	0.67610 0.57390 0.01487 0.13000
H 	H 	0.49500 0.35340 0.02337 0.06700
H 	H 	0.53840 0.29700 0.99737 0.06900
H 	H 	0.43150 0.08100 0.01777 0.13600
H 	H 	0.39430 0.13580 0.04507 0.13400
H 	H 	0.98050 0.17510 0.76763 0.05900
H 	H 	0.91030 0.05830 0.74513 0.06700
H 	H 	0.72510 0.94130 0.77723 0.12300
H 	H 	0.79470 0.06270 0.79883 0.13000
H 	H 	0.81770 0.79190 0.76453 0.06200
H 	H 	0.94460 0.83270 0.74513 0.05900
H 	H 	0.03650 0.75340 0.78133 0.16400
H 	H 	0.90810 0.71090 0.80033 0.14600
H 	H 	0.20550 0.01170 0.76663 0.06700
H 	H 	0.16140 0.08890 0.74543 0.05900
H 	H 	0.23750 0.26930 0.77733 0.15100
H 	H 	0.27330 0.19110 0.80003 0.14300
H 	H 	0.46130 0.33660 0.69403 0.06100
H 	H 	0.50030 0.28640 0.66633 0.06100
H 	H 	0.36840 0.12030 0.71373 0.13300
H 	H 	0.40610 0.07040 0.68573 0.13700
H 	H 	0.63260 0.11170 0.69203 0.06800
H 	H 	0.67800 0.20300 0.66453 0.06300
H 	H 	0.85470 0.24440 0.71063 0.12800
H 	H 	0.89780 0.32390 0.68153 0.12900
H 	H 	0.85840 0.50500 0.69003 0.06200
H 	H 	0.75860 0.46160 0.66403 0.06200
H 	H 	0.64950 0.56850 0.68443 0.13700
H 	H 	0.74150 0.60570 0.71173 0.13500
C 	C 	0.84310 0.92160 0.93220 -0.09200
C 	C 	0.74520 0.78360 0.94530 -0.32300
C 	C 	0.60970 0.71840 0.92990 0.39400
C 	C 	0.08960 0.91400 0.93150 -0.08100
C 	C 	0.21940 0.94010 0.94740 -0.36400
C 	C 	0.28480 0.86760 0.93240 0.39300
C 	C 	0.09710 0.16990 0.93230 -0.06800
C 	C 	0.06390 0.26980 0.94630 -0.34100
C 	C 	0.14230 0.40940 0.93420 0.39700
C 	C 	0.21480 0.48940 0.85360 -0.07200
C 	C 	0.24640 0.37930 0.85970 -0.31800
C 	C 	0.14640 0.24520 0.84670 0.37100
C 	C 	0.49070 0.69300 0.85170 -0.07500
C 	C 	0.60050 0.83730 0.85680 -0.31700
C 	C 	0.73530 0.86750 0.84450 0.38400
C 	C 	0.28880 0.76630 0.85120 -0.07200
C 	C 	0.14630 0.73910 0.85780 -0.32400
C 	C 	0.11740 0.84170 0.84380 0.38300
C 	C 	0.07850 0.15690 0.59887 -0.07500
C 	C 	0.03840 0.25480 0.61197 -0.29600
C 	C 	0.10870 0.39030 0.59657 0.38800
C 	C 	0.82440 0.91040 0.59817 -0.07700
C 	C 	0.72070 0.78060 0.61407 -0.32300
C 	C 	0.58280 0.71520 0.59907 0.38300
C 	C 	0.07280 0.90290 0.59897 -0.05300
C 	C 	0.20590 0.93610 0.61297 -0.33600
C 	C 	0.26710 0.85770 0.60087 0.39600
C 	C 	0.27460 0.78520 0.52027 -0.06700
C 	C 	0.13290 0.75360 0.52637 -0.32700
C 	C 	0.09880 0.85360 0.51337 0.38400
C 	C 	0.20230 0.50930 0.51837 -0.07500
C 	C 	0.23680 0.39950 0.52347 -0.31900
C 	C 	0.13220 0.26470 0.51117 0.38500
C 	C 	0.47750 0.71120 0.51787 -0.07500
C 	C 	0.59280 0.85370 0.52447 -0.32100
C 	C 	0.72430 0.88260 0.51047 0.38300
C 	C 	0.07840 0.92150 0.26553 -0.08700
C 	C 	0.21640 0.96160 0.27863 -0.29700
C 	C 	0.28160 0.89130 0.26323 0.38800
C 	C 	0.08600 0.17560 0.26483 -0.07700
C 	C 	0.05990 0.27930 0.28073 -0.36300
C 	C 	0.13240 0.41720 0.26573 0.39300
C 	C 	0.83010 0.92720 0.26563 -0.05100
C 	C 	0.73020 0.79410 0.27963 -0.35400
C 	C 	0.59060 0.73290 0.26753 0.40100
C 	C 	0.51060 0.72540 0.18693 -0.06700
C 	C 	0.62070 0.86710 0.19303 -0.32500
C 	C 	0.75480 0.90120 0.18003 0.37700
C 	C 	0.30700 0.79770 0.18503 -0.07500
C 	C 	0.16270 0.76320 0.19013 -0.31700
C 	C 	0.13250 0.86780 0.17783 0.38400
C 	C 	0.23370 0.52250 0.18453 -0.07200
C 	C 	0.26090 0.40720 0.19113 -0.32400
C 	C 	0.15830 0.27570 0.17713 0.38400
C 	C 	0.15690 0.07840 0.43220 -0.09200
C 	C 	0.25480 0.21640 0.44530 -0.32300
C 	C 	0.39030 0.28160 0.42990 0.39400
C 	C 	0.91040 0.08600 0.43150 -0.08100
C 	C 	0.78060 0.05990 0.44740 -0.36400
C 	C 	0.71520 0.13240 0.43240 0.39300
C 	C 	0.90290 0.83010 0.43230 -0.06800
C 	C 	0.93610 0.73020 0.44630 -0.34000
C 	C 	0.85770 0.59060 0.43420 0.39700
C 	C 	0.78520 0.51060 0.35360 -0.07200
C 	C 	0.75360 0.62070 0.35970 -0.31800
C 	C 	0.85360 0.75480 0.34670 0.37100
C 	C 	0.50930 0.30700 0.35170 -0.07500
C 	C 	0.39950 0.16270 0.35680 -0.31700
C 	C 	0.26470 0.13250 0.34450 0.38400
C 	C 	0.71120 0.23370 0.35120 -0.07200
C 	C 	0.85370 0.26090 0.35780 -0.32400
C 	C 	0.88260 0.15830 0.34380 0.38300
C 	C 	0.92150 0.84310 0.09887 -0.07500
C 	C 	0.96160 0.74520 0.11197 -0.29600
C 	C 	0.89130 0.60970 0.09657 0.38800
C 	C 	0.17560 0.08960 0.09817 -0.07700
C 	C 	0.27930 0.21940 0.11407 -0.32300
C 	C 	0.41720 0.28480 0.09907 0.38300
C 	C 	0.92720 0.09710 0.09897 -0.05300
C 	C 	0.79410 0.06390 0.11297 -0.33600
C 	C 	0.73290 0.14230 0.10087 0.39600
C 	C 	0.72540 0.21480 0.02027 -0.07400
C 	C 	0.86710 0.24640 0.02637 -0.32200
C 	C 	0.90120 0.14640 0.01337 0.37900
C 	C 	0.79770 0.49070 0.01837 -0.08200
C 	C 	0.76320 0.60050 0.02347 -0.31400
C 	C 	0.86780 0.73530 0.01117 0.38100
C 	C 	0.52250 0.28880 0.01787 -0.08100
C 	C 	0.40720 0.14630 0.02447 -0.31700
C 	C 	0.27570 0.11740 0.01047 0.37800
C 	C 	0.92160 0.07850 0.76553 -0.08700
C 	C 	0.78360 0.03840 0.77863 -0.29700
C 	C 	0.71840 0.10870 0.76323 0.38800
C 	C 	0.91400 0.82440 0.76483 -0.07700
C 	C 	0.94010 0.72070 0.78073 -0.36300
C 	C 	0.86760 0.58280 0.76573 0.39300
C 	C 	0.16990 0.07280 0.76563 -0.05100
C 	C 	0.26980 0.20590 0.77963 -0.35400
C 	C 	0.40940 0.26710 0.76753 0.40100
C 	C 	0.48940 0.27460 0.68693 -0.06700
C 	C 	0.37930 0.13290 0.69303 -0.32500
C 	C 	0.24520 0.09880 0.68003 0.37700
C 	C 	0.69300 0.20230 0.68503 -0.07500
C 	C 	0.83730 0.23680 0.69013 -0.31700
C 	C 	0.86750 0.13220 0.67783 0.38400
C 	C 	0.76630 0.47750 0.68453 -0.07200
C 	C 	0.73910 0.59280 0.69113 -0.32400
C 	C 	0.84170 0.72430 0.67713 0.38400
O 	O 	0.52530 0.75550 0.93790 -0.43000
O 	O 	0.58320 0.63500 0.91100 -0.32300
O 	O 	0.25610 0.75130 0.94210 -0.42200
O 	O 	0.36160 0.92020 0.91180 -0.33200
O 	O 	0.26950 0.47730 0.93840 -0.42700
O 	O 	0.08730 0.46070 0.92040 -0.34300
O 	O 	0.15590 0.14290 0.85410 -0.40800
O 	O 	0.05720 0.23370 0.83000 -0.33600
O 	O 	0.83740 0.97690 0.85330 -0.43500
O 	O 	0.74640 0.79480 0.82670 -0.34600
O 	O 	0.01250 0.84190 0.85300 -0.42400
O 	O 	0.18780 0.91720 0.82420 -0.33900
O 	O 	0.23020 0.47470 0.60457 -0.42500
O 	O 	0.05180 0.41680 0.57767 -0.31700
O 	O 	0.49520 0.74390 0.60877 -0.41700
O 	O 	0.55860 0.63840 0.57847 -0.32400
O 	O 	0.20780 0.73050 0.60507 -0.42400
O 	O 	0.37340 0.91270 0.58707 -0.34200
O 	O 	0.98700 0.84410 0.52077 -0.42600
O 	O 	0.17650 0.94280 0.49667 -0.34200
O 	O 	0.13950 0.16260 0.51997 -0.42700
O 	O 	0.04840 0.25360 0.49337 -0.34500
O 	O 	0.82940 0.98750 0.51967 -0.42200
O 	O 	0.72940 0.81220 0.49087 -0.33300
O 	O 	0.24450 0.76980 0.27123 -0.42600
O 	O 	0.36500 0.94820 0.24433 -0.31600
O 	O 	0.24870 0.50480 0.27543 -0.42100
O 	O 	0.07980 0.44140 0.24513 -0.33200
O 	O 	0.52270 0.79220 0.27173 -0.42500
O 	O 	0.53930 0.62660 0.25373 -0.34500
O 	O 	0.85710 0.01300 0.18743 -0.41400
O 	O 	0.76630 0.82350 0.16333 -0.34500
O 	O 	0.02310 0.86050 0.18663 -0.43100
O 	O 	0.20520 0.95160 0.16003 -0.34500
O 	O 	0.15810 0.17060 0.18633 -0.43200
O 	O 	0.08280 0.27060 0.15753 -0.34200
O 	O 	0.47470 0.24450 0.43790 -0.43000
O 	O 	0.41680 0.36500 0.41100 -0.32300
O 	O 	0.74390 0.24870 0.44210 -0.42200
O 	O 	0.63840 0.07980 0.41180 -0.33200
O 	O 	0.73050 0.52270 0.43840 -0.42700
O 	O 	0.91270 0.53930 0.42040 -0.34300
O 	O 	0.84410 0.85710 0.35410 -0.40800
O 	O 	0.94280 0.76630 0.33000 -0.33600
O 	O 	0.16260 0.02310 0.35330 -0.43500
O 	O 	0.25360 0.20520 0.32670 -0.34600
O 	O 	0.98750 0.15810 0.35300 -0.42400
O 	O 	0.81220 0.08280 0.32420 -0.33900
O 	O 	0.76980 0.52530 0.10457 -0.42500
O 	O 	0.94820 0.58320 0.07767 -0.31700
O 	O 	0.50480 0.25610 0.10877 -0.41700
O 	O 	0.44140 0.36160 0.07847 -0.32400
O 	O 	0.79220 0.26950 0.10507 -0.42400
O 	O 	0.62660 0.08730 0.08707 -0.34200
O 	O 	0.01300 0.15590 0.02077 -0.42600
O 	O 	0.82350 0.05720 0.99667 -0.33900
O 	O 	0.86050 0.83740 0.01997 -0.42700
O 	O 	0.95160 0.74640 0.99337 -0.34200
O 	O 	0.17060 0.01250 0.01967 -0.42200
O 	O 	0.27060 0.18780 0.99087 -0.33000
O 	O 	0.75550 0.23020 0.77123 -0.42600
O 	O 	0.63500 0.05180 0.74433 -0.31600
O 	O 	0.75130 0.49520 0.77543 -0.42100
O 	O 	0.92020 0.55860 0.74513 -0.33200
O 	O 	0.47730 0.20780 0.77173 -0.42500
O 	O 	0.46070 0.37340 0.75373 -0.34500
O 	O 	0.14290 0.98700 0.68743 -0.41400
O 	O 	0.23370 0.17650 0.66333 -0.34500
O 	O 	0.97690 0.13950 0.68663 -0.43100
O 	O 	0.79480 0.04840 0.66003 -0.34500
O 	O 	0.84190 0.82940 0.68633 -0.43200
O 	O 	0.91720 0.72940 0.65753 -0.34200
