data_crystal

_cell_length_a 13.66180
_cell_length_b 13.66180
_cell_length_c 13.66180
_cell_angle_alpha 103.24400
_cell_angle_beta  103.24400
_cell_angle_gamma 103.24400

_symmetry_space_group_name_	'P 1'
_symmetry_space_group_name_H-M	'P 1'

loop_
_symmetry_equiv_pos_as_xyz
  x,y,z

loop_
_atom_site_label
_atom_site_type_symbol
_atom_site_fract_x
_atom_site_fract_y
_atom_site_fract_z
_atom_site_charge
Cr	Cr	0.50000 0.28698 0.71302 1.47900
Cr	Cr	0.71302 0.50000 0.28698 1.47900
Cr	Cr	0.28698 0.71302 0.50000 1.47900
Co	Co	0.61809 0.38191 -0.00000 1.14800
Co	Co	-0.00000 0.61809 0.38191 1.14800
Co	Co	0.38191 0.00000 0.61809 1.14800
H 	H 	0.07940 0.34980 0.88720 0.05200
H 	H 	0.23690 0.36940 0.87330 0.07000
H 	H 	0.31440 0.33300 0.16070 0.06100
H 	H 	0.90440 0.36300 0.81530 0.09600
H 	H 	0.74530 0.37730 0.83560 -0.07000
H 	H 	0.48300 0.35350 0.15340 -0.07700
H 	H 	0.13800 0.35060 0.09240 0.04400
H 	H 	0.40430 0.37770 0.87010 -0.08700
H 	H 	0.99030 0.35960 0.11860 0.11000
H 	H 	0.82880 0.38290 0.12990 -0.02400
H 	H 	0.88720 0.07940 0.34980 0.05200
H 	H 	0.87330 0.23690 0.36940 0.07000
H 	H 	0.16070 0.31440 0.33300 0.06100
H 	H 	0.81530 0.90440 0.36300 0.09600
H 	H 	0.83560 0.74530 0.37730 -0.07000
H 	H 	0.15340 0.48300 0.35350 -0.07700
H 	H 	0.09240 0.13800 0.35060 0.04400
H 	H 	0.87010 0.40430 0.37770 -0.08700
H 	H 	0.11860 0.99030 0.35960 0.11000
H 	H 	0.12990 0.82880 0.38290 -0.02400
H 	H 	0.34980 0.88720 0.07940 0.05200
H 	H 	0.36940 0.87330 0.23690 0.07000
H 	H 	0.33300 0.16070 0.31440 0.06100
H 	H 	0.36300 0.81530 0.90440 0.09600
H 	H 	0.37730 0.83560 0.74530 -0.07000
H 	H 	0.35350 0.15340 0.48300 -0.07700
H 	H 	0.35060 0.09240 0.13800 0.04400
H 	H 	0.37770 0.87010 0.40430 -0.08700
H 	H 	0.35960 0.11860 0.99030 0.11000
H 	H 	0.38290 0.12990 0.82880 -0.02400
H 	H 	0.65020 0.92060 0.11280 0.03900
H 	H 	0.63060 0.76310 0.12670 0.09800
H 	H 	0.66700 0.68560 0.83930 0.08000
H 	H 	0.63700 0.09560 0.18470 0.05500
H 	H 	0.62270 0.25470 0.16440 -0.05600
H 	H 	0.64650 0.51700 0.84660 -0.08400
H 	H 	0.64940 0.86200 0.90760 0.07000
H 	H 	0.62230 0.59570 0.12990 -0.08400
H 	H 	0.64040 0.00970 0.88140 0.05100
H 	H 	0.61710 0.17120 0.87010 -0.02500
H 	H 	0.92060 0.11280 0.65020 0.03900
H 	H 	0.76310 0.12670 0.63060 0.09800
H 	H 	0.68560 0.83930 0.66700 0.08000
H 	H 	0.09560 0.18470 0.63700 0.05500
H 	H 	0.25470 0.16440 0.62270 -0.05600
H 	H 	0.51700 0.84660 0.64650 -0.08400
H 	H 	0.86200 0.90760 0.64940 0.07000
H 	H 	0.59570 0.12990 0.62230 -0.08400
H 	H 	0.00970 0.88140 0.64040 0.05100
H 	H 	0.17120 0.87010 0.61710 -0.02500
H 	H 	0.11280 0.65020 0.92060 0.03900
H 	H 	0.12670 0.63060 0.76310 0.09800
H 	H 	0.83930 0.66700 0.68560 0.08000
H 	H 	0.18470 0.63700 0.09560 0.05500
H 	H 	0.16440 0.62270 0.25470 -0.05600
H 	H 	0.84660 0.64650 0.51700 -0.08400
H 	H 	0.90760 0.64940 0.86200 0.07000
H 	H 	0.12990 0.62230 0.59570 -0.08400
H 	H 	0.88140 0.64040 0.00970 0.05100
H 	H 	0.87010 0.61710 0.17120 -0.02500
C 	C 	0.07000 0.35430 0.95390 -0.10500
C 	C 	0.28560 0.36590 0.93220 -0.16600
C 	C 	0.33170 0.34610 0.10120 -0.19800
C 	C 	0.25520 0.35540 0.02020 0.08500
C 	C 	0.89160 0.36640 0.88050 -0.21900
C 	C 	0.79660 0.37570 0.89390 0.14400
C 	C 	0.43190 0.35560 0.09530 0.09400
C 	C 	0.96840 0.36180 0.96490 0.20000
C 	C 	0.14990 0.35320 0.02780 -0.11300
C 	C 	0.38620 0.37110 0.93110 0.14000
C 	C 	0.94250 0.36540 0.06010 -0.21800
C 	C 	0.84470 0.37780 0.06600 0.08400
C 	C 	0.95390 0.07000 0.35430 -0.10500
C 	C 	0.93220 0.28560 0.36590 -0.16600
C 	C 	0.10120 0.33170 0.34610 -0.19800
C 	C 	0.02020 0.25520 0.35540 0.08500
C 	C 	0.88050 0.89160 0.36640 -0.21900
C 	C 	0.89390 0.79660 0.37570 0.14400
C 	C 	0.09530 0.43190 0.35560 0.09400
C 	C 	0.96490 0.96840 0.36180 0.20000
C 	C 	0.02780 0.14990 0.35320 -0.11300
C 	C 	0.93110 0.38620 0.37110 0.14000
C 	C 	0.06010 0.94250 0.36540 -0.21800
C 	C 	0.06600 0.84470 0.37780 0.08400
C 	C 	0.35430 0.95390 0.07000 -0.10500
C 	C 	0.36590 0.93220 0.28560 -0.16600
C 	C 	0.34610 0.10120 0.33170 -0.19800
C 	C 	0.35540 0.02020 0.25520 0.08500
C 	C 	0.36640 0.88050 0.89160 -0.21900
C 	C 	0.37570 0.89390 0.79660 0.14400
C 	C 	0.35560 0.09530 0.43190 0.09400
C 	C 	0.36180 0.96490 0.96840 0.20000
C 	C 	0.35320 0.02780 0.14990 -0.11300
C 	C 	0.37110 0.93110 0.38620 0.14000
C 	C 	0.36540 0.06010 0.94250 -0.21800
C 	C 	0.37780 0.06600 0.84470 0.08400
C 	C 	0.64570 0.93000 0.04610 -0.04300
C 	C 	0.63410 0.71440 0.06780 -0.26200
C 	C 	0.65390 0.66830 0.89880 -0.23300
C 	C 	0.64460 0.74480 0.97980 0.18800
C 	C 	0.63360 0.10840 0.11950 -0.14400
C 	C 	0.62430 0.20340 0.10610 0.08700
C 	C 	0.64440 0.56810 0.90470 0.13100
C 	C 	0.63820 0.03160 0.03510 0.01800
C 	C 	0.64680 0.85010 0.97220 -0.10900
C 	C 	0.62890 0.61380 0.06890 0.11200
C 	C 	0.63460 0.05750 0.93990 -0.09500
C 	C 	0.62220 0.15530 0.93400 0.09200
C 	C 	0.93000 0.04610 0.64570 -0.04300
C 	C 	0.71440 0.06780 0.63410 -0.26200
C 	C 	0.66830 0.89880 0.65390 -0.23300
C 	C 	0.74480 0.97980 0.64460 0.18800
C 	C 	0.10840 0.11950 0.63360 -0.14400
C 	C 	0.20340 0.10610 0.62430 0.08700
C 	C 	0.56810 0.90470 0.64440 0.13100
C 	C 	0.03160 0.03510 0.63820 0.01800
C 	C 	0.85010 0.97220 0.64680 -0.10900
C 	C 	0.61380 0.06890 0.62890 0.11200
C 	C 	0.05750 0.93990 0.63460 -0.09500
C 	C 	0.15530 0.93400 0.62220 0.09200
C 	C 	0.04610 0.64570 0.93000 -0.04300
C 	C 	0.06780 0.63410 0.71440 -0.26200
C 	C 	0.89880 0.65390 0.66830 -0.23300
C 	C 	0.97980 0.64460 0.74480 0.18800
C 	C 	0.11950 0.63360 0.10840 -0.14400
C 	C 	0.10610 0.62430 0.20340 0.08700
C 	C 	0.90470 0.64440 0.56810 0.13100
C 	C 	0.03510 0.63820 0.03160 0.01800
C 	C 	0.97220 0.64680 0.85010 -0.10900
C 	C 	0.06890 0.62890 0.61380 0.11200
C 	C 	0.93990 0.63460 0.05750 -0.09500
C 	C 	0.93400 0.62220 0.15530 0.09200
N 	N 	0.45992 0.36752 0.01132 -0.27600
N 	N 	0.77313 0.38257 0.98310 -0.22500
N 	N 	0.01132 0.45992 0.36752 -0.27600
N 	N 	0.98310 0.77313 0.38257 -0.22500
N 	N 	0.36752 0.01132 0.45992 -0.27600
N 	N 	0.38257 0.98310 0.77313 -0.22500
N 	N 	0.63248 0.54008 0.98868 -0.24200
N 	N 	0.61743 0.22687 0.01690 -0.25100
N 	N 	0.54008 0.98868 0.63248 -0.24200
N 	N 	0.22687 0.01690 0.61743 -0.25100
N 	N 	0.98868 0.63248 0.54008 -0.24200
N 	N 	0.01690 0.61743 0.22687 -0.25100
O 	O 	0.55842 0.32566 0.84018 -0.70500
O 	O 	0.84018 0.55842 0.32566 -0.70500
O 	O 	0.32566 0.84018 0.55842 -0.70500
O 	O 	0.67434 0.44158 0.15982 -0.71700
O 	O 	0.44158 0.15982 0.67434 -0.71700
O 	O 	0.15982 0.67434 0.44158 -0.71700
