data_crystal

_cell_length_a 13.68220
_cell_length_b 13.68220
_cell_length_c 13.68220
_cell_angle_alpha 102.35300
_cell_angle_beta  102.35300
_cell_angle_gamma 102.35300

_symmetry_space_group_name_	'P 1'
_symmetry_space_group_name_H-M	'P 1'

loop_
_symmetry_equiv_pos_as_xyz
  x,y,z

loop_
_atom_site_label
_atom_site_type_symbol
_atom_site_fract_x
_atom_site_fract_y
_atom_site_fract_z
_atom_site_charge
Co	Co	0.88292 0.50000 0.11708 1.15400
Co	Co	0.11708 0.88292 0.50000 1.15400
Co	Co	0.50000 0.11708 0.88292 1.15400
Mo	Mo	0.79279 0.20721 -0.00000 1.04100
Mo	Mo	0.00000 0.79279 0.20721 1.04100
Mo	Mo	0.20721 0.00000 0.79279 1.04100
H 	H 	0.88160 0.33660 0.24830 -0.04400
H 	H 	0.86560 0.31750 0.40730 0.08300
H 	H 	0.86040 0.61650 0.48700 0.09100
H 	H 	0.87930 0.62810 0.32720 -0.02000
H 	H 	0.85750 0.38920 0.58190 0.05500
H 	H 	0.85120 0.59260 0.63620 0.05700
H 	H 	0.82350 0.65570 0.80630 0.07600
H 	H 	0.83520 0.64430 0.97370 -0.03000
H 	H 	0.90100 0.37830 0.91080 -0.04000
H 	H 	0.88960 0.38040 0.74190 0.08500
H 	H 	0.24830 0.88160 0.33660 -0.04400
H 	H 	0.40730 0.86560 0.31750 0.08300
H 	H 	0.48700 0.86040 0.61650 0.09100
H 	H 	0.32720 0.87930 0.62810 -0.02000
H 	H 	0.58190 0.85750 0.38920 0.05500
H 	H 	0.63620 0.85120 0.59260 0.05700
H 	H 	0.80630 0.82350 0.65570 0.07600
H 	H 	0.97370 0.83520 0.64430 -0.03000
H 	H 	0.91080 0.90100 0.37830 -0.04000
H 	H 	0.74190 0.88960 0.38040 0.08500
H 	H 	0.33660 0.24830 0.88160 -0.04400
H 	H 	0.31750 0.40730 0.86560 0.08300
H 	H 	0.61650 0.48700 0.86040 0.09100
H 	H 	0.62810 0.32720 0.87930 -0.02000
H 	H 	0.38920 0.58190 0.85750 0.05500
H 	H 	0.59260 0.63620 0.85120 0.05700
H 	H 	0.65570 0.80630 0.82350 0.07600
H 	H 	0.64430 0.97370 0.83520 -0.03000
H 	H 	0.37830 0.91080 0.90100 -0.04000
H 	H 	0.38040 0.74190 0.88960 0.08500
H 	H 	0.66340 0.11840 0.75170 -0.05000
H 	H 	0.68250 0.13440 0.59270 0.07500
H 	H 	0.38350 0.13960 0.51300 0.08400
H 	H 	0.37190 0.12070 0.67280 -0.02800
H 	H 	0.61080 0.14250 0.41810 0.04800
H 	H 	0.40740 0.14880 0.36380 0.05000
H 	H 	0.34430 0.17650 0.19370 0.06300
H 	H 	0.35570 0.16480 0.02630 -0.06800
H 	H 	0.62170 0.09900 0.08920 -0.07600
H 	H 	0.61960 0.11040 0.25810 0.07300
H 	H 	0.11840 0.75170 0.66340 -0.05000
H 	H 	0.13440 0.59270 0.68250 0.07500
H 	H 	0.13960 0.51300 0.38350 0.08400
H 	H 	0.12070 0.67280 0.37190 -0.02800
H 	H 	0.14250 0.41810 0.61080 0.04800
H 	H 	0.14880 0.36380 0.40740 0.05000
H 	H 	0.17650 0.19370 0.34430 0.06300
H 	H 	0.16480 0.02630 0.35570 -0.06800
H 	H 	0.09900 0.08920 0.62170 -0.07600
H 	H 	0.11040 0.25810 0.61960 0.07300
H 	H 	0.75170 0.66340 0.11840 -0.05000
H 	H 	0.59270 0.68250 0.13440 0.07500
H 	H 	0.51300 0.38350 0.13960 0.08400
H 	H 	0.67280 0.37190 0.12070 -0.02800
H 	H 	0.41810 0.61080 0.14250 0.04800
H 	H 	0.36380 0.40740 0.14880 0.05000
H 	H 	0.19370 0.34430 0.17650 0.06300
H 	H 	0.02630 0.35570 0.16480 -0.06800
H 	H 	0.08920 0.62170 0.09900 -0.07600
H 	H 	0.25810 0.61960 0.11040 0.07300
C 	C 	0.87853 0.39437 0.29782 0.11500
C 	C 	0.86876 0.38214 0.39290 -0.18000
C 	C 	0.86369 0.46612 0.46753 0.12800
C 	C 	0.86609 0.55837 0.43984 -0.16900
C 	C 	0.87677 0.56464 0.34381 0.10500
C 	C 	0.85860 0.45465 0.57055 -0.08200
C 	C 	0.85530 0.52860 0.64900 -0.09000
C 	C 	0.85750 0.51898 0.75452 0.12500
C 	C 	0.84000 0.59810 0.82610 -0.18400
C 	C 	0.84714 0.59047 0.92619 0.09800
C 	C 	0.88520 0.43531 0.88948 0.11100
C 	C 	0.87910 0.43620 0.78810 -0.18600
C 	C 	0.29782 0.87853 0.39437 0.11500
C 	C 	0.39290 0.86876 0.38214 -0.18000
C 	C 	0.46753 0.86369 0.46612 0.12800
C 	C 	0.43984 0.86609 0.55837 -0.16900
C 	C 	0.34381 0.87677 0.56464 0.10500
C 	C 	0.57055 0.85860 0.45465 -0.08200
C 	C 	0.64900 0.85530 0.52860 -0.09000
C 	C 	0.75452 0.85750 0.51898 0.12500
C 	C 	0.82610 0.84000 0.59810 -0.18400
C 	C 	0.92619 0.84714 0.59047 0.09800
C 	C 	0.88948 0.88520 0.43531 0.11100
C 	C 	0.78810 0.87910 0.43620 -0.18600
C 	C 	0.39437 0.29782 0.87853 0.11500
C 	C 	0.38214 0.39290 0.86876 -0.18000
C 	C 	0.46612 0.46753 0.86369 0.12800
C 	C 	0.55837 0.43984 0.86609 -0.16900
C 	C 	0.56464 0.34381 0.87677 0.10500
C 	C 	0.45465 0.57055 0.85860 -0.08200
C 	C 	0.52860 0.64900 0.85530 -0.09000
C 	C 	0.51898 0.75452 0.85750 0.12500
C 	C 	0.59810 0.82610 0.84000 -0.18400
C 	C 	0.59047 0.92619 0.84714 0.09800
C 	C 	0.43531 0.88948 0.88520 0.11100
C 	C 	0.43620 0.78810 0.87910 -0.18600
C 	C 	0.60563 0.12147 0.70218 0.10000
C 	C 	0.61786 0.13124 0.60710 -0.18500
C 	C 	0.53388 0.13631 0.53247 0.11500
C 	C 	0.44163 0.13391 0.56016 -0.17600
C 	C 	0.43536 0.12323 0.65619 0.09100
C 	C 	0.54535 0.14140 0.42945 -0.09000
C 	C 	0.47140 0.14470 0.35100 -0.10000
C 	C 	0.48102 0.14250 0.24548 0.11500
C 	C 	0.40190 0.16000 0.17390 -0.19800
C 	C 	0.40953 0.15286 0.07381 0.08300
C 	C 	0.56469 0.11480 0.11052 0.09400
C 	C 	0.56380 0.12090 0.21190 -0.19800
C 	C 	0.12147 0.70218 0.60563 0.10000
C 	C 	0.13124 0.60710 0.61786 -0.18500
C 	C 	0.13631 0.53247 0.53388 0.11500
C 	C 	0.13391 0.56016 0.44163 -0.17600
C 	C 	0.12323 0.65619 0.43536 0.09100
C 	C 	0.14140 0.42945 0.54535 -0.09000
C 	C 	0.14470 0.35100 0.47140 -0.10000
C 	C 	0.14250 0.24548 0.48102 0.11500
C 	C 	0.16000 0.17390 0.40190 -0.19800
C 	C 	0.15286 0.07381 0.40953 0.08300
C 	C 	0.11480 0.11052 0.56469 0.09400
C 	C 	0.12090 0.21190 0.56380 -0.19800
C 	C 	0.70218 0.60563 0.12147 0.10000
C 	C 	0.60710 0.61786 0.13124 -0.18500
C 	C 	0.53247 0.53388 0.13631 0.11500
C 	C 	0.56016 0.44163 0.13391 -0.17600
C 	C 	0.65619 0.43536 0.12323 0.09100
C 	C 	0.42945 0.54535 0.14140 -0.09000
C 	C 	0.35100 0.47140 0.14470 -0.10000
C 	C 	0.24548 0.48102 0.14250 0.11500
C 	C 	0.17390 0.40190 0.16000 -0.19800
C 	C 	0.07381 0.40953 0.15286 0.08300
C 	C 	0.11052 0.56469 0.11480 0.09400
C 	C 	0.21190 0.56380 0.12090 -0.19800
N 	N 	0.86985 0.51102 0.95935 -0.23100
N 	N 	0.88379 0.48380 0.27225 -0.23600
N 	N 	0.95935 0.86985 0.51102 -0.23100
N 	N 	0.27225 0.88379 0.48380 -0.23600
N 	N 	0.51102 0.95935 0.86985 -0.23100
N 	N 	0.48380 0.27225 0.88379 -0.23600
N 	N 	0.48898 0.13015 0.04065 -0.26800
N 	N 	0.51620 0.11621 0.72775 -0.24600
N 	N 	0.13015 0.04065 0.48898 -0.26800
N 	N 	0.11621 0.72775 0.51620 -0.24600
N 	N 	0.04065 0.48898 0.13015 -0.26800
N 	N 	0.72775 0.51620 0.11621 -0.24600
O 	O 	0.83125 0.34225 0.06134 -0.58300
O 	O 	0.06134 0.83125 0.34225 -0.58300
O 	O 	0.34225 0.06134 0.83125 -0.58300
O 	O 	0.65775 0.16875 0.93866 -0.55700
O 	O 	0.16875 0.93866 0.65775 -0.55700
O 	O 	0.93866 0.65775 0.16875 -0.55700
