data_crystal

_cell_length_a 21.08560
_cell_length_b 21.08560
_cell_length_c 17.96780
_cell_angle_alpha 90.00000
_cell_angle_beta  90.00000
_cell_angle_gamma 120.00000

_symmetry_space_group_name_	'P 1'
_symmetry_space_group_name_H-M	'P 1'

loop_
_symmetry_equiv_pos_as_xyz
  x,y,z

loop_
_atom_site_label
_atom_site_type_symbol
_atom_site_fract_x
_atom_site_fract_y
_atom_site_fract_z
_atom_site_charge
C 	C 	0.38697 0.52344 0.45564 0.07700
H 	H 	0.34420 0.50550 0.48560 -0.04400
C 	C 	0.41319 0.59053 0.42178 -0.17500
H 	H 	0.38890 0.61780 0.42910 0.06200
C 	C 	0.47551 0.61850 0.37670 0.10600
C 	C 	0.50853 0.57537 0.36946 -0.17500
H 	H 	0.55140 0.59200 0.34010 0.07000
C 	C 	0.47837 0.50878 0.40517 0.09200
H 	H 	0.50110 0.48010 0.39870 -0.05700
C 	C 	0.50617 0.69154 0.34390 -0.09300
H 	H 	0.48440 0.71990 0.35730 0.05300
C 	C 	0.56225 0.72102 0.29682 -0.07900
H 	H 	0.58190 0.69140 0.28100 0.04700
C 	C 	0.59611 0.79576 0.26739 0.10300
C 	C 	0.65224 0.81898 0.21474 -0.16300
H 	H 	0.66690 0.78590 0.19660 0.06800
C 	C 	0.68616 0.89016 0.18934 0.09300
H 	H 	0.72410 0.90490 0.15340 -0.03400
C 	C 	0.61371 0.91762 0.26325 0.08300
H 	H 	0.60040 0.95200 0.28050 -0.00600
C 	C 	0.57644 0.84690 0.29064 -0.15100
H 	H 	0.53760 0.83310 0.32520 0.08000
N 	N 	0.66835 0.93976 0.21278 -0.22300
N 	N 	0.41872 0.48211 0.44852 -0.24300
O 	O 	0.74924 0.01283 0.07876 -0.58300
C 	C 	0.05364 0.85677 0.78897 0.09200
H 	H 	0.01087 0.83883 0.81893 -0.05100
C 	C 	0.07986 0.92386 0.75511 -0.20200
H 	H 	0.05557 0.95113 0.76243 0.07500
C 	C 	0.14218 0.95183 0.71003 0.15800
C 	C 	0.17520 0.90870 0.70279 -0.20100
H 	H 	0.21807 0.92533 0.67343 0.08800
C 	C 	0.14504 0.84211 0.73850 0.10800
H 	H 	0.16777 0.81343 0.73203 -0.06100
C 	C 	0.17284 0.02487 0.67723 -0.15200
H 	H 	0.15107 0.05323 0.69063 0.06600
C 	C 	0.22892 0.05435 0.63015 -0.04600
H 	H 	0.24857 0.02473 0.61433 0.02800
C 	C 	0.26278 0.12909 0.60072 0.08600
C 	C 	0.31891 0.15231 0.54807 -0.15400
H 	H 	0.33357 0.11923 0.52993 0.06500
C 	C 	0.35283 0.22349 0.52267 0.08900
H 	H 	0.39077 0.23823 0.48673 -0.03800
C 	C 	0.28038 0.25095 0.59658 0.07800
H 	H 	0.26707 0.28533 0.61383 -0.01400
C 	C 	0.24311 0.18023 0.62397 -0.14200
H 	H 	0.20427 0.16643 0.65853 0.07500
N 	N 	0.33502 0.27309 0.54611 -0.23000
N 	N 	0.08539 0.81544 0.78185 -0.25000
O 	O 	0.41591 0.34616 0.41209 -0.56200
C 	C 	0.72030 0.19011 0.12231 0.08900
H 	H 	0.67753 0.17217 0.15227 -0.05100
C 	C 	0.74652 0.25720 0.08845 -0.21200
H 	H 	0.72223 0.28447 0.09577 0.07000
C 	C 	0.80884 0.28517 0.04337 0.15700
C 	C 	0.84186 0.24204 0.03613 -0.21300
H 	H 	0.88473 0.25867 0.00677 0.07200
C 	C 	0.81170 0.17545 0.07184 0.10200
H 	H 	0.83443 0.14677 0.06537 -0.06700
C 	C 	0.83950 0.35821 0.01057 -0.23300
H 	H 	0.81773 0.38657 0.02397 0.08500
C 	C 	0.89558 0.38769 0.96349 0.07800
H 	H 	0.91523 0.35807 0.94767 0.01800
C 	C 	0.92944 0.46243 0.93406 0.02400
C 	C 	0.98557 0.48565 0.88141 -0.01500
H 	H 	0.00023 0.45257 0.86327 0.00800
C 	C 	0.01949 0.55683 0.85601 0.00600
H 	H 	0.05743 0.57157 0.82007 -0.01200
C 	C 	0.94704 0.58429 0.92992 0.09100
H 	H 	0.93373 0.61867 0.94717 0.00200
C 	C 	0.90977 0.51357 0.95731 -0.09500
H 	H 	0.87093 0.49977 0.99187 0.08300
N 	N 	0.00168 0.60643 0.87945 -0.22600
N 	N 	0.75205 0.14878 0.11519 -0.25100
O 	O 	0.08257 0.67950 0.74543 -0.56700
C 	C 	0.47656 0.86353 0.45564 0.08600
H 	H 	0.49450 0.83870 0.48560 -0.04500
C 	C 	0.40947 0.82266 0.42178 -0.18700
H 	H 	0.38220 0.77110 0.42910 0.06600
C 	C 	0.38150 0.85701 0.37670 0.12400
C 	C 	0.42463 0.93316 0.36946 -0.20900
H 	H 	0.40800 0.95940 0.34010 0.09000
C 	C 	0.49122 0.96959 0.40517 0.15800
H 	H 	0.51990 0.02100 0.39870 -0.09700
C 	C 	0.30846 0.81463 0.34390 -0.10000
H 	H 	0.28010 0.76450 0.35730 0.05500
C 	C 	0.27898 0.84123 0.29682 -0.07600
H 	H 	0.30860 0.89050 0.28100 0.04900
C 	C 	0.20424 0.80035 0.26739 0.10600
C 	C 	0.18102 0.83326 0.21474 -0.16800
H 	H 	0.21410 0.88100 0.19660 0.07200
C 	C 	0.10984 0.79600 0.18934 0.09400
H 	H 	0.09510 0.81920 0.15340 -0.04900
C 	C 	0.08238 0.69609 0.26325 0.08300
H 	H 	0.04800 0.64840 0.28050 -0.02500
C 	C 	0.15310 0.72954 0.29064 -0.15400
H 	H 	0.16690 0.70450 0.32520 0.08000
N 	N 	0.06024 0.72859 0.21278 -0.24200
N 	N 	0.51789 0.93661 0.44852 -0.24800
O 	O 	0.98717 0.73641 0.07876 -0.55100
C 	C 	0.14323 0.19686 0.78897 0.06300
H 	H 	0.16117 0.17203 0.81893 -0.03700
C 	C 	0.07614 0.15599 0.75511 -0.14700
H 	H 	0.04887 0.10443 0.76243 0.04400
C 	C 	0.04817 0.19034 0.71003 0.05500
C 	C 	0.09130 0.26649 0.70279 -0.14800
H 	H 	0.07467 0.29273 0.67343 0.05400
C 	C 	0.15789 0.30292 0.73850 0.07700
H 	H 	0.18657 0.35433 0.73203 -0.05300
C 	C 	0.97513 0.14796 0.67723 -0.03600
H 	H 	0.94677 0.09783 0.69063 0.03600
C 	C 	0.94565 0.17456 0.63015 -0.10400
H 	H 	0.97527 0.22383 0.61433 0.06500
C 	C 	0.87091 0.13368 0.60072 0.10700
C 	C 	0.84769 0.16659 0.54807 -0.16300
H 	H 	0.88077 0.21433 0.52993 0.07500
C 	C 	0.77651 0.12933 0.52267 0.09300
H 	H 	0.76177 0.15253 0.48673 -0.03800
C 	C 	0.74905 0.02942 0.59658 0.02300
H 	H 	0.71467 0.98173 0.61383 0.02300
C 	C 	0.81977 0.06287 0.62397 -0.12800
H 	H 	0.83357 0.03783 0.65853 0.06500
N 	N 	0.72691 0.06192 0.54611 -0.22700
N 	N 	0.18456 0.26994 0.78185 -0.23700
O 	O 	0.65384 0.06974 0.41209 -0.56700
C 	C 	0.80989 0.53020 0.12231 0.08600
H 	H 	0.82783 0.50537 0.15227 -0.04800
C 	C 	0.74280 0.48933 0.08845 -0.20600
H 	H 	0.71553 0.43777 0.09577 0.06800
C 	C 	0.71483 0.52368 0.04337 0.14700
C 	C 	0.75796 0.59983 0.03613 -0.20600
H 	H 	0.74133 0.62607 0.00677 0.06700
C 	C 	0.82455 0.63626 0.07184 0.09900
H 	H 	0.85323 0.68767 0.06537 -0.06400
C 	C 	0.64179 0.48130 0.01057 -0.21700
H 	H 	0.61343 0.43117 0.02397 0.07900
C 	C 	0.61231 0.50790 0.96349 0.04800
H 	H 	0.64193 0.55717 0.94767 0.02400
C 	C 	0.53757 0.46702 0.93406 0.06800
C 	C 	0.51435 0.49993 0.88141 -0.13300
H 	H 	0.54743 0.54767 0.86327 0.06600
C 	C 	0.44317 0.46267 0.85601 0.08800
H 	H 	0.42843 0.48587 0.82007 -0.03500
C 	C 	0.41571 0.36276 0.92992 0.07900
H 	H 	0.38133 0.31507 0.94717 0.00000
C 	C 	0.48643 0.39621 0.95731 -0.11800
H 	H 	0.50023 0.37117 0.99187 0.09000
N 	N 	0.39357 0.39526 0.87945 -0.22500
N 	N 	0.85122 0.60328 0.11519 -0.25000
O 	O 	0.32050 0.40308 0.74543 -0.56200
C 	C 	0.13647 0.61303 0.45564 0.07000
H 	H 	0.16130 0.65580 0.48560 -0.04100
C 	C 	0.17734 0.58681 0.42178 -0.16300
H 	H 	0.22890 0.61110 0.42910 0.05800
C 	C 	0.14299 0.52449 0.37670 0.08700
C 	C 	0.06684 0.49147 0.36946 -0.14100
H 	H 	0.04060 0.44860 0.34010 0.05100
C 	C 	0.03041 0.52163 0.40517 0.02700
H 	H 	0.97900 0.49890 0.39870 -0.01800
C 	C 	0.18537 0.49383 0.34390 -0.08400
H 	H 	0.23550 0.51560 0.35730 0.04900
C 	C 	0.15877 0.43775 0.29682 -0.08400
H 	H 	0.10950 0.41810 0.28100 0.04500
C 	C 	0.19965 0.40389 0.26739 0.10500
C 	C 	0.16674 0.34776 0.21474 -0.16700
H 	H 	0.11900 0.33310 0.19660 0.06400
C 	C 	0.20400 0.31384 0.18934 0.09300
H 	H 	0.18080 0.27590 0.15340 -0.04600
C 	C 	0.30391 0.38629 0.26325 0.08400
H 	H 	0.35160 0.39960 0.28050 -0.01600
C 	C 	0.27046 0.42356 0.29064 -0.15300
H 	H 	0.29550 0.46240 0.32520 0.08000
N 	N 	0.27141 0.33165 0.21278 -0.23300
N 	N 	0.06339 0.58128 0.44852 -0.23500
O 	O 	0.26359 0.25076 0.07876 -0.57300
C 	C 	0.80314 0.94636 0.78897 0.08500
H 	H 	0.82797 0.98913 0.81893 -0.02900
C 	C 	0.84401 0.92014 0.75511 -0.17100
H 	H 	0.89557 0.94443 0.76243 0.07700
C 	C 	0.80966 0.85782 0.71003 0.11100
C 	C 	0.73351 0.82480 0.70279 -0.17400
H 	H 	0.70727 0.78193 0.67343 0.07100
C 	C 	0.69708 0.85496 0.73850 0.09500
H 	H 	0.64567 0.83223 0.73203 -0.05800
C 	C 	0.85204 0.82716 0.67723 -0.08600
H 	H 	0.90217 0.84893 0.69063 0.05900
C 	C 	0.82544 0.77108 0.63015 -0.08500
H 	H 	0.77617 0.75143 0.61433 0.05100
C 	C 	0.86632 0.73722 0.60072 0.12600
C 	C 	0.83341 0.68109 0.54807 -0.17600
H 	H 	0.78567 0.66643 0.52993 0.07600
C 	C 	0.87067 0.64717 0.52267 0.10400
H 	H 	0.84747 0.60923 0.48673 -0.04100
C 	C 	0.97058 0.71962 0.59658 0.15000
H 	H 	0.01827 0.73293 0.61383 -0.05500
C 	C 	0.93713 0.75689 0.62397 -0.18500
H 	H 	0.96217 0.79573 0.65853 0.10200
N 	N 	0.93808 0.66498 0.54611 -0.23800
N 	N 	0.73006 0.91461 0.78185 -0.24100
O 	O 	0.93026 0.58409 0.41209 -0.55200
C 	C 	0.46980 0.27970 0.12231 0.08200
H 	H 	0.49463 0.32247 0.15227 -0.04800
C 	C 	0.51067 0.25348 0.08845 -0.20100
H 	H 	0.56223 0.27777 0.09577 0.06600
C 	C 	0.47632 0.19116 0.04337 0.13700
C 	C 	0.40017 0.15814 0.03613 -0.20300
H 	H 	0.37393 0.11527 0.00677 0.06000
C 	C 	0.36374 0.18830 0.07184 0.09500
H 	H 	0.31233 0.16557 0.06537 -0.06900
C 	C 	0.51870 0.16050 0.01057 -0.20100
H 	H 	0.56883 0.18227 0.02397 0.07200
C 	C 	0.49210 0.10442 0.96349 0.01800
H 	H 	0.44283 0.08477 0.94767 0.02800
C 	C 	0.53298 0.07056 0.93406 0.11200
C 	C 	0.50007 0.01443 0.88141 -0.25600
H 	H 	0.45233 0.99977 0.86327 0.12500
C 	C 	0.53733 0.98051 0.85601 0.17200
H 	H 	0.51413 0.94257 0.82007 -0.05900
C 	C 	0.63724 0.05296 0.92992 0.06600
H 	H 	0.68493 0.06627 0.94717 -0.00200
C 	C 	0.60379 0.09023 0.95731 -0.14000
H 	H 	0.62883 0.12907 0.99187 0.09700
N 	N 	0.60474 0.99832 0.87945 -0.22400
N 	N 	0.39672 0.24795 0.11519 -0.24900
O 	O 	0.59692 0.91743 0.74543 -0.55500
C 	C 	0.52344 0.38697 0.54436 0.07900
H 	H 	0.50550 0.34420 0.51440 -0.04400
C 	C 	0.59053 0.41319 0.57822 -0.17500
H 	H 	0.61780 0.38890 0.57090 0.06300
C 	C 	0.61850 0.47551 0.62330 0.10700
C 	C 	0.57537 0.50853 0.63054 -0.17500
H 	H 	0.59200 0.55140 0.65990 0.07100
C 	C 	0.50878 0.47837 0.59483 0.09200
H 	H 	0.48010 0.50110 0.60130 -0.05700
C 	C 	0.69154 0.50617 0.65610 -0.09200
H 	H 	0.71990 0.48440 0.64270 0.05400
C 	C 	0.72102 0.56225 0.70318 -0.07700
H 	H 	0.69140 0.58190 0.71900 0.04900
C 	C 	0.79576 0.59611 0.73261 0.10700
C 	C 	0.81898 0.65224 0.78526 -0.15900
H 	H 	0.78590 0.66690 0.80340 0.07700
C 	C 	0.89016 0.68616 0.81066 0.09600
H 	H 	0.90490 0.72410 0.84660 -0.02500
C 	C 	0.91762 0.61371 0.73675 0.08500
H 	H 	0.95200 0.60040 0.71950 -0.00700
C 	C 	0.84690 0.57644 0.70936 -0.15000
H 	H 	0.83310 0.53760 0.67480 0.08100
N 	N 	0.93976 0.66835 0.78722 -0.22300
N 	N 	0.48211 0.41872 0.55148 -0.24300
O 	O 	0.01283 0.74924 0.92124 -0.55000
C 	C 	0.19011 0.72030 0.87769 0.07500
H 	H 	0.17217 0.67753 0.84773 -0.04000
C 	C 	0.25720 0.74652 0.91155 -0.15000
H 	H 	0.28447 0.72223 0.90423 0.05900
C 	C 	0.28517 0.80884 0.95663 0.07700
C 	C 	0.24204 0.84186 0.96387 -0.14700
H 	H 	0.25867 0.88473 0.99323 0.08200
C 	C 	0.17545 0.81170 0.92816 0.08900
H 	H 	0.14677 0.83443 0.93463 -0.04400
C 	C 	0.35821 0.83950 0.98943 0.01400
H 	H 	0.38657 0.81773 0.97603 0.03500
C 	C 	0.38769 0.89558 0.03651 -0.17000
H 	H 	0.35807 0.91523 0.05233 0.06700
C 	C 	0.46243 0.92944 0.06594 0.09700
C 	C 	0.48565 0.98557 0.11859 -0.06500
H 	H 	0.45257 0.00023 0.13673 0.01600
C 	C 	0.55683 0.01949 0.14399 0.01400
H 	H 	0.57157 0.05743 0.17993 -0.01800
C 	C 	0.58429 0.94704 0.07008 0.10300
H 	H 	0.61867 0.93373 0.05283 -0.02700
C 	C 	0.51357 0.90977 0.04269 -0.16100
H 	H 	0.49977 0.87093 0.00813 0.06400
N 	N 	0.60643 0.00168 0.12055 -0.24100
N 	N 	0.14878 0.75205 0.88481 -0.23700
O 	O 	0.67950 0.08257 0.25457 -0.56800
C 	C 	0.85677 0.05364 0.21103 0.09000
H 	H 	0.83883 0.01087 0.18107 -0.05800
C 	C 	0.92386 0.07986 0.24489 -0.20600
H 	H 	0.95113 0.05557 0.23757 0.07100
C 	C 	0.95183 0.14218 0.28997 0.15700
C 	C 	0.90870 0.17520 0.29721 -0.20200
H 	H 	0.92533 0.21807 0.32657 0.08700
C 	C 	0.84211 0.14504 0.26150 0.10600
H 	H 	0.81343 0.16777 0.26797 -0.06100
C 	C 	0.02487 0.17284 0.32277 -0.15400
H 	H 	0.05323 0.15107 0.30937 0.06500
C 	C 	0.05435 0.22892 0.36985 -0.04600
H 	H 	0.02473 0.24857 0.38567 0.02800
C 	C 	0.12909 0.26278 0.39928 0.08600
C 	C 	0.15231 0.31891 0.45193 -0.15300
H 	H 	0.11923 0.33357 0.47007 0.06500
C 	C 	0.22349 0.35283 0.47733 0.08900
H 	H 	0.23823 0.39077 0.51327 -0.03800
C 	C 	0.25095 0.28038 0.40342 0.07800
H 	H 	0.28533 0.26707 0.38617 -0.01400
C 	C 	0.18023 0.24311 0.37603 -0.14200
H 	H 	0.16643 0.20427 0.34147 0.07400
N 	N 	0.27309 0.33502 0.45389 -0.23000
N 	N 	0.81544 0.08539 0.21815 -0.25100
O 	O 	0.34616 0.41591 0.58791 -0.56200
C 	C 	0.86353 0.47656 0.54436 0.08600
H 	H 	0.83870 0.49450 0.51440 -0.04500
C 	C 	0.82266 0.40947 0.57822 -0.18700
H 	H 	0.77110 0.38220 0.57090 0.06700
C 	C 	0.85701 0.38150 0.62330 0.12500
C 	C 	0.93316 0.42463 0.63054 -0.20700
H 	H 	0.95940 0.40800 0.65990 0.09000
C 	C 	0.96959 0.49122 0.59483 0.15600
H 	H 	0.02100 0.51990 0.60130 -0.09500
C 	C 	0.81463 0.30846 0.65610 -0.09900
H 	H 	0.76450 0.28010 0.64270 0.05600
C 	C 	0.84123 0.27898 0.70318 -0.07400
H 	H 	0.89050 0.30860 0.71900 0.05100
C 	C 	0.80035 0.20424 0.73261 0.10900
C 	C 	0.83326 0.18102 0.78526 -0.16300
H 	H 	0.88100 0.21410 0.80340 0.08000
C 	C 	0.79600 0.10984 0.81066 0.09700
H 	H 	0.81920 0.09510 0.84660 -0.03900
C 	C 	0.69609 0.08238 0.73675 0.08500
H 	H 	0.64840 0.04800 0.71950 -0.02500
C 	C 	0.72954 0.15310 0.70936 -0.15300
H 	H 	0.70450 0.16690 0.67480 0.08100
N 	N 	0.72859 0.06024 0.78722 -0.24200
N 	N 	0.93661 0.51789 0.55148 -0.24800
O 	O 	0.73641 0.98717 0.92124 -0.52000
C 	C 	0.53020 0.80989 0.87769 0.07100
H 	H 	0.50537 0.82783 0.84773 -0.03700
C 	C 	0.48933 0.74280 0.91155 -0.14300
H 	H 	0.43777 0.71553 0.90423 0.05600
C 	C 	0.52368 0.71483 0.95663 0.06500
C 	C 	0.59983 0.75796 0.96387 -0.13900
H 	H 	0.62607 0.74133 0.99323 0.07600
C 	C 	0.63626 0.82455 0.92816 0.08400
H 	H 	0.68767 0.85323 0.93463 -0.04100
C 	C 	0.48130 0.64179 0.98943 0.03500
H 	H 	0.43117 0.61343 0.97603 0.02700
C 	C 	0.50790 0.61231 0.03651 -0.20700
H 	H 	0.55717 0.64193 0.05233 0.07400
C 	C 	0.46702 0.53757 0.06594 0.14600
C 	C 	0.49993 0.51435 0.11859 -0.19600
H 	H 	0.54767 0.54743 0.13673 0.07900
C 	C 	0.46267 0.44317 0.14399 0.10400
H 	H 	0.48587 0.42843 0.17993 -0.04400
C 	C 	0.36276 0.41571 0.07008 0.09000
H 	H 	0.31507 0.38133 0.05283 -0.03100
C 	C 	0.39621 0.48643 0.04269 -0.18700
H 	H 	0.37117 0.50023 0.00813 0.07200
N 	N 	0.39526 0.39357 0.12055 -0.24000
N 	N 	0.60328 0.85122 0.88481 -0.23500
O 	O 	0.40308 0.32050 0.25457 -0.56200
C 	C 	0.19686 0.14323 0.21103 0.05900
H 	H 	0.17203 0.16117 0.18107 -0.04400
C 	C 	0.15599 0.07614 0.24489 -0.14900
H 	H 	0.10443 0.04887 0.23757 0.03800
C 	C 	0.19034 0.04817 0.28997 0.04900
C 	C 	0.26649 0.09130 0.29721 -0.14700
H 	H 	0.29273 0.07467 0.32657 0.05300
C 	C 	0.30292 0.15789 0.26150 0.07400
H 	H 	0.35433 0.18657 0.26797 -0.05300
C 	C 	0.14796 0.97513 0.32277 -0.03300
H 	H 	0.09783 0.94677 0.30937 0.03400
C 	C 	0.17456 0.94565 0.36985 -0.10600
H 	H 	0.22383 0.97527 0.38567 0.06600
C 	C 	0.13368 0.87091 0.39928 0.10900
C 	C 	0.16659 0.84769 0.45193 -0.16400
H 	H 	0.21433 0.88077 0.47007 0.07600
C 	C 	0.12933 0.77651 0.47733 0.09300
H 	H 	0.15253 0.76177 0.51327 -0.03800
C 	C 	0.02942 0.74905 0.40342 0.02500
H 	H 	0.98173 0.71467 0.38617 0.02200
C 	C 	0.06287 0.81977 0.37603 -0.12900
H 	H 	0.03783 0.83357 0.34147 0.06500
N 	N 	0.06192 0.72691 0.45389 -0.22700
N 	N 	0.26994 0.18456 0.21815 -0.23800
O 	O 	0.06974 0.65384 0.58791 -0.56700
C 	C 	0.61303 0.13647 0.54436 0.07000
H 	H 	0.65580 0.16130 0.51440 -0.04100
C 	C 	0.58681 0.17734 0.57822 -0.16300
H 	H 	0.61110 0.22890 0.57090 0.05900
C 	C 	0.52449 0.14299 0.62330 0.08900
C 	C 	0.49147 0.06684 0.63054 -0.14100
H 	H 	0.44860 0.04060 0.65990 0.05200
C 	C 	0.52163 0.03041 0.59483 0.02700
H 	H 	0.49890 0.97900 0.60130 -0.01800
C 	C 	0.49383 0.18537 0.65610 -0.08300
H 	H 	0.51560 0.23550 0.64270 0.05100
C 	C 	0.43775 0.15877 0.70318 -0.08300
H 	H 	0.41810 0.10950 0.71900 0.04800
C 	C 	0.40389 0.19965 0.73261 0.10900
C 	C 	0.34776 0.16674 0.78526 -0.16200
H 	H 	0.33310 0.11900 0.80340 0.07300
C 	C 	0.31384 0.20400 0.81066 0.09600
H 	H 	0.27590 0.18080 0.84660 -0.03500
C 	C 	0.38629 0.30391 0.73675 0.08500
H 	H 	0.39960 0.35160 0.71950 -0.01600
C 	C 	0.42356 0.27046 0.70936 -0.15200
H 	H 	0.46240 0.29550 0.67480 0.08100
N 	N 	0.33165 0.27141 0.78722 -0.23200
N 	N 	0.58128 0.06339 0.55148 -0.23500
O 	O 	0.25076 0.26359 0.92124 -0.54000
C 	C 	0.27970 0.46980 0.87769 0.06700
H 	H 	0.32247 0.49463 0.84773 -0.03700
C 	C 	0.25348 0.51067 0.91155 -0.13700
H 	H 	0.27777 0.56223 0.90423 0.05400
C 	C 	0.19116 0.47632 0.95663 0.05400
C 	C 	0.15814 0.40017 0.96387 -0.13400
H 	H 	0.11527 0.37393 0.99323 0.07000
C 	C 	0.18830 0.36374 0.92816 0.08100
H 	H 	0.16557 0.31233 0.93463 -0.04500
C 	C 	0.16050 0.51870 0.98943 0.05500
H 	H 	0.18227 0.56883 0.97603 0.01900
C 	C 	0.10442 0.49210 0.03651 -0.24200
H 	H 	0.08477 0.44283 0.05233 0.07900
C 	C 	0.07056 0.53298 0.06594 0.19400
C 	C 	0.01443 0.50007 0.11859 -0.32300
H 	H 	0.99977 0.45233 0.13673 0.14100
C 	C 	0.98051 0.53733 0.14399 0.19200
H 	H 	0.94257 0.51413 0.17993 -0.06900
C 	C 	0.05296 0.63724 0.07008 0.07700
H 	H 	0.06627 0.68493 0.05283 -0.03300
C 	C 	0.09023 0.60379 0.04269 -0.21100
H 	H 	0.12907 0.62883 0.00813 0.07900
N 	N 	0.99832 0.60474 0.12055 -0.23900
N 	N 	0.24795 0.39672 0.88481 -0.23500
O 	O 	0.91743 0.59692 0.25457 -0.55500
C 	C 	0.94636 0.80314 0.21103 0.08300
H 	H 	0.98913 0.82797 0.18107 -0.03500
C 	C 	0.92014 0.84401 0.24489 -0.17400
H 	H 	0.94443 0.89557 0.23757 0.07300
C 	C 	0.85782 0.80966 0.28997 0.11000
C 	C 	0.82480 0.73351 0.29721 -0.17500
H 	H 	0.78193 0.70727 0.32657 0.07100
C 	C 	0.85496 0.69708 0.26150 0.09400
H 	H 	0.83223 0.64567 0.26797 -0.05800
C 	C 	0.82716 0.85204 0.32277 -0.08700
H 	H 	0.84893 0.90217 0.30937 0.05800
C 	C 	0.77108 0.82544 0.36985 -0.08500
H 	H 	0.75143 0.77617 0.38567 0.05100
C 	C 	0.73722 0.86632 0.39928 0.12700
C 	C 	0.68109 0.83341 0.45193 -0.17600
H 	H 	0.66643 0.78567 0.47007 0.07700
C 	C 	0.64717 0.87067 0.47733 0.10500
H 	H 	0.60923 0.84747 0.51327 -0.04200
C 	C 	0.71962 0.97058 0.40342 0.15300
H 	H 	0.73293 0.01827 0.38617 -0.05600
C 	C 	0.75689 0.93713 0.37603 -0.18700
H 	H 	0.79573 0.96217 0.34147 0.10300
N 	N 	0.66498 0.93808 0.45389 -0.23800
N 	N 	0.91461 0.73006 0.21815 -0.24100
O 	O 	0.58409 0.93026 0.58791 -0.55200
Mo	Mo	0.79167 0.00000 -0.00000 1.02700
Mo	Mo	0.45833 0.33333 0.33333 1.06300
Mo	Mo	0.12500 0.66667 0.66667 1.06200
Mo	Mo	0.00000 0.79167 -0.00000 1.02700
Mo	Mo	0.66667 0.12500 0.33333 1.06200
Mo	Mo	0.33333 0.45833 0.66667 1.06300
Mo	Mo	0.20833 0.20833 -0.00000 1.03400
Mo	Mo	0.87500 0.54167 0.33333 1.06500
Mo	Mo	0.54167 0.87500 0.66667 1.06500
Ni	Ni	0.71263 0.04596 0.16667 1.08900
Ni	Ni	0.37930 0.37930 0.50000 1.09400
Ni	Ni	0.95404 0.66667 0.16667 1.09900
Ni	Ni	0.62070 0.00000 0.50000 1.08300
Ni	Ni	0.33333 0.28737 0.16667 1.09400
Ni	Ni	0.00000 0.62070 0.50000 1.08300
Ni	Ni	0.04596 0.71263 0.83333 1.09100
Ni	Ni	0.66667 0.95404 0.83333 1.10000
Ni	Ni	0.28737 0.33333 0.83333 1.09500
