data_crystal

_cell_length_a 13.65600
_cell_length_b 16.80700
_cell_length_c 8.23700
_cell_angle_alpha 90.00000
_cell_angle_beta  99.08900
_cell_angle_gamma 90.00000

_symmetry_space_group_name_	'P 1'
_symmetry_space_group_name_H-M	'P 1'

loop_
_symmetry_equiv_pos_as_xyz
  x,y,z

loop_
_atom_site_label
_atom_site_type_symbol
_atom_site_fract_x
_atom_site_fract_y
_atom_site_fract_z
_atom_site_charge
Zn	Zn	0.86331 0.02289 0.87141 1.24100
O 	O 	0.18070 0.42750 0.75210 -0.45700
O 	O 	0.95800 0.10360 0.82160 -0.43600
O 	O 	0.08250 0.02134 0.90610 -0.46300
O 	O 	0.74280 0.06830 0.93710 -0.41100
O 	O 	0.73600 0.12950 0.69690 -0.28400
C 	C 	0.15570 0.29190 0.80350 -0.09300
C 	C 	0.08900 0.23170 0.82150 0.04400
H 	H 	0.02220 0.24360 0.81840 0.05800
C 	C 	0.12140 0.15370 0.84410 -0.10500
C 	C 	0.22200 0.13660 0.85320 0.00300
H 	H 	0.24400 0.08460 0.87280 0.04400
C 	C 	0.28970 0.19600 0.83360 -0.03000
C 	C 	0.25550 0.27420 0.80870 0.00000
H 	H 	0.30000 0.31460 0.79540 0.04800
C 	C 	0.39590 0.17680 0.83560 0.07500
C 	C 	0.45050 0.21500 0.73020 -0.11700
H 	H 	0.42090 0.25490 0.66120 0.07900
C 	C 	0.54850 0.19450 0.72610 0.03900
H 	H 	0.58290 0.21930 0.65130 0.04300
C 	C 	0.59530 0.13790 0.83210 -0.09000
C 	C 	0.54340 0.10210 0.94280 0.03500
H 	H 	0.57520 0.06530 0.01740 0.04000
C 	C 	0.44350 0.12040 0.94450 -0.12000
H 	H 	0.40890 0.09480 0.01820 0.07900
C 	C 	0.12000 0.37670 0.78050 0.37200
C 	C 	0.05020 0.08780 0.86230 0.38600
C 	C 	0.69890 0.11160 0.81900 0.31800
O 	O 	0.03380 0.39130 0.78620 -0.28900
Zn	Zn	0.13669 0.52289 0.62859 1.24100
O 	O 	0.81930 0.92750 0.74790 -0.45700
O 	O 	0.04200 0.60360 0.67840 -0.43300
O 	O 	0.91750 0.52134 0.59390 -0.46500
O 	O 	0.25720 0.56830 0.56290 -0.41100
O 	O 	0.26400 0.62950 0.80310 -0.28500
C 	C 	0.84430 0.79190 0.69650 -0.09300
C 	C 	0.91100 0.73170 0.67850 0.04200
H 	H 	0.97780 0.74360 0.68160 0.05600
C 	C 	0.87860 0.65370 0.65590 -0.10500
C 	C 	0.77800 0.63660 0.64680 0.00200
H 	H 	0.75600 0.58460 0.62720 0.04400
C 	C 	0.71030 0.69600 0.66640 -0.03000
C 	C 	0.74450 0.77420 0.69130 -0.00100
H 	H 	0.70000 0.81460 0.70460 0.04800
C 	C 	0.60410 0.67680 0.66440 0.07400
C 	C 	0.54950 0.71500 0.76980 -0.11800
H 	H 	0.57910 0.75490 0.83880 0.07900
C 	C 	0.45150 0.69450 0.77390 0.03900
H 	H 	0.41710 0.71930 0.84870 0.04300
C 	C 	0.40470 0.63790 0.66790 -0.09000
C 	C 	0.45660 0.60210 0.55720 0.03700
H 	H 	0.42480 0.56530 0.48260 0.03800
C 	C 	0.55650 0.62040 0.55550 -0.12000
H 	H 	0.59110 0.59480 0.48180 0.07800
C 	C 	0.88000 0.87670 0.71950 0.37200
C 	C 	0.94980 0.58780 0.63770 0.38200
C 	C 	0.30110 0.61160 0.68100 0.31800
O 	O 	0.96620 0.89130 0.71380 -0.28900
Zn	Zn	0.13669 0.97711 0.12859 1.24000
O 	O 	0.81930 0.57250 0.24790 -0.45800
O 	O 	0.04200 0.89640 0.17840 -0.43700
O 	O 	0.91750 0.97866 0.09390 -0.46400
O 	O 	0.25720 0.93170 0.06290 -0.41200
O 	O 	0.26400 0.87050 0.30310 -0.28500
C 	C 	0.84430 0.70810 0.19650 -0.09400
C 	C 	0.91100 0.76830 0.17850 0.04300
H 	H 	0.97780 0.75640 0.18160 0.05700
C 	C 	0.87860 0.84630 0.15590 -0.10600
C 	C 	0.77800 0.86340 0.14680 0.00300
H 	H 	0.75600 0.91540 0.12720 0.04400
C 	C 	0.71030 0.80400 0.16640 -0.03000
C 	C 	0.74450 0.72580 0.19130 0.00000
H 	H 	0.70000 0.68540 0.20460 0.04800
C 	C 	0.60410 0.82320 0.16440 0.07500
C 	C 	0.54950 0.78500 0.26980 -0.11700
H 	H 	0.57910 0.74510 0.33880 0.07900
C 	C 	0.45150 0.80550 0.27390 0.03900
H 	H 	0.41710 0.78070 0.34870 0.04300
C 	C 	0.40470 0.86210 0.16790 -0.09000
C 	C 	0.45660 0.89790 0.05720 0.03500
H 	H 	0.42480 0.93470 0.98260 0.04000
C 	C 	0.55650 0.87960 0.05550 -0.12000
H 	H 	0.59110 0.90520 0.98180 0.07900
C 	C 	0.88000 0.62330 0.21950 0.37200
C 	C 	0.94980 0.91220 0.13770 0.38600
C 	C 	0.30110 0.88840 0.18100 0.31800
O 	O 	0.96620 0.60870 0.21380 -0.28900
Zn	Zn	0.86331 0.47711 0.37141 1.24100
O 	O 	0.18070 0.07250 0.25210 -0.45700
O 	O 	0.95800 0.39640 0.32160 -0.43300
O 	O 	0.08250 0.47866 0.40610 -0.46500
O 	O 	0.74280 0.43170 0.43710 -0.41100
O 	O 	0.73600 0.37050 0.19690 -0.28500
C 	C 	0.15570 0.20810 0.30350 -0.09300
C 	C 	0.08900 0.26830 0.32150 0.04200
H 	H 	0.02220 0.25640 0.31840 0.05600
C 	C 	0.12140 0.34630 0.34410 -0.10500
C 	C 	0.22200 0.36340 0.35320 0.00200
H 	H 	0.24400 0.41540 0.37280 0.04400
C 	C 	0.28970 0.30400 0.33360 -0.03000
C 	C 	0.25550 0.22580 0.30870 -0.00100
H 	H 	0.30000 0.18540 0.29540 0.04800
C 	C 	0.39590 0.32320 0.33560 0.07400
C 	C 	0.45050 0.28500 0.23020 -0.11800
H 	H 	0.42090 0.24510 0.16120 0.07900
C 	C 	0.54850 0.30550 0.22610 0.03900
H 	H 	0.58290 0.28070 0.15130 0.04300
C 	C 	0.59530 0.36210 0.33210 -0.09000
C 	C 	0.54340 0.39790 0.44280 0.03700
H 	H 	0.57520 0.43470 0.51740 0.03800
C 	C 	0.44350 0.37960 0.44450 -0.12000
H 	H 	0.40890 0.40520 0.51820 0.07800
C 	C 	0.12000 0.12330 0.28050 0.37200
C 	C 	0.05020 0.41220 0.36230 0.38200
C 	C 	0.69890 0.38840 0.31900 0.31800
O 	O 	0.03380 0.10870 0.28620 -0.28900
