data_crystal

_cell_length_a 13.63630
_cell_length_b 16.85840
_cell_length_c 8.22600
_cell_angle_alpha 90.00000
_cell_angle_beta  99.15900
_cell_angle_gamma 90.00000

_symmetry_space_group_name_	'P 1'
_symmetry_space_group_name_H-M	'P 1'

loop_
_symmetry_equiv_pos_as_xyz
  x,y,z

loop_
_atom_site_label
_atom_site_type_symbol
_atom_site_fract_x
_atom_site_fract_y
_atom_site_fract_z
_atom_site_charge
Zn	Zn	0.36334 0.02255 0.37069 1.24200
O 	O 	0.41806 0.97879 0.59700 -0.44400
O 	O 	0.54350 0.89583 0.67730 -0.42100
O 	O 	0.46150 0.59860 0.64320 -0.10200
O 	O 	0.32057 0.57198 0.74070 -0.41700
O 	O 	0.76629 0.86646 0.81110 -0.26600
O 	O 	0.75757 0.93192 0.57040 -0.40800
C 	C 	0.80250 0.88690 0.68800 0.30200
C 	C 	0.45100 0.91150 0.64080 0.37100
C 	C 	0.38150 0.61640 0.68360 -0.01900
C 	C 	0.90600 0.86120 0.67280 -0.07500
C 	C 	0.95770 0.89840 0.56070 0.02400
H 	H 	0.92550 0.93510 0.48620 0.04200
C 	C 	0.05650 0.88097 0.56010 -0.10600
H 	H 	0.09120 0.90790 0.48860 0.07300
C 	C 	0.10540 0.82269 0.66690 0.06200
C 	C 	0.05180 0.78330 0.77260 -0.10400
H 	H 	0.08190 0.74340 0.84090 0.07500
C 	C 	0.95380 0.80330 0.77680 0.02500
H 	H 	0.91940 0.77750 0.85040 0.04800
C 	C 	0.21190 0.80354 0.66740 -0.01800
C 	C 	0.27950 0.86300 0.64860 -0.00800
H 	H 	0.25740 0.91490 0.63020 0.04700
C 	C 	0.37980 0.84590 0.65690 -0.09300
C 	C 	0.41260 0.76840 0.67960 0.03300
H 	H 	0.47980 0.75690 0.68530 0.06900
C 	C 	0.34590 0.70760 0.69390 -0.07400
C 	C 	0.24620 0.72570 0.68940 -0.01300
H 	H 	0.20150 0.68520 0.70130 0.05200
O 	O 	0.47440 0.62350 0.80330 -0.24400
C 	C 	0.38380 0.63110 0.75660 0.35100
Zn	Zn	0.63666 0.52255 0.12931 1.24100
O 	O 	0.58194 0.47879 0.90300 -0.44500
O 	O 	0.45650 0.39583 0.82270 -0.42200
O 	O 	0.53850 0.09860 0.85680 -0.10300
O 	O 	0.67943 0.07198 0.75930 -0.41700
O 	O 	0.23371 0.36646 0.68890 -0.26700
O 	O 	0.24243 0.43192 0.92960 -0.40800
C 	C 	0.19750 0.38690 0.81200 0.30100
C 	C 	0.54900 0.41150 0.85920 0.37100
C 	C 	0.61850 0.11640 0.81640 -0.02000
C 	C 	0.09400 0.36120 0.82720 -0.07300
C 	C 	0.04230 0.39840 0.93930 0.02000
H 	H 	0.07450 0.43510 0.01380 0.04500
C 	C 	0.94350 0.38097 0.93990 -0.10200
H 	H 	0.90880 0.40790 0.01140 0.07000
C 	C 	0.89460 0.32269 0.83310 0.05900
C 	C 	0.94820 0.28330 0.72740 -0.10100
H 	H 	0.91810 0.24340 0.65910 0.07400
C 	C 	0.04620 0.30330 0.72320 0.02200
H 	H 	0.08060 0.27750 0.64960 0.05000
C 	C 	0.78810 0.30354 0.83260 -0.01600
C 	C 	0.72050 0.36300 0.85140 -0.00900
H 	H 	0.74260 0.41490 0.86980 0.04700
C 	C 	0.62020 0.34590 0.84310 -0.09200
C 	C 	0.58740 0.26840 0.82040 0.03300
H 	H 	0.52020 0.25690 0.81470 0.06900
C 	C 	0.65410 0.20760 0.80610 -0.07400
C 	C 	0.75380 0.22570 0.81060 -0.01400
H 	H 	0.79850 0.18520 0.79870 0.05300
O 	O 	0.52560 0.12350 0.69670 -0.24400
C 	C 	0.61620 0.13110 0.74340 0.35100
Zn	Zn	0.63666 0.97745 0.62931 1.24100
O 	O 	0.58194 0.02121 0.40300 -0.44500
O 	O 	0.45650 0.10417 0.32270 -0.42200
O 	O 	0.53850 0.40140 0.35680 -0.10300
O 	O 	0.67943 0.42802 0.25930 -0.41800
O 	O 	0.23371 0.13354 0.18890 -0.26700
O 	O 	0.24243 0.06808 0.42960 -0.40800
C 	C 	0.19750 0.11310 0.31200 0.30200
C 	C 	0.54900 0.08850 0.35920 0.37100
C 	C 	0.61850 0.38360 0.31640 -0.01900
C 	C 	0.09400 0.13880 0.32720 -0.07500
C 	C 	0.04230 0.10160 0.43930 0.02400
H 	H 	0.07450 0.06490 0.51380 0.04200
C 	C 	0.94350 0.11903 0.43990 -0.10600
H 	H 	0.90880 0.09210 0.51140 0.07300
C 	C 	0.89460 0.17731 0.33310 0.06200
C 	C 	0.94820 0.21670 0.22740 -0.10400
H 	H 	0.91810 0.25660 0.15910 0.07500
C 	C 	0.04620 0.19670 0.22320 0.02500
H 	H 	0.08060 0.22250 0.14960 0.04800
C 	C 	0.78810 0.19646 0.33260 -0.01800
C 	C 	0.72050 0.13700 0.35140 -0.00800
H 	H 	0.74260 0.08510 0.36980 0.04700
C 	C 	0.62020 0.15410 0.34310 -0.09300
C 	C 	0.58740 0.23160 0.32040 0.03300
H 	H 	0.52020 0.24310 0.31470 0.06900
C 	C 	0.65410 0.29240 0.30610 -0.07400
C 	C 	0.75380 0.27430 0.31060 -0.01300
H 	H 	0.79850 0.31480 0.29870 0.05200
O 	O 	0.52560 0.37650 0.19670 -0.24400
C 	C 	0.61620 0.36890 0.24340 0.35100
Zn	Zn	0.36334 0.47745 0.87069 1.24100
O 	O 	0.41806 0.52121 0.09700 -0.44500
O 	O 	0.54350 0.60417 0.17730 -0.42200
O 	O 	0.46150 0.90140 0.14320 -0.10300
O 	O 	0.32057 0.92802 0.24070 -0.41700
O 	O 	0.76629 0.63354 0.31110 -0.26700
O 	O 	0.75757 0.56808 0.07040 -0.40800
C 	C 	0.80250 0.61310 0.18800 0.30100
C 	C 	0.45100 0.58850 0.14080 0.37100
C 	C 	0.38150 0.88360 0.18360 -0.02000
C 	C 	0.90600 0.63880 0.17280 -0.07300
C 	C 	0.95770 0.60160 0.06070 0.02000
H 	H 	0.92550 0.56490 0.98620 0.04500
C 	C 	0.05650 0.61903 0.06010 -0.10200
H 	H 	0.09120 0.59210 0.98860 0.07000
C 	C 	0.10540 0.67731 0.16690 0.05900
C 	C 	0.05180 0.71670 0.27260 -0.10100
H 	H 	0.08190 0.75660 0.34090 0.07400
C 	C 	0.95380 0.69670 0.27680 0.02200
H 	H 	0.91940 0.72250 0.35040 0.05000
C 	C 	0.21190 0.69646 0.16740 -0.01600
C 	C 	0.27950 0.63700 0.14860 -0.00900
H 	H 	0.25740 0.58510 0.13020 0.04700
C 	C 	0.37980 0.65410 0.15690 -0.09200
C 	C 	0.41260 0.73160 0.17960 0.03300
H 	H 	0.47980 0.74310 0.18530 0.06900
C 	C 	0.34590 0.79240 0.19390 -0.07400
C 	C 	0.24620 0.77430 0.18940 -0.01400
H 	H 	0.20150 0.81480 0.20130 0.05300
O 	O 	0.47440 0.87650 0.30330 -0.24400
C 	C 	0.38380 0.86890 0.25660 0.35100
