data_crystal

_cell_length_a 27.38400
_cell_length_b 27.38400
_cell_length_c 9.11400
_cell_angle_alpha 90.00000
_cell_angle_beta  90.00000
_cell_angle_gamma 120.00000

_symmetry_space_group_name_	'P 1'
_symmetry_space_group_name_H-M	'P 1'

loop_
_symmetry_equiv_pos_as_xyz
  x,y,z

loop_
_atom_site_label
_atom_site_type_symbol
_atom_site_fract_x
_atom_site_fract_y
_atom_site_fract_z
_atom_site_charge
Mg	Mg	0.11046 0.12253 0.08540 1.47400
O 	O 	0.19447 0.14681 0.07900 -0.47900
O 	O 	0.19285 0.06620 0.02810 -0.49800
C 	C 	0.21726 0.11679 0.07100 0.45100
C 	C 	0.27708 0.14222 0.11780 -0.15100
C 	C 	0.30527 0.19646 0.17440 0.10600
C 	C 	0.30559 0.11150 0.11040 0.08600
N 	N 	0.28300 0.05650 0.05160 -0.07300
C 	C 	0.07726 0.00506 0.21660 0.62300
H 	H 	0.06560 0.98550 0.30490 -0.17300
O 	O 	0.09599 0.05642 0.22200 -0.56100
O 	O 	0.07236 0.97666 0.10390 -0.70900
N 	N 	0.28200 0.22720 0.19700 -0.08500
Mg	Mg	0.77713 0.45586 0.41873 1.47400
O 	O 	0.86114 0.48014 0.41233 -0.48000
O 	O 	0.85952 0.39953 0.36143 -0.49900
C 	C 	0.88393 0.45012 0.40433 0.45000
C 	C 	0.94375 0.47555 0.45113 -0.15200
C 	C 	0.97194 0.52979 0.50773 0.10500
C 	C 	0.97226 0.44483 0.44373 0.08500
N 	N 	0.94967 0.38983 0.38493 -0.07400
C 	C 	0.74393 0.33839 0.54993 0.61900
H 	H 	0.73227 0.31883 0.63823 -0.17300
O 	O 	0.76266 0.38975 0.55533 -0.56100
O 	O 	0.73903 0.30999 0.43723 -0.70800
N 	N 	0.94867 0.56053 0.53033 -0.08600
Mg	Mg	0.44379 0.78920 0.75207 1.47300
O 	O 	0.52780 0.81348 0.74567 -0.48000
O 	O 	0.52618 0.73287 0.69477 -0.49900
C 	C 	0.55059 0.78346 0.73767 0.45000
C 	C 	0.61041 0.80889 0.78447 -0.15200
C 	C 	0.63860 0.86313 0.84107 0.10500
C 	C 	0.63892 0.77817 0.77707 0.08500
N 	N 	0.61633 0.72317 0.71827 -0.07400
C 	C 	0.41059 0.67173 0.88327 0.61900
H 	H 	0.39893 0.65217 0.97157 -0.17300
O 	O 	0.42932 0.72309 0.88867 -0.56100
O 	O 	0.40569 0.64333 0.77057 -0.70800
N 	N 	0.61533 0.89387 0.86367 -0.08600
Mg	Mg	0.87747 0.98793 0.08540 1.47300
O 	O 	0.85319 0.04766 0.07900 -0.47900
O 	O 	0.93380 0.12665 0.02810 -0.49800
C 	C 	0.88321 0.10047 0.07100 0.45000
C 	C 	0.85778 0.13486 0.11780 -0.15100
C 	C 	0.80354 0.10881 0.17440 0.10500
C 	C 	0.88850 0.19409 0.11040 0.08500
N 	N 	0.94350 0.22650 0.05160 -0.07400
C 	C 	0.99494 0.07220 0.21660 0.62300
H 	H 	0.01450 0.08010 0.30490 -0.17400
O 	O 	0.94358 0.03957 0.22200 -0.56200
O 	O 	0.02334 0.09570 0.10390 -0.71000
N 	N 	0.77280 0.05480 0.19700 -0.08600
Mg	Mg	0.54414 0.32126 0.41873 1.47300
O 	O 	0.51986 0.38099 0.41233 -0.48000
O 	O 	0.60047 0.45998 0.36143 -0.49900
C 	C 	0.54988 0.43380 0.40433 0.45000
C 	C 	0.52445 0.46819 0.45113 -0.15200
C 	C 	0.47021 0.44214 0.50773 0.10500
C 	C 	0.55517 0.52742 0.44373 0.08500
N 	N 	0.61017 0.55983 0.38493 -0.07400
C 	C 	0.66161 0.40553 0.54993 0.61900
H 	H 	0.68117 0.41343 0.63823 -0.17300
O 	O 	0.61025 0.37290 0.55533 -0.56100
O 	O 	0.69001 0.42903 0.43723 -0.70800
N 	N 	0.43947 0.38813 0.53033 -0.08600
Mg	Mg	0.21080 0.65460 0.75207 1.47300
O 	O 	0.18652 0.71433 0.74567 -0.48000
O 	O 	0.26713 0.79332 0.69477 -0.49900
C 	C 	0.21654 0.76714 0.73767 0.45000
C 	C 	0.19111 0.80153 0.78447 -0.15200
C 	C 	0.13687 0.77548 0.84107 0.10500
C 	C 	0.22183 0.86076 0.77707 0.08500
N 	N 	0.27683 0.89317 0.71827 -0.07400
C 	C 	0.32827 0.73887 0.88327 0.61900
H 	H 	0.34783 0.74677 0.97157 -0.17300
O 	O 	0.27691 0.70624 0.88867 -0.56100
O 	O 	0.35667 0.76237 0.77057 -0.70800
N 	N 	0.10613 0.72147 0.86367 -0.08600
Mg	Mg	0.01207 0.88954 0.08540 1.47300
O 	O 	0.95234 0.80553 0.07900 -0.48000
O 	O 	0.87335 0.80715 0.02810 -0.49900
C 	C 	0.89953 0.78274 0.07100 0.45000
C 	C 	0.86514 0.72292 0.11780 -0.15200
C 	C 	0.89119 0.69473 0.17440 0.10500
C 	C 	0.80591 0.69441 0.11040 0.08500
N 	N 	0.77350 0.71700 0.05160 -0.07400
C 	C 	0.92780 0.92274 0.21660 0.61900
H 	H 	0.91990 0.93440 0.30490 -0.17300
O 	O 	0.96043 0.90401 0.22200 -0.56100
O 	O 	0.90430 0.92764 0.10390 -0.70800
N 	N 	0.94520 0.71800 0.19700 -0.08600
Mg	Mg	0.67874 0.22287 0.41873 1.47300
O 	O 	0.61901 0.13886 0.41233 -0.48000
O 	O 	0.54002 0.14048 0.36143 -0.49900
C 	C 	0.56620 0.11607 0.40433 0.45000
C 	C 	0.53181 0.05625 0.45113 -0.15200
C 	C 	0.55786 0.02806 0.50773 0.10500
C 	C 	0.47258 0.02774 0.44373 0.08500
N 	N 	0.44017 0.05033 0.38493 -0.07400
C 	C 	0.59447 0.25607 0.54993 0.61900
H 	H 	0.58657 0.26773 0.63823 -0.17300
O 	O 	0.62710 0.23734 0.55533 -0.56100
O 	O 	0.57097 0.26097 0.43723 -0.70800
N 	N 	0.61187 0.05133 0.53033 -0.08600
Mg	Mg	0.34540 0.55621 0.75207 1.47300
O 	O 	0.28567 0.47220 0.74567 -0.48000
O 	O 	0.20668 0.47382 0.69477 -0.49900
C 	C 	0.23286 0.44941 0.73767 0.45000
C 	C 	0.19847 0.38959 0.78447 -0.15200
C 	C 	0.22452 0.36140 0.84107 0.10500
C 	C 	0.13924 0.36108 0.77707 0.08500
N 	N 	0.10683 0.38367 0.71827 -0.07400
C 	C 	0.26113 0.58941 0.88327 0.61900
H 	H 	0.25323 0.60107 0.97157 -0.17300
O 	O 	0.29376 0.57068 0.88867 -0.56100
O 	O 	0.23763 0.59431 0.77057 -0.70800
N 	N 	0.27853 0.38467 0.86367 -0.08600
Mg	Mg	0.88954 0.87747 0.91460 1.47300
O 	O 	0.80553 0.85319 0.92100 -0.48000
O 	O 	0.80715 0.93380 0.97190 -0.49900
C 	C 	0.78274 0.88321 0.92900 0.45000
C 	C 	0.72292 0.85778 0.88220 -0.15200
C 	C 	0.69473 0.80354 0.82560 0.10500
C 	C 	0.69441 0.88850 0.88960 0.08500
N 	N 	0.71700 0.94350 0.94840 -0.07400
C 	C 	0.92274 0.99494 0.78340 0.62200
H 	H 	0.93440 0.01450 0.69510 -0.17400
O 	O 	0.90401 0.94358 0.77800 -0.56200
O 	O 	0.92764 0.02334 0.89610 -0.71000
N 	N 	0.71800 0.77280 0.80300 -0.08600
Mg	Mg	0.55621 0.21080 0.24793 1.47300
O 	O 	0.47220 0.18652 0.25433 -0.48000
O 	O 	0.47382 0.26713 0.30523 -0.49900
C 	C 	0.44941 0.21654 0.26233 0.45000
C 	C 	0.38959 0.19111 0.21553 -0.15200
C 	C 	0.36140 0.13687 0.15893 0.10500
C 	C 	0.36108 0.22183 0.22293 0.08500
N 	N 	0.38367 0.27683 0.28173 -0.07400
C 	C 	0.58941 0.32827 0.11673 0.61900
H 	H 	0.60107 0.34783 0.02843 -0.17300
O 	O 	0.57068 0.27691 0.11133 -0.56100
O 	O 	0.59431 0.35667 0.22943 -0.70800
N 	N 	0.38467 0.10613 0.13633 -0.08600
Mg	Mg	0.22287 0.54414 0.58127 1.47300
O 	O 	0.13886 0.51986 0.58767 -0.48000
O 	O 	0.14048 0.60047 0.63857 -0.49900
C 	C 	0.11607 0.54988 0.59567 0.45000
C 	C 	0.05625 0.52445 0.54887 -0.15200
C 	C 	0.02806 0.47021 0.49227 0.10500
C 	C 	0.02774 0.55517 0.55627 0.08500
N 	N 	0.05033 0.61017 0.61507 -0.07400
C 	C 	0.25607 0.66161 0.45007 0.61900
H 	H 	0.26773 0.68117 0.36177 -0.17300
O 	O 	0.23734 0.61025 0.44467 -0.56100
O 	O 	0.26097 0.69001 0.56277 -0.70800
N 	N 	0.05133 0.43947 0.46967 -0.08600
Mg	Mg	0.12253 0.01207 0.91460 1.47300
O 	O 	0.14681 0.95234 0.92100 -0.47900
O 	O 	0.06620 0.87335 0.97190 -0.49800
C 	C 	0.11679 0.89953 0.92900 0.45000
C 	C 	0.14222 0.86514 0.88220 -0.15100
C 	C 	0.19646 0.89119 0.82560 0.10500
C 	C 	0.11150 0.80591 0.88960 0.08500
N 	N 	0.05650 0.77350 0.94840 -0.07400
C 	C 	0.00506 0.92780 0.78340 0.62300
H 	H 	0.98550 0.91990 0.69510 -0.17400
O 	O 	0.05642 0.96043 0.77800 -0.56200
O 	O 	0.97666 0.90430 0.89610 -0.71000
N 	N 	0.22720 0.94520 0.80300 -0.08600
Mg	Mg	0.78920 0.34540 0.24793 1.47300
O 	O 	0.81348 0.28567 0.25433 -0.48000
O 	O 	0.73287 0.20668 0.30523 -0.49900
C 	C 	0.78346 0.23286 0.26233 0.45000
C 	C 	0.80889 0.19847 0.21553 -0.15200
C 	C 	0.86313 0.22452 0.15893 0.10500
C 	C 	0.77817 0.13924 0.22293 0.08500
N 	N 	0.72317 0.10683 0.28173 -0.07400
C 	C 	0.67173 0.26113 0.11673 0.61900
H 	H 	0.65217 0.25323 0.02843 -0.17300
O 	O 	0.72309 0.29376 0.11133 -0.56100
O 	O 	0.64333 0.23763 0.22943 -0.70800
N 	N 	0.89387 0.27853 0.13633 -0.08600
Mg	Mg	0.45586 0.67874 0.58127 1.47300
O 	O 	0.48014 0.61901 0.58767 -0.48000
O 	O 	0.39953 0.54002 0.63857 -0.49900
C 	C 	0.45012 0.56620 0.59567 0.45000
C 	C 	0.47555 0.53181 0.54887 -0.15200
C 	C 	0.52979 0.55786 0.49227 0.10500
C 	C 	0.44483 0.47258 0.55627 0.08500
N 	N 	0.38983 0.44017 0.61507 -0.07400
C 	C 	0.33839 0.59447 0.45007 0.61900
H 	H 	0.31883 0.58657 0.36177 -0.17300
O 	O 	0.38975 0.62710 0.44467 -0.56100
O 	O 	0.30999 0.57097 0.56277 -0.70800
N 	N 	0.56053 0.61187 0.46967 -0.08600
Mg	Mg	0.98793 0.11046 0.91460 1.47300
O 	O 	0.04766 0.19447 0.92100 -0.48000
O 	O 	0.12665 0.19285 0.97190 -0.49900
C 	C 	0.10047 0.21726 0.92900 0.45000
C 	C 	0.13486 0.27708 0.88220 -0.15200
C 	C 	0.10881 0.30527 0.82560 0.10500
C 	C 	0.19409 0.30559 0.88960 0.08500
N 	N 	0.22650 0.28300 0.94840 -0.07400
C 	C 	0.07220 0.07726 0.78340 0.61900
H 	H 	0.08010 0.06560 0.69510 -0.17300
O 	O 	0.03957 0.09599 0.77800 -0.56100
O 	O 	0.09570 0.07236 0.89610 -0.70800
N 	N 	0.05480 0.28200 0.80300 -0.08600
Mg	Mg	0.65460 0.44379 0.24793 1.47300
O 	O 	0.71433 0.52780 0.25433 -0.48000
O 	O 	0.79332 0.52618 0.30523 -0.49900
C 	C 	0.76714 0.55059 0.26233 0.45000
C 	C 	0.80153 0.61041 0.21553 -0.15200
C 	C 	0.77548 0.63860 0.15893 0.10500
C 	C 	0.86076 0.63892 0.22293 0.08500
N 	N 	0.89317 0.61633 0.28173 -0.07400
C 	C 	0.73887 0.41059 0.11673 0.61900
H 	H 	0.74677 0.39893 0.02843 -0.17300
O 	O 	0.70624 0.42932 0.11133 -0.56100
O 	O 	0.76237 0.40569 0.22943 -0.70800
N 	N 	0.72147 0.61533 0.13633 -0.08600
Mg	Mg	0.32126 0.77713 0.58127 1.47300
O 	O 	0.38099 0.86114 0.58767 -0.48000
O 	O 	0.45998 0.85952 0.63857 -0.49900
C 	C 	0.43380 0.88393 0.59567 0.45000
C 	C 	0.46819 0.94375 0.54887 -0.15200
C 	C 	0.44214 0.97194 0.49227 0.10500
C 	C 	0.52742 0.97226 0.55627 0.08500
N 	N 	0.55983 0.94967 0.61507 -0.07400
C 	C 	0.40553 0.74393 0.45007 0.61900
H 	H 	0.41343 0.73227 0.36177 -0.17300
O 	O 	0.37290 0.76266 0.44467 -0.56100
O 	O 	0.42903 0.73903 0.56277 -0.70800
N 	N 	0.38813 0.94867 0.46967 -0.08600
