data_crystal

_cell_length_a 10.14470
_cell_length_b 13.85590
_cell_length_c 26.14230
_cell_angle_alpha 90.00000
_cell_angle_beta  90.00000
_cell_angle_gamma 90.00000

_symmetry_space_group_name_	'P 1'
_symmetry_space_group_name_H-M	'P 1'

loop_
_symmetry_equiv_pos_as_xyz
  x,y,z

loop_
_atom_site_label
_atom_site_type_symbol
_atom_site_fract_x
_atom_site_fract_y
_atom_site_fract_z
_atom_site_charge
Pb	Pb	0.70884 0.30186 0.83404 1.22800
O 	O 	0.47240 0.32370 0.83680 -0.37500
O 	O 	0.55670 0.46100 0.86593 -0.30000
O 	O 	0.34720 0.67480 0.72310 -0.39100
O 	O 	0.13140 0.69550 0.72710 -0.35300
O 	O 	0.87310 0.47700 0.85621 -0.30800
O 	O 	0.97900 0.52800 0.92429 -0.21500
O 	O 	0.26110 0.12180 0.04284 -0.25200
O 	O 	0.08810 0.06340 -0.00000 -0.21600
C 	C 	0.21590 0.44520 0.86370 0.06300
C 	C 	0.33590 0.46300 0.83840 -0.08700
C 	C 	0.34140 0.53300 0.80010 0.03200
H 	H 	0.42180 0.54620 0.78450 0.04400
C 	C 	0.22970 0.58360 0.78470 -0.08500
C 	C 	0.11200 0.56530 0.80970 0.03400
H 	H 	0.03590 0.59730 0.79940 0.04600
C 	C 	0.10610 0.49940 0.85010 -0.10400
C 	C 	0.20570 0.36650 0.90270 0.04300
C 	C 	0.29430 0.35680 0.94230 -0.08600
H 	H 	0.36220 0.40130 0.94590 0.08500
C 	C 	0.28320 0.28110 0.97680 0.00100
H 	H 	0.34320 0.27560 0.00350 0.04400
C 	C 	0.18350 0.21390 0.97170 -0.07900
C 	C 	0.09440 0.22190 0.93220 0.00800
H 	H 	0.02820 0.17600 0.92840 0.03100
C 	C 	0.10360 0.29900 0.89790 -0.07300
H 	H 	0.04190 0.30550 0.87180 0.03800
C 	C 	0.46330 0.41110 0.84880 0.29600
C 	C 	0.23630 0.65700 0.74170 0.31000
C 	C 	0.97770 0.49930 0.87940 0.32000
C 	C 	0.17400 0.12650 0.00680 0.28700
Pb	Pb	0.29116 0.80186 0.66596 1.22900
O 	O 	0.52760 0.82370 0.66320 -0.37300
O 	O 	0.44330 0.96100 0.63407 -0.29800
O 	O 	0.65280 0.17480 0.77690 -0.39000
O 	O 	0.86860 0.19550 0.77290 -0.35300
O 	O 	0.12690 0.97700 0.64379 -0.30700
O 	O 	0.02100 0.02800 0.57571 -0.21100
O 	O 	0.73890 0.62180 0.45716 -0.25200
O 	O 	0.91190 0.56340 0.50000 -0.21800
C 	C 	0.78410 0.94520 0.63630 0.05900
C 	C 	0.66410 0.96300 0.66160 -0.08400
C 	C 	0.65860 0.03300 0.69990 0.03000
H 	H 	0.57820 0.04620 0.71550 0.04400
C 	C 	0.77030 0.08360 0.71530 -0.08300
C 	C 	0.88800 0.06530 0.69030 0.03100
H 	H 	0.96410 0.09730 0.70060 0.04700
C 	C 	0.89390 0.99940 0.64990 -0.09900
C 	C 	0.79430 0.86650 0.59730 0.05100
C 	C 	0.70570 0.85680 0.55770 -0.10000
H 	H 	0.63780 0.90130 0.55410 0.09300
C 	C 	0.71680 0.78110 0.52320 0.02500
H 	H 	0.65680 0.77560 0.49650 0.03000
C 	C 	0.81650 0.71390 0.52830 -0.07900
C 	C 	0.90560 0.72190 0.56780 0.01200
H 	H 	0.97180 0.67600 0.57160 0.03200
C 	C 	0.89640 0.79900 0.60210 -0.07800
H 	H 	0.95810 0.80550 0.62820 0.04000
C 	C 	0.53670 0.91110 0.65120 0.29500
C 	C 	0.76370 0.15700 0.75830 0.30900
C 	C 	0.02230 0.99930 0.62060 0.31700
C 	C 	0.82600 0.62650 0.49320 0.28100
Pb	Pb	0.79116 0.69814 0.33404 1.22900
O 	O 	0.02760 0.67630 0.33680 -0.37300
O 	O 	0.94330 0.53900 0.36593 -0.29800
O 	O 	0.15280 0.32520 0.22310 -0.38900
O 	O 	0.36860 0.30450 0.22710 -0.35300
O 	O 	0.62690 0.52300 0.35621 -0.30600
O 	O 	0.52100 0.47200 0.42429 -0.21200
O 	O 	0.23890 0.87820 0.54284 -0.25200
O 	O 	0.41190 0.93660 0.50000 -0.21900
C 	C 	0.28410 0.55480 0.36370 0.06000
C 	C 	0.16410 0.53700 0.33840 -0.08500
C 	C 	0.15860 0.46700 0.30010 0.03100
H 	H 	0.07820 0.45380 0.28450 0.04400
C 	C 	0.27030 0.41640 0.28470 -0.08400
C 	C 	0.38800 0.43470 0.30970 0.03300
H 	H 	0.46410 0.40270 0.29940 0.04700
C 	C 	0.39390 0.50060 0.35010 -0.10100
C 	C 	0.29430 0.63350 0.40270 0.05000
C 	C 	0.20570 0.64320 0.44230 -0.09900
H 	H 	0.13780 0.59870 0.44590 0.09200
C 	C 	0.21680 0.71890 0.47680 0.02500
H 	H 	0.15680 0.72440 0.50350 0.03000
C 	C 	0.31650 0.78610 0.47170 -0.07900
C 	C 	0.40560 0.77810 0.43220 0.01100
H 	H 	0.47180 0.82400 0.42840 0.03200
C 	C 	0.39640 0.70100 0.39790 -0.07800
H 	H 	0.45810 0.69450 0.37180 0.04000
C 	C 	0.03670 0.58890 0.34880 0.29500
C 	C 	0.26370 0.34300 0.24170 0.30900
C 	C 	0.52230 0.50070 0.37940 0.31900
C 	C 	0.32600 0.87350 0.50680 0.28100
Pb	Pb	0.20884 0.19814 0.16596 1.23000
O 	O 	0.97240 0.17630 0.16320 -0.37200
O 	O 	0.05670 0.03900 0.13407 -0.29700
O 	O 	0.84720 0.82520 0.27690 -0.38900
O 	O 	0.63140 0.80450 0.27290 -0.35300
O 	O 	0.37310 0.02300 0.14379 -0.30600
O 	O 	0.47900 0.97200 0.07571 -0.21000
O 	O 	0.76110 0.37820 0.95716 -0.25000
O 	O 	0.58810 0.43660 -0.00000 -0.20500
C 	C 	0.71590 0.05480 0.13630 0.05900
C 	C 	0.83590 0.03700 0.16160 -0.08500
C 	C 	0.84140 0.96700 0.19990 0.03200
H 	H 	0.92180 0.95380 0.21550 0.04400
C 	C 	0.72970 0.91640 0.21530 -0.08400
C 	C 	0.61200 0.93470 0.19030 0.03400
H 	H 	0.53590 0.90270 0.20060 0.04700
C 	C 	0.60610 0.00060 0.14990 -0.10100
C 	C 	0.70570 0.13350 0.09730 0.05400
C 	C 	0.79430 0.14320 0.05770 -0.10900
H 	H 	0.86220 0.09870 0.05410 0.09700
C 	C 	0.78320 0.21890 0.02320 0.04400
H 	H 	0.84320 0.22440 0.99650 0.01700
C 	C 	0.68350 0.28610 0.02830 -0.07300
C 	C 	0.59440 0.27810 0.06780 0.01000
H 	H 	0.52820 0.32400 0.07160 0.03300
C 	C 	0.60360 0.20100 0.10210 -0.07900
H 	H 	0.54190 0.19450 0.12820 0.04100
C 	C 	0.96330 0.08890 0.15120 0.29500
C 	C 	0.73630 0.84300 0.25830 0.31000
C 	C 	0.47770 0.00070 0.12060 0.31800
C 	C 	0.67400 0.37350 0.99320 0.26200
