data_crystal

_cell_length_a 14.87000
_cell_length_b 10.24500
_cell_length_c 18.86800
_cell_angle_alpha 90.00000
_cell_angle_beta  99.50000
_cell_angle_gamma 90.00000

_symmetry_space_group_name_	'P 1'
_symmetry_space_group_name_H-M	'P 1'

loop_
_symmetry_equiv_pos_as_xyz
  x,y,z

loop_
_atom_site_label
_atom_site_type_symbol
_atom_site_fract_x
_atom_site_fract_y
_atom_site_fract_z
_atom_site_charge
V 	V 	0.15930 0.12110 0.58940 1.70300
V 	V 	0.76830 0.05990 0.71620 1.71000
P 	P 	0.28640 0.37960 0.57420 0.47100
P 	P 	0.66060 0.33750 0.67000 0.54100
O 	O 	0.19790 0.30430 0.57570 -0.55700
O 	O 	0.29630 0.42310 0.49900 -0.52500
O 	O 	0.67080 0.43160 0.60840 -0.56200
O 	O 	0.73520 0.23590 0.67370 -0.54200
O 	O 	0.65970 0.40780 0.74070 -0.58000
O 	O 	0.28970 0.50350 0.61950 -0.51300
O 	O 	0.20670 0.15210 0.68950 -0.66500
C 	C 	0.38240 0.27450 0.60850 -0.00100
C 	C 	0.47130 0.35050 0.62470 -0.98000
C 	C 	0.55270 0.25490 0.64690 -0.71400
H 	H 	0.16710 0.16440 0.72430 -0.04500
H 	H 	0.26320 0.11450 0.71240 -0.08500
H 	H 	0.38820 0.20880 0.57320 -0.03200
H 	H 	0.37100 0.23350 0.65190 -0.01800
H 	H 	0.49930 0.37440 0.67250 0.31300
H 	H 	0.51660 0.34970 0.59380 0.32200
H 	H 	0.06470 0.66300 0.64450 0.17600
H 	H 	0.98810 0.76980 0.63630 0.57700
V 	V 	0.65930 0.62110 0.58940 1.70400
V 	V 	0.26830 0.55990 0.71620 1.71200
P 	P 	0.78640 0.87960 0.57420 0.47300
P 	P 	0.16060 0.83750 0.67000 0.54200
O 	O 	0.69790 0.80430 0.57570 -0.55600
O 	O 	0.79630 0.92310 0.49900 -0.52500
O 	O 	0.17080 0.93160 0.60840 -0.56100
O 	O 	0.23520 0.73590 0.67370 -0.54200
O 	O 	0.15970 0.90780 0.74070 -0.57900
O 	O 	0.78970 0.00350 0.61950 -0.51400
O 	O 	0.70670 0.65210 0.68950 -0.66500
C 	C 	0.88240 0.77450 0.60850 -0.00100
C 	C 	0.97130 0.85050 0.62470 -0.98000
C 	C 	0.05270 0.75490 0.64690 -0.71300
H 	H 	0.66710 0.66440 0.72430 -0.04500
H 	H 	0.76320 0.61450 0.71240 -0.08400
H 	H 	0.88820 0.70880 0.57320 -0.03200
H 	H 	0.87100 0.73350 0.65190 -0.01800
H 	H 	0.99930 0.87440 0.67250 0.31300
H 	H 	0.01660 0.84970 0.59380 0.32200
H 	H 	0.56470 0.16300 0.64450 0.17600
H 	H 	0.48810 0.26980 0.63630 0.57800
V 	V 	0.84070 0.12110 0.91060 1.70300
V 	V 	0.23170 0.05990 0.78380 1.71100
P 	P 	0.71360 0.37960 0.92580 0.47100
P 	P 	0.33940 0.33750 0.83000 0.54200
O 	O 	0.80210 0.30430 0.92430 -0.55700
O 	O 	0.70370 0.42310 0.00100 -0.52500
O 	O 	0.32920 0.43160 0.89160 -0.56200
O 	O 	0.26480 0.23590 0.82630 -0.54200
O 	O 	0.34030 0.40780 0.75930 -0.58000
O 	O 	0.71030 0.50350 0.88050 -0.51300
O 	O 	0.79330 0.15210 0.81050 -0.66500
C 	C 	0.61760 0.27450 0.89150 -0.00000
C 	C 	0.52870 0.35050 0.87530 -0.98100
C 	C 	0.44730 0.25490 0.85310 -0.71400
H 	H 	0.83290 0.16440 0.77570 -0.04500
H 	H 	0.73680 0.11450 0.78760 -0.08500
H 	H 	0.61180 0.20880 0.92680 -0.03300
H 	H 	0.62900 0.23350 0.84810 -0.01900
H 	H 	0.50070 0.37440 0.82750 0.31300
H 	H 	0.48340 0.34970 0.90620 0.32100
H 	H 	0.93530 0.66300 0.85550 0.17600
H 	H 	0.01190 0.76980 0.86370 0.57500
V 	V 	0.34070 0.62110 0.91060 1.70400
V 	V 	0.73170 0.55990 0.78380 1.71200
P 	P 	0.21360 0.87960 0.92580 0.47900
P 	P 	0.83940 0.83750 0.83000 0.54200
O 	O 	0.30210 0.80430 0.92430 -0.55600
O 	O 	0.20370 0.92310 0.00100 -0.53000
O 	O 	0.82920 0.93160 0.89160 -0.56000
O 	O 	0.76480 0.73590 0.82630 -0.54200
O 	O 	0.84030 0.90780 0.75930 -0.57900
O 	O 	0.21030 0.00350 0.88050 -0.51700
O 	O 	0.29330 0.65210 0.81050 -0.66500
C 	C 	0.11760 0.77450 0.89150 -0.00600
C 	C 	0.02870 0.85050 0.87530 -0.97000
C 	C 	0.94730 0.75490 0.85310 -0.71200
H 	H 	0.33290 0.66440 0.77570 -0.04500
H 	H 	0.23680 0.61450 0.78760 -0.08400
H 	H 	0.11180 0.70880 0.92680 -0.03000
H 	H 	0.12900 0.73350 0.84810 -0.01600
H 	H 	0.00070 0.87440 0.82750 0.31000
H 	H 	0.98340 0.84970 0.90620 0.31900
H 	H 	0.43530 0.16300 0.85550 0.17600
H 	H 	0.51190 0.26980 0.86370 0.57800
V 	V 	0.84070 0.87890 0.41060 1.70400
V 	V 	0.23170 0.94010 0.28380 1.71100
P 	P 	0.71360 0.62040 0.42580 0.47200
P 	P 	0.33940 0.66250 0.33000 0.54200
O 	O 	0.80210 0.69570 0.42430 -0.55700
O 	O 	0.70370 0.57690 0.50100 -0.52500
O 	O 	0.32920 0.56840 0.39160 -0.56200
O 	O 	0.26480 0.76410 0.32630 -0.54200
O 	O 	0.34030 0.59220 0.25930 -0.58000
O 	O 	0.71030 0.49650 0.38050 -0.51300
O 	O 	0.79330 0.84790 0.31050 -0.66500
C 	C 	0.61760 0.72550 0.39150 -0.00100
C 	C 	0.52870 0.64950 0.37530 -0.98000
C 	C 	0.44730 0.74510 0.35310 -0.71400
H 	H 	0.83290 0.83560 0.27570 -0.04500
H 	H 	0.73680 0.88550 0.28760 -0.08500
H 	H 	0.61180 0.79120 0.42680 -0.03200
H 	H 	0.62900 0.76650 0.34810 -0.01800
H 	H 	0.50070 0.62560 0.32750 0.31300
H 	H 	0.48340 0.65030 0.40620 0.32200
H 	H 	0.93530 0.33700 0.35550 0.17600
H 	H 	0.01190 0.23020 0.36370 0.57700
V 	V 	0.34070 0.37890 0.41060 1.70400
V 	V 	0.73170 0.44010 0.28380 1.71200
P 	P 	0.21360 0.12040 0.42580 0.47300
P 	P 	0.83940 0.16250 0.33000 0.54200
O 	O 	0.30210 0.19570 0.42430 -0.55600
O 	O 	0.20370 0.07690 0.50100 -0.52500
O 	O 	0.82920 0.06840 0.39160 -0.56100
O 	O 	0.76480 0.26410 0.32630 -0.54200
O 	O 	0.84030 0.09220 0.25930 -0.57900
O 	O 	0.21030 0.99650 0.38050 -0.51400
O 	O 	0.29330 0.34790 0.31050 -0.66500
C 	C 	0.11760 0.22550 0.39150 -0.00100
C 	C 	0.02870 0.14950 0.37530 -0.98000
C 	C 	0.94730 0.24510 0.35310 -0.71300
H 	H 	0.33290 0.33560 0.27570 -0.04500
H 	H 	0.23680 0.38550 0.28760 -0.08400
H 	H 	0.11180 0.29120 0.42680 -0.03200
H 	H 	0.12900 0.26650 0.34810 -0.01800
H 	H 	0.00070 0.12560 0.32750 0.31300
H 	H 	0.98340 0.15030 0.40620 0.32200
H 	H 	0.43530 0.83700 0.35550 0.17600
H 	H 	0.51190 0.73020 0.36370 0.57800
V 	V 	0.15930 0.87890 0.08940 1.70300
V 	V 	0.76830 0.94010 0.21620 1.71100
P 	P 	0.28640 0.62040 0.07420 0.47100
P 	P 	0.66060 0.66250 0.17000 0.54200
O 	O 	0.19790 0.69570 0.07570 -0.55700
O 	O 	0.29630 0.57690 0.99900 -0.52500
O 	O 	0.67080 0.56840 0.10840 -0.56200
O 	O 	0.73520 0.76410 0.17370 -0.54200
O 	O 	0.65970 0.59220 0.24070 -0.58000
O 	O 	0.28970 0.49650 0.11950 -0.51300
O 	O 	0.20670 0.84790 0.18950 -0.66500
C 	C 	0.38240 0.72550 0.10850 -0.00000
C 	C 	0.47130 0.64950 0.12470 -0.98100
C 	C 	0.55270 0.74510 0.14690 -0.71400
H 	H 	0.16710 0.83560 0.22430 -0.04500
H 	H 	0.26320 0.88550 0.21240 -0.08500
H 	H 	0.38820 0.79120 0.07320 -0.03300
H 	H 	0.37100 0.76650 0.15190 -0.01900
H 	H 	0.49930 0.62560 0.17250 0.31300
H 	H 	0.51660 0.65030 0.09380 0.32100
H 	H 	0.06470 0.33700 0.14450 0.17600
H 	H 	0.98810 0.23020 0.13630 0.57500
V 	V 	0.65930 0.37890 0.08940 1.70400
V 	V 	0.26830 0.44010 0.21620 1.71200
P 	P 	0.78640 0.12040 0.07420 0.47900
P 	P 	0.16060 0.16250 0.17000 0.54200
O 	O 	0.69790 0.19570 0.07570 -0.55600
O 	O 	0.79630 0.07690 0.99900 -0.53000
O 	O 	0.17080 0.06840 0.10840 -0.56000
O 	O 	0.23520 0.26410 0.17370 -0.54200
O 	O 	0.15970 0.09220 0.24070 -0.57900
O 	O 	0.78970 0.99650 0.11950 -0.51700
O 	O 	0.70670 0.34790 0.18950 -0.66500
C 	C 	0.88240 0.22550 0.10850 -0.00600
C 	C 	0.97130 0.14950 0.12470 -0.97000
C 	C 	0.05270 0.24510 0.14690 -0.71200
H 	H 	0.66710 0.33560 0.22430 -0.04500
H 	H 	0.76320 0.38550 0.21240 -0.08400
H 	H 	0.88820 0.29120 0.07320 -0.03000
H 	H 	0.87100 0.26650 0.15190 -0.01600
H 	H 	0.99930 0.12560 0.17250 0.31000
H 	H 	0.01660 0.15030 0.09380 0.31900
H 	H 	0.56470 0.83700 0.14450 0.17600
H 	H 	0.48810 0.73020 0.13630 0.57800
