data_crystal

_cell_length_a 8.16000
_cell_length_b 10.71500
_cell_length_c 22.91200
_cell_angle_alpha 90.00000
_cell_angle_beta  90.00000
_cell_angle_gamma 102.58300

_symmetry_space_group_name_	'P 1'
_symmetry_space_group_name_H-M	'P 1'

loop_
_symmetry_equiv_pos_as_xyz
  x,y,z

loop_
_atom_site_label
_atom_site_type_symbol
_atom_site_fract_x
_atom_site_fract_y
_atom_site_fract_z
_atom_site_charge
Na	Na	0.54230 0.51610 0.57274 0.58600
Na	Na	0.45770 0.48390 0.07274 0.58600
Na	Na	0.45770 0.48390 0.42726 0.58600
Na	Na	0.54230 0.51610 0.92726 0.58600
Mo	Mo	0.87824 0.76122 0.67081 1.16300
Mo	Mo	0.15415 0.99520 0.59975 1.07000
Mo	Mo	0.42651 0.24834 0.67650 1.15400
Mo	Mo	0.12176 0.23878 0.17081 1.16300
Mo	Mo	0.84585 0.00480 0.09975 1.07000
Mo	Mo	0.57349 0.75166 0.17650 1.15500
Mo	Mo	0.12176 0.23878 0.32919 1.16400
Mo	Mo	0.84585 0.00480 0.40025 1.07100
Mo	Mo	0.57349 0.75166 0.32350 1.15500
Mo	Mo	0.87824 0.76122 0.82919 1.16400
Mo	Mo	0.15415 0.99520 0.90025 1.07000
Mo	Mo	0.42651 0.24834 0.82350 1.15500
P 	P 	0.26040 0.69941 0.63052 0.43700
P 	P 	0.73960 0.30059 0.13052 0.43700
P 	P 	0.73960 0.30059 0.36948 0.43700
P 	P 	0.26040 0.69941 0.86948 0.43700
P 	P 	0.21050 0.96920 0.75000 0.46300
P 	P 	0.78950 0.03080 0.25000 0.46300
H 	H 	0.37670 0.59220 0.70300 0.07600
H 	H 	0.49880 0.72330 0.68940 0.05600
H 	H 	0.46880 0.90670 0.78520 0.06700
H 	H 	0.62330 0.40780 0.20300 0.07600
H 	H 	0.50120 0.27670 0.18940 0.05600
H 	H 	0.53120 0.09330 0.28520 0.06800
H 	H 	0.62330 0.40780 0.29700 0.07600
H 	H 	0.50120 0.27670 0.31060 0.05600
H 	H 	0.53120 0.09330 0.21480 0.06700
H 	H 	0.37670 0.59220 0.79700 0.07600
H 	H 	0.49880 0.72330 0.81060 0.05600
H 	H 	0.46880 0.90670 0.71480 0.06800
C 	C 	0.38220 0.68230 0.69620 -0.18900
C 	C 	0.61780 0.31770 0.19620 -0.18900
C 	C 	0.61780 0.31770 0.30380 -0.18900
C 	C 	0.38220 0.68230 0.80380 -0.18900
C 	C 	0.37990 0.88520 0.75000 -0.14600
C 	C 	0.71070 0.14260 0.75000 0.32300
C 	C 	0.89190 0.13740 0.75000 -0.16000
C 	C 	0.62010 0.11480 0.25000 -0.14600
C 	C 	0.28930 0.85740 0.25000 0.32300
C 	C 	0.10810 0.86260 0.25000 -0.16000
N 	N 	0.32160 0.73930 0.75000 -0.04200
N 	N 	0.67840 0.26070 0.25000 -0.04200
O 	O 	0.73920 0.63210 0.64410 -0.44100
O 	O 	0.96860 0.84650 0.59920 -0.51500
O 	O 	0.10700 0.92900 0.69510 -0.43900
O 	O 	0.08130 0.66270 0.65410 -0.31500
O 	O 	0.35650 0.09450 0.63310 -0.51300
O 	O 	0.30350 0.83690 0.60870 -0.34300
O 	O 	0.57190 0.33820 0.63050 -0.43100
O 	O 	0.63730 0.14790 0.70120 -0.33700
O 	O 	0.30230 0.60320 0.58810 -0.31500
O 	O 	0.39830 0.34550 0.50860 -0.29700
O 	O 	0.26080 0.36790 0.14410 -0.44100
O 	O 	0.03140 0.15350 0.09920 -0.51600
O 	O 	0.89300 0.07100 0.19510 -0.44000
O 	O 	0.91870 0.33730 0.15410 -0.31500
O 	O 	0.64350 0.90550 0.13310 -0.51200
O 	O 	0.69650 0.16310 0.10870 -0.34300
O 	O 	0.42810 0.66180 0.13050 -0.43100
O 	O 	0.36270 0.85210 0.20120 -0.33700
O 	O 	0.69770 0.39680 0.08810 -0.31500
O 	O 	0.60170 0.65450 0.00860 -0.29600
O 	O 	0.26080 0.36790 0.35590 -0.44100
O 	O 	0.03140 0.15350 0.40080 -0.51500
O 	O 	0.89300 0.07100 0.30490 -0.43900
O 	O 	0.91870 0.33730 0.34590 -0.31500
O 	O 	0.64350 0.90550 0.36690 -0.51300
O 	O 	0.69650 0.16310 0.39130 -0.34300
O 	O 	0.42810 0.66180 0.36950 -0.43100
O 	O 	0.36270 0.85210 0.29880 -0.33700
O 	O 	0.69770 0.39680 0.41190 -0.31500
O 	O 	0.60170 0.65450 0.49140 -0.29700
O 	O 	0.73920 0.63210 0.85590 -0.44100
O 	O 	0.96860 0.84650 0.90080 -0.51600
O 	O 	0.10700 0.92900 0.80490 -0.44000
O 	O 	0.08130 0.66270 0.84590 -0.31500
O 	O 	0.35650 0.09450 0.86690 -0.51200
O 	O 	0.30350 0.83690 0.89130 -0.34300
O 	O 	0.57190 0.33820 0.86950 -0.43100
O 	O 	0.63730 0.14790 0.79880 -0.33700
O 	O 	0.30230 0.60320 0.91190 -0.31500
O 	O 	0.39830 0.34550 0.99140 -0.29600
O 	O 	0.91640 0.71160 0.75000 -0.46600
O 	O 	0.50050 0.33070 0.75000 -0.48300
O 	O 	0.29420 0.11240 0.75000 -0.44100
O 	O 	0.08360 0.28840 0.25000 -0.46600
O 	O 	0.49950 0.66930 0.25000 -0.48300
O 	O 	0.70580 0.88760 0.25000 -0.44100
