data_crystal

_cell_length_a 9.69200
_cell_length_b 9.73600
_cell_length_c 7.91600
_cell_angle_alpha 90.00000
_cell_angle_beta  120.92000
_cell_angle_gamma 90.00000

_symmetry_space_group_name_	'P 1'
_symmetry_space_group_name_H-M	'P 1'

loop_
_symmetry_equiv_pos_as_xyz
  x,y,z

loop_
_atom_site_label
_atom_site_type_symbol
_atom_site_fract_x
_atom_site_fract_y
_atom_site_fract_z
_atom_site_charge
N 	N 	0.14940 0.14950 0.00380 -0.29900
C 	C 	0.29760 0.17050 0.15750 0.03600
H 	H 	0.33420 0.11680 0.26970 -0.04200
C 	C 	0.10300 0.23040 0.84630 0.10800
H 	H 	0.00060 0.21910 0.73670 -0.06100
N 	N 	0.64940 0.64950 0.00380 -0.27600
C 	C 	0.79760 0.67050 0.15750 0.05300
H 	H 	0.83420 0.61680 0.26970 -0.00500
C 	C 	0.60300 0.73040 0.84630 0.12500
H 	H 	0.50060 0.71910 0.73670 -0.03000
N 	N 	0.85060 0.14950 0.99620 -0.13100
C 	C 	0.70240 0.17050 0.84250 -0.03800
H 	H 	0.66580 0.11680 0.73030 0.00300
C 	C 	0.89700 0.23040 0.15370 -0.11200
H 	H 	0.99940 0.21910 0.26330 0.04800
N 	N 	0.35060 0.64950 0.99620 -0.13700
C 	C 	0.20240 0.67050 0.84250 -0.03500
H 	H 	0.16580 0.61680 0.73030 0.00800
C 	C 	0.39700 0.73040 0.15370 -0.11000
H 	H 	0.49940 0.71910 0.26330 0.03900
N 	N 	0.85060 0.85050 0.99620 -0.10100
C 	C 	0.70240 0.82950 0.84250 -0.03000
H 	H 	0.66580 0.88320 0.73030 0.04800
C 	C 	0.89700 0.76960 0.15370 -0.10200
H 	H 	0.99940 0.78090 0.26330 0.06600
N 	N 	0.35060 0.35050 0.99620 -0.13600
C 	C 	0.20240 0.32950 0.84250 -0.04900
H 	H 	0.16580 0.38320 0.73030 0.00900
C 	C 	0.39700 0.26960 0.15370 -0.13000
H 	H 	0.49940 0.28090 0.26330 0.03300
N 	N 	0.14940 0.85050 0.00380 -0.26200
C 	C 	0.29760 0.82950 0.15750 0.04300
H 	H 	0.33420 0.88320 0.26970 0.00600
C 	C 	0.10300 0.76960 0.84630 0.11100
H 	H 	0.00060 0.78090 0.73670 -0.03900
N 	N 	0.64940 0.35050 0.00380 -0.27700
C 	C 	0.79760 0.32950 0.15750 0.04300
H 	H 	0.83420 0.38320 0.26970 -0.00600
C 	C 	0.60300 0.26960 0.84630 0.11100
H 	H 	0.50060 0.28090 0.73670 -0.03800
Cu	Cu	-0.00000 0.00000 -0.00000 0.74500
Cu	Cu	0.50000 0.50000 -0.00000 0.81100
