data_crystal

_cell_length_a 20.75000
_cell_length_b 11.66000
_cell_length_c 20.04500
_cell_angle_alpha 90.00000
_cell_angle_beta  105.05700
_cell_angle_gamma 90.00000

_symmetry_space_group_name_	'P 1'
_symmetry_space_group_name_H-M	'P 1'

loop_
_symmetry_equiv_pos_as_xyz
  x,y,z

loop_
_atom_site_label
_atom_site_type_symbol
_atom_site_fract_x
_atom_site_fract_y
_atom_site_fract_z
_atom_site_charge
Cd	Cd	0.25166 0.35573 0.17931 1.11900
N 	N 	0.27047 0.50740 0.11043 -0.26800
C 	C 	0.24930 0.49690 0.04200 0.06800
H 	H 	0.23970 0.42380 0.02350 -0.04800
C 	C 	0.24070 0.58880 0.99710 -0.14500
H 	H 	0.22570 0.57710 0.94970 0.05500
C 	C 	0.25470 0.69860 0.02330 0.04500
C 	C 	0.27770 0.70910 0.09430 -0.15600
H 	H 	0.28850 0.78090 0.11430 0.04600
C 	C 	0.28450 0.61300 0.13510 0.07700
H 	H 	0.29970 0.62230 0.18260 -0.07700
N 	N 	0.84820 0.76470 0.14650 -0.25600
N 	N 	0.14870 0.46520 0.16350 -0.27200
C 	C 	0.90660 0.82040 0.16050 0.05500
H 	H 	0.90690 0.89780 0.17190 -0.03900
C 	C 	0.96560 0.77020 0.15910 -0.13200
H 	H 	0.00460 0.81350 0.16960 0.05100
C 	C 	0.96790 0.65530 0.14230 0.03600
C 	C 	0.90670 0.59810 0.12400 -0.13800
H 	H 	0.90450 0.52190 0.10980 0.06300
C 	C 	0.84950 0.65540 0.12710 0.06100
H 	H 	0.80940 0.61550 0.11490 -0.04800
C 	C 	0.03110 0.59280 0.14670 0.06700
C 	C 	0.08940 0.62280 0.19370 -0.17100
H 	H 	0.09070 0.68810 0.22070 0.06000
C 	C 	0.14590 0.55780 0.20140 0.08900
H 	H 	0.18420 0.57950 0.23470 -0.08700
C 	C 	0.09350 0.43920 0.11530 0.08200
H 	H 	0.09470 0.37700 0.08650 -0.05100
C 	C 	0.03500 0.49870 0.10550 -0.16400
H 	H 	0.99770 0.47610 0.07110 0.07400
N 	N 	0.65180 0.73530 0.85350 -0.25600
N 	N 	0.35130 0.03480 0.83650 -0.27300
C 	C 	0.59340 0.67960 0.83950 0.05500
H 	H 	0.59310 0.60220 0.82810 -0.03900
C 	C 	0.53440 0.72980 0.84090 -0.13100
H 	H 	0.49540 0.68650 0.83040 0.05100
C 	C 	0.53210 0.84470 0.85770 0.03500
C 	C 	0.59330 0.90190 0.87600 -0.13700
H 	H 	0.59550 0.97810 0.89020 0.06300
C 	C 	0.65050 0.84460 0.87290 0.06100
H 	H 	0.69060 0.88450 0.88510 -0.04800
C 	C 	0.46890 0.90720 0.85330 0.07000
C 	C 	0.41060 0.87720 0.80630 -0.17300
H 	H 	0.40930 0.81190 0.77930 0.06100
C 	C 	0.35410 0.94220 0.79860 0.09100
H 	H 	0.31580 0.92050 0.76530 -0.08800
C 	C 	0.40650 0.06080 0.88470 0.08400
H 	H 	0.40530 0.12300 0.91350 -0.05100
C 	C 	0.46500 0.00130 0.89450 -0.16700
H 	H 	0.50230 0.02390 0.92890 0.07500
Cd	Cd	0.24834 0.14427 0.82069 1.11900
N 	N 	0.22953 0.99260 0.88957 -0.26800
C 	C 	0.25070 0.00310 0.95800 0.06800
H 	H 	0.26030 0.07620 0.97650 -0.04800
C 	C 	0.25930 0.91120 0.00290 -0.14800
H 	H 	0.27430 0.92290 0.05030 0.05600
C 	C 	0.24530 0.80140 0.97670 0.05000
C 	C 	0.22230 0.79090 0.90570 -0.15800
H 	H 	0.21150 0.71910 0.88570 0.04700
C 	C 	0.21550 0.88700 0.86490 0.07900
H 	H 	0.20030 0.87770 0.81740 -0.07700
N 	N 	0.65180 0.26470 0.35350 -0.25600
N 	N 	0.35130 0.96520 0.33650 -0.27300
C 	C 	0.59340 0.32040 0.33950 0.05500
H 	H 	0.59310 0.39780 0.32810 -0.03900
C 	C 	0.53440 0.27020 0.34090 -0.13200
H 	H 	0.49540 0.31350 0.33040 0.05100
C 	C 	0.53210 0.15530 0.35770 0.03500
C 	C 	0.59330 0.09810 0.37600 -0.13700
H 	H 	0.59550 0.02190 0.39020 0.06300
C 	C 	0.65050 0.15540 0.37290 0.06100
H 	H 	0.69060 0.11550 0.38510 -0.04800
C 	C 	0.46890 0.09280 0.35330 0.06800
C 	C 	0.41060 0.12280 0.30630 -0.17200
H 	H 	0.40930 0.18810 0.27930 0.06100
C 	C 	0.35410 0.05780 0.29860 0.09000
H 	H 	0.31580 0.07950 0.26530 -0.08700
C 	C 	0.40650 0.93920 0.38470 0.08300
H 	H 	0.40530 0.87700 0.41350 -0.05100
C 	C 	0.46500 0.99870 0.39450 -0.16500
H 	H 	0.50230 0.97610 0.42890 0.07500
Cd	Cd	0.24834 0.85573 0.32069 1.11900
N 	N 	0.22953 0.00740 0.38957 -0.26800
C 	C 	0.25070 0.99690 0.45800 0.06900
H 	H 	0.26030 0.92380 0.47650 -0.04800
C 	C 	0.25930 0.08880 0.50290 -0.14600
H 	H 	0.27430 0.07710 0.55030 0.05600
C 	C 	0.24530 0.19860 0.47670 0.04700
C 	C 	0.22230 0.20910 0.40570 -0.15700
H 	H 	0.21150 0.28090 0.38570 0.04600
C 	C 	0.21550 0.11300 0.36490 0.07800
H 	H 	0.20030 0.12230 0.31740 -0.07700
Cd	Cd	0.25166 0.64427 0.67931 1.11900
N 	N 	0.27047 0.49260 0.61043 -0.26900
C 	C 	0.24930 0.50310 0.54200 0.06900
H 	H 	0.23970 0.57620 0.52350 -0.04800
C 	C 	0.24070 0.41120 0.49710 -0.14600
H 	H 	0.22570 0.42290 0.44970 0.05600
C 	C 	0.25470 0.30140 0.52330 0.04700
C 	C 	0.27770 0.29090 0.59430 -0.15700
H 	H 	0.28850 0.21910 0.61430 0.04600
C 	C 	0.28450 0.38700 0.63510 0.07800
H 	H 	0.29970 0.37770 0.68260 -0.07700
N 	N 	0.84820 0.23530 0.64650 -0.25600
N 	N 	0.14870 0.53480 0.66350 -0.27200
C 	C 	0.90660 0.17960 0.66050 0.05500
H 	H 	0.90690 0.10220 0.67190 -0.03900
C 	C 	0.96560 0.22980 0.65910 -0.13200
H 	H 	0.00460 0.18650 0.66960 0.05100
C 	C 	0.96790 0.34470 0.64230 0.03600
C 	C 	0.90670 0.40190 0.62400 -0.13700
H 	H 	0.90450 0.47810 0.60980 0.06300
C 	C 	0.84950 0.34460 0.62710 0.06100
H 	H 	0.80940 0.38450 0.61490 -0.04800
C 	C 	0.03110 0.40720 0.64670 0.06700
C 	C 	0.08940 0.37720 0.69370 -0.17100
H 	H 	0.09070 0.31190 0.72070 0.06000
C 	C 	0.14590 0.44220 0.70140 0.08900
H 	H 	0.18420 0.42050 0.73470 -0.08700
C 	C 	0.09350 0.56080 0.61530 0.08300
H 	H 	0.09470 0.62300 0.58650 -0.05100
C 	C 	0.03500 0.50130 0.60550 -0.16400
H 	H 	0.99770 0.52390 0.57110 0.07400
N 	N 	0.34820 0.26470 0.14650 -0.25600
N 	N 	0.64870 0.96520 0.16350 -0.27300
C 	C 	0.40660 0.32040 0.16050 0.05500
H 	H 	0.40690 0.39780 0.17190 -0.03900
C 	C 	0.46560 0.27020 0.15910 -0.13100
H 	H 	0.50460 0.31350 0.16960 0.05100
C 	C 	0.46790 0.15530 0.14230 0.03500
C 	C 	0.40670 0.09810 0.12400 -0.13700
H 	H 	0.40450 0.02190 0.10980 0.06300
C 	C 	0.34950 0.15540 0.12710 0.06100
H 	H 	0.30940 0.11550 0.11490 -0.04800
C 	C 	0.53110 0.09280 0.14670 0.07000
C 	C 	0.58940 0.12280 0.19370 -0.17300
H 	H 	0.59070 0.18810 0.22070 0.06100
C 	C 	0.64590 0.05780 0.20140 0.09100
H 	H 	0.68420 0.07950 0.23470 -0.08800
C 	C 	0.59350 0.93920 0.11530 0.08400
H 	H 	0.59470 0.87700 0.08650 -0.05100
C 	C 	0.53500 0.99870 0.10550 -0.16700
H 	H 	0.49770 0.97610 0.07110 0.07500
Cd	Cd	0.75166 0.85573 0.17931 1.11900
N 	N 	0.77047 0.00740 0.11043 -0.26800
C 	C 	0.74930 0.99690 0.04200 0.06800
H 	H 	0.73970 0.92380 0.02350 -0.04800
C 	C 	0.74070 0.08880 0.99710 -0.14800
H 	H 	0.72570 0.07710 0.94970 0.05600
C 	C 	0.75470 0.19860 0.02330 0.05000
C 	C 	0.77770 0.20910 0.09430 -0.15800
H 	H 	0.78850 0.28090 0.11430 0.04700
C 	C 	0.78450 0.11300 0.13510 0.07900
H 	H 	0.79970 0.12230 0.18260 -0.07700
Cd	Cd	0.74834 0.64427 0.82069 1.11900
N 	N 	0.72953 0.49260 0.88957 -0.26800
C 	C 	0.75070 0.50310 0.95800 0.06800
H 	H 	0.76030 0.57620 0.97650 -0.04800
C 	C 	0.75930 0.41120 0.00290 -0.14500
H 	H 	0.77430 0.42290 0.05030 0.05500
C 	C 	0.74530 0.30140 0.97670 0.04500
C 	C 	0.72230 0.29090 0.90570 -0.15600
H 	H 	0.71150 0.21910 0.88570 0.04600
C 	C 	0.71550 0.38700 0.86490 0.07700
H 	H 	0.70030 0.37770 0.81740 -0.07700
N 	N 	0.15180 0.23530 0.85350 -0.25600
N 	N 	0.85130 0.53480 0.83650 -0.27200
C 	C 	0.09340 0.17960 0.83950 0.05500
H 	H 	0.09310 0.10220 0.82810 -0.03900
C 	C 	0.03440 0.22980 0.84090 -0.13200
H 	H 	0.99540 0.18650 0.83040 0.05100
C 	C 	0.03210 0.34470 0.85770 0.03600
C 	C 	0.09330 0.40190 0.87600 -0.13800
H 	H 	0.09550 0.47810 0.89020 0.06300
C 	C 	0.15050 0.34460 0.87290 0.06100
H 	H 	0.19060 0.38450 0.88510 -0.04800
C 	C 	0.96890 0.40720 0.85330 0.06700
C 	C 	0.91060 0.37720 0.80630 -0.17100
H 	H 	0.90930 0.31190 0.77930 0.06000
C 	C 	0.85410 0.44220 0.79860 0.08900
H 	H 	0.81580 0.42050 0.76530 -0.08700
C 	C 	0.90650 0.56080 0.88470 0.08200
H 	H 	0.90530 0.62300 0.91350 -0.05100
C 	C 	0.96500 0.50130 0.89450 -0.16400
H 	H 	0.00230 0.52390 0.92890 0.07400
Cd	Cd	0.74834 0.35573 0.32069 1.11900
N 	N 	0.72953 0.50740 0.38957 -0.26900
C 	C 	0.75070 0.49690 0.45800 0.06900
H 	H 	0.76030 0.42380 0.47650 -0.04800
C 	C 	0.75930 0.58880 0.50290 -0.14600
H 	H 	0.77430 0.57710 0.55030 0.05600
C 	C 	0.74530 0.69860 0.47670 0.04700
C 	C 	0.72230 0.70910 0.40570 -0.15700
H 	H 	0.71150 0.78090 0.38570 0.04600
C 	C 	0.71550 0.61300 0.36490 0.07800
H 	H 	0.70030 0.62230 0.31740 -0.07700
N 	N 	0.15180 0.76470 0.35350 -0.25600
N 	N 	0.85130 0.46520 0.33650 -0.27200
C 	C 	0.09340 0.82040 0.33950 0.05500
H 	H 	0.09310 0.89780 0.32810 -0.03900
C 	C 	0.03440 0.77020 0.34090 -0.13200
H 	H 	0.99540 0.81350 0.33040 0.05100
C 	C 	0.03210 0.65530 0.35770 0.03600
C 	C 	0.09330 0.59810 0.37600 -0.13700
H 	H 	0.09550 0.52190 0.39020 0.06300
C 	C 	0.15050 0.65540 0.37290 0.06100
H 	H 	0.19060 0.61550 0.38510 -0.04800
C 	C 	0.96890 0.59280 0.35330 0.06700
C 	C 	0.91060 0.62280 0.30630 -0.17100
H 	H 	0.90930 0.68810 0.27930 0.06000
C 	C 	0.85410 0.55780 0.29860 0.08900
H 	H 	0.81580 0.57950 0.26530 -0.08700
C 	C 	0.90650 0.43920 0.38470 0.08300
H 	H 	0.90530 0.37700 0.41350 -0.05100
C 	C 	0.96500 0.49870 0.39450 -0.16400
H 	H 	0.00230 0.47610 0.42890 0.07400
N 	N 	0.34820 0.73530 0.64650 -0.25600
N 	N 	0.64870 0.03480 0.66350 -0.27300
C 	C 	0.40660 0.67960 0.66050 0.05500
H 	H 	0.40690 0.60220 0.67190 -0.03900
C 	C 	0.46560 0.72980 0.65910 -0.13200
H 	H 	0.50460 0.68650 0.66960 0.05100
C 	C 	0.46790 0.84470 0.64230 0.03500
C 	C 	0.40670 0.90190 0.62400 -0.13700
H 	H 	0.40450 0.97810 0.60980 0.06300
C 	C 	0.34950 0.84460 0.62710 0.06100
H 	H 	0.30940 0.88450 0.61490 -0.04800
C 	C 	0.53110 0.90720 0.64670 0.06800
C 	C 	0.58940 0.87720 0.69370 -0.17200
H 	H 	0.59070 0.81190 0.72070 0.06100
C 	C 	0.64590 0.94220 0.70140 0.09000
H 	H 	0.68420 0.92050 0.73470 -0.08700
C 	C 	0.59350 0.06080 0.61530 0.08300
H 	H 	0.59470 0.12300 0.58650 -0.05100
C 	C 	0.53500 0.00130 0.60550 -0.16500
H 	H 	0.49770 0.02390 0.57110 0.07500
Cd	Cd	0.75166 0.14427 0.67931 1.11900
N 	N 	0.77047 0.99260 0.61043 -0.26800
C 	C 	0.74930 0.00310 0.54200 0.06900
H 	H 	0.73970 0.07620 0.52350 -0.04800
C 	C 	0.74070 0.91120 0.49710 -0.14600
H 	H 	0.72570 0.92290 0.44970 0.05600
C 	C 	0.75470 0.80140 0.52330 0.04700
C 	C 	0.77770 0.79090 0.59430 -0.15700
H 	H 	0.78850 0.71910 0.61430 0.04600
C 	C 	0.78450 0.88700 0.63510 0.07800
H 	H 	0.79970 0.87770 0.68260 -0.07700
