data_crystal

_cell_length_a 13.59410
_cell_length_b 14.36210
_cell_length_c 14.25610
_cell_angle_alpha 90.00000
_cell_angle_beta  96.14100
_cell_angle_gamma 90.00000

_symmetry_space_group_name_	'P 1'
_symmetry_space_group_name_H-M	'P 1'

loop_
_symmetry_equiv_pos_as_xyz
  x,y,z

loop_
_atom_site_label
_atom_site_type_symbol
_atom_site_fract_x
_atom_site_fract_y
_atom_site_fract_z
_atom_site_charge
C 	C 	0.99988 0.65890 0.34200 -0.14600
N 	N 	0.99498 0.60263 0.39871 -0.14800
C 	C 	0.01859 0.34100 0.15853 -0.29900
N 	N 	0.01852 0.39794 0.10138 -0.21100
C 	C 	0.01662 0.65763 0.16012 -0.31500
N 	N 	0.01886 0.60055 0.10370 -0.21000
C 	C 	0.99875 0.34214 0.33993 -0.12300
N 	N 	0.99110 0.39978 0.39551 -0.14600
N 	N 	0.15497 0.49345 0.50892 -0.09700
C 	C 	0.20997 0.48883 0.59274 0.15400
H 	H 	0.17720 0.48520 0.64830 -0.14200
C 	C 	0.31223 0.48913 0.60180 0.06900
H 	H 	0.34810 0.48560 0.66260 -0.02900
C 	C 	0.36267 0.49470 0.52220 0.02400
C 	C 	0.30560 0.49850 0.43550 -0.15200
H 	H 	0.33650 0.50100 0.37880 0.06800
C 	C 	0.20370 0.49870 0.43200 -0.15600
H 	H 	0.16610 0.50280 0.37200 0.07100
C 	C 	0.47170 0.49500 0.53350 -0.12900
H 	H 	0.50350 0.48720 0.59560 -0.00100
N 	N 	0.15307 0.49950 0.98762 -0.19900
C 	C 	0.18930 0.50709 0.90421 0.09200
H 	H 	0.14420 0.51150 0.84870 -0.03900
C 	C 	0.28944 0.50879 0.89545 -0.17400
H 	H 	0.31180 0.51520 0.83490 0.08000
C 	C 	0.35770 0.50110 0.97512 0.16600
C 	C 	0.31954 0.49218 0.06171 -0.24300
H 	H 	0.36290 0.48670 0.11830 0.08800
C 	C 	0.21825 0.49129 0.06453 0.01100
H 	H 	0.19360 0.48450 0.12400 -0.01000
C 	C 	0.46443 0.50410 0.96499 0.03500
H 	H 	0.48340 0.51240 0.90330 0.02600
N 	N 	0.15400 0.50360 0.48850 -0.07600
C 	C 	0.18860 0.50620 0.40410 0.16100
H 	H 	0.14280 0.50520 0.34890 -0.13100
C 	C 	0.28890 0.51030 0.39460 -0.00000
H 	H 	0.31120 0.52110 0.33460 -0.02600
C 	C 	0.35650 0.49850 0.47390 0.11600
C 	C 	0.32110 0.49060 0.56110 -0.13400
H 	H 	0.36540 0.48410 0.61700 0.05700
C 	C 	0.21920 0.49250 0.56490 -0.19200
H 	H 	0.19480 0.48550 0.62450 0.11700
C 	C 	0.46400 0.50200 0.46480 0.03800
H 	H 	0.48320 0.50750 0.40290 0.03400
C 	C 	0.00012 0.15890 0.65800 -0.27900
N 	N 	0.00502 0.10263 0.60129 -0.15500
C 	C 	0.98141 0.84100 0.84147 -0.18200
N 	N 	0.98148 0.89794 0.89862 -0.15800
C 	C 	0.98338 0.15763 0.83988 -0.12000
N 	N 	0.98114 0.10055 0.89630 -0.09100
C 	C 	0.00125 0.84214 0.66007 -0.34400
N 	N 	0.00890 0.89978 0.60449 -0.22900
N 	N 	0.84503 0.99345 0.49108 0.31400
C 	C 	0.79003 0.98883 0.40726 -0.20600
H 	H 	0.82280 0.98520 0.35170 0.60100
C 	C 	0.68777 0.98913 0.39820 0.49900
H 	H 	0.65190 0.98560 0.33740 -0.21900
C 	C 	0.63733 0.99470 0.47780 -0.83400
C 	C 	0.69440 0.99850 0.56450 0.31300
H 	H 	0.66350 0.00100 0.62120 0.37000
C 	C 	0.79630 0.99870 0.56800 0.57800
H 	H 	0.83390 0.00280 0.62800 0.02700
C 	C 	0.52830 0.99500 0.46650 -0.03300
H 	H 	0.49650 0.98720 0.40440 0.06300
N 	N 	0.84693 0.99950 0.01238 -0.40500
C 	C 	0.81070 0.00709 0.09579 0.32000
H 	H 	0.85580 0.01150 0.15130 -0.03900
C 	C 	0.71056 0.00879 0.10455 -0.32100
H 	H 	0.68820 0.01520 0.16510 0.16300
C 	C 	0.64230 0.00110 0.02488 0.29600
C 	C 	0.68046 0.99218 0.93829 -0.37100
H 	H 	0.63710 0.98670 0.88170 0.11100
C 	C 	0.78175 0.99129 0.93547 0.22700
H 	H 	0.80640 0.98450 0.87600 -0.09000
C 	C 	0.53557 0.00410 0.03501 -0.12400
H 	H 	0.51660 0.01240 0.09670 0.09600
N 	N 	0.84600 0.00360 0.51150 -0.63000
C 	C 	0.81140 0.00620 0.59590 -0.23800
H 	H 	0.85720 0.00520 0.65110 0.13000
C 	C 	0.71110 0.01030 0.60540 -1.19000
H 	H 	0.68880 0.02110 0.66540 0.25600
C 	C 	0.64350 0.99850 0.52610 0.61700
C 	C 	0.67890 0.99060 0.43890 -0.27300
H 	H 	0.63460 0.98410 0.38300 0.08500
C 	C 	0.78080 0.99250 0.43510 0.30600
H 	H 	0.80520 0.98550 0.37550 -0.67000
C 	C 	0.53600 0.00200 0.53520 0.25800
H 	H 	0.51680 0.00750 0.59710 0.03800
C 	C 	0.00012 0.34110 0.65800 -0.30400
N 	N 	0.00502 0.39737 0.60129 -0.18700
C 	C 	0.98141 0.65900 0.84147 -0.16700
N 	N 	0.98148 0.60206 0.89862 -0.12400
C 	C 	0.98338 0.34237 0.83988 -0.14500
N 	N 	0.98114 0.39945 0.89630 -0.12100
C 	C 	0.00125 0.65786 0.66007 -0.32500
N 	N 	0.00890 0.60022 0.60449 -0.18900
N 	N 	0.84503 0.50655 0.49108 -0.01000
C 	C 	0.79003 0.51117 0.40726 0.14700
H 	H 	0.82280 0.51480 0.35170 -0.12900
C 	C 	0.68777 0.51087 0.39820 0.12100
H 	H 	0.65190 0.51440 0.33740 -0.03700
C 	C 	0.63733 0.50530 0.47780 -0.01800
C 	C 	0.69440 0.50150 0.56450 -0.10500
H 	H 	0.66350 0.49900 0.62120 0.01600
C 	C 	0.79630 0.50130 0.56800 -0.29000
H 	H 	0.83390 0.49720 0.62800 0.25900
C 	C 	0.52830 0.50500 0.46650 -0.09900
H 	H 	0.49650 0.51280 0.40440 -0.00100
N 	N 	0.84693 0.50050 0.01238 -0.25800
C 	C 	0.81070 0.49291 0.09579 0.06600
H 	H 	0.85580 0.48850 0.15130 0.01700
C 	C 	0.71056 0.49121 0.10455 -0.14900
H 	H 	0.68820 0.48480 0.16510 0.07300
C 	C 	0.64230 0.49890 0.02488 0.04400
C 	C 	0.68046 0.50782 0.93829 -0.07400
H 	H 	0.63710 0.51330 0.88170 0.06300
C 	C 	0.78175 0.50871 0.93547 0.13400
H 	H 	0.80640 0.51550 0.87600 -0.01300
C 	C 	0.53557 0.49590 0.03501 -0.20400
H 	H 	0.51660 0.48760 0.09670 0.07800
N 	N 	0.84600 0.49640 0.51150 -0.08700
C 	C 	0.81140 0.49380 0.59590 0.19200
H 	H 	0.85720 0.49480 0.65110 -0.23200
C 	C 	0.71110 0.48970 0.60540 0.05300
H 	H 	0.68880 0.47890 0.66540 -0.00100
C 	C 	0.64350 0.50150 0.52610 0.12300
C 	C 	0.67890 0.50940 0.43890 -0.12300
H 	H 	0.63460 0.51590 0.38300 0.03400
C 	C 	0.78080 0.50750 0.43510 -0.21100
H 	H 	0.80520 0.51450 0.37550 0.12300
C 	C 	0.53600 0.49800 0.53520 0.04800
H 	H 	0.51680 0.49250 0.59710 0.04400
C 	C 	0.99988 0.84110 0.34200 -0.17000
N 	N 	0.99498 0.89737 0.39871 -0.19800
C 	C 	0.01859 0.15900 0.15853 -0.28300
N 	N 	0.01852 0.10206 0.10138 -0.19500
C 	C 	0.01662 0.84237 0.16012 -0.33700
N 	N 	0.01886 0.89945 0.10370 -0.25300
C 	C 	0.99875 0.15786 0.33993 -0.10300
N 	N 	0.99110 0.10022 0.39551 -0.12100
N 	N 	0.15497 0.00655 0.50892 -0.41600
C 	C 	0.20997 0.01117 0.59274 0.50500
H 	H 	0.17720 0.01480 0.64830 -0.86600
C 	C 	0.31223 0.01087 0.60180 -0.33800
H 	H 	0.34810 0.01440 0.66260 0.16000
C 	C 	0.36267 0.00530 0.52220 0.86800
C 	C 	0.30560 0.00150 0.43550 -0.56900
H 	H 	0.33650 0.99900 0.37880 -0.27700
C 	C 	0.20370 0.00130 0.43200 -0.99800
H 	H 	0.16610 0.99720 0.37200 0.28000
C 	C 	0.47170 0.00500 0.53350 -0.15400
H 	H 	0.50350 0.01280 0.59560 -0.05500
N 	N 	0.15307 0.00050 0.98762 -0.06000
C 	C 	0.18930 0.99291 0.90421 -0.16500
H 	H 	0.14420 0.98850 0.84870 0.01400
C 	C 	0.28944 0.99121 0.89545 -0.00100
H 	H 	0.31180 0.98480 0.83490 -0.01100
C 	C 	0.35770 0.99890 0.97512 -0.08700
C 	C 	0.31954 0.00782 0.06171 0.05300
H 	H 	0.36290 0.01330 0.11830 0.03900
C 	C 	0.21825 0.00871 0.06453 -0.09000
H 	H 	0.19360 0.01550 0.12400 0.06300
C 	C 	0.46443 0.99590 0.96499 -0.04600
H 	H 	0.48340 0.98760 0.90330 0.00700
N 	N 	0.15400 0.99640 0.48850 0.44300
C 	C 	0.18860 0.99380 0.40410 0.57400
H 	H 	0.14280 0.99480 0.34890 -0.47000
C 	C 	0.28890 0.98970 0.39460 1.24400
H 	H 	0.31120 0.97890 0.33460 -0.28500
C 	C 	0.35650 0.00150 0.47390 -0.41200
C 	C 	0.32110 0.00940 0.56110 0.02000
H 	H 	0.36540 0.01590 0.61700 0.00800
C 	C 	0.21920 0.00750 0.56490 -0.69900
H 	H 	0.19480 0.01450 0.62450 0.90000
C 	C 	0.46400 0.99800 0.46480 -0.21300
H 	H 	0.48320 0.99250 0.40290 0.03100
Ni	Ni	0.00000 0.50000 0.50000 1.00400
Ni	Ni	0.00000 0.00000 0.50000 1.06300
Ni	Ni	-0.00000 0.50000 -0.00000 0.97200
Ni	Ni	-0.00000 0.00000 -0.00000 1.03000
Ni	Ni	0.00927 0.75000 0.25105 0.99300
Ni	Ni	0.99073 0.25000 0.74895 1.11600
Ni	Ni	0.01008 0.25000 0.25005 1.00200
Ni	Ni	0.98992 0.75000 0.74995 1.10500
