data_crystal

_cell_length_a 13.41580
_cell_length_b 21.85510
_cell_length_c 14.47790
_cell_angle_alpha 90.00000
_cell_angle_beta  92.29100
_cell_angle_gamma 90.00000

_symmetry_space_group_name_	'P 1'
_symmetry_space_group_name_H-M	'P 1'

loop_
_symmetry_equiv_pos_as_xyz
  x,y,z

loop_
_atom_site_label
_atom_site_type_symbol
_atom_site_fract_x
_atom_site_fract_y
_atom_site_fract_z
_atom_site_charge
Cd	Cd	0.67501 0.01922 0.82615 1.23100
O 	O 	0.67270 0.98717 0.98000 -0.45800
O 	O 	0.79400 0.94882 0.74583 -0.33700
O 	O 	0.74680 0.03878 0.69267 -0.40000
C 	C 	0.75960 0.00878 0.99980 0.34100
C 	C 	0.53530 0.11528 0.86180 0.41800
C 	C 	0.83790 0.97537 0.59290 -0.16300
O 	O 	0.02680 0.42972 0.60581 -0.44500
O 	O 	0.62090 0.11893 0.83380 -0.41100
C 	C 	0.47620 0.17474 0.86890 -0.22900
C 	C 	0.80710 0.99261 0.09230 -0.13300
C 	C 	0.79100 0.98852 0.68360 0.36600
O 	O 	0.95080 0.93539 0.33719 -0.28900
O 	O 	0.49280 0.06720 0.88170 -0.47800
C 	C 	0.95570 0.98320 0.19010 -0.15700
H 	H 	0.02410 0.98860 0.19970 0.10100
C 	C 	0.90100 0.95709 0.25740 0.25100
C 	C 	0.75310 0.96592 0.16120 0.11200
H 	H 	0.68490 0.95960 0.15140 0.00600
C 	C 	0.88030 0.91925 0.57560 0.16700
H 	H 	0.88430 0.88990 0.62220 -0.00800
C 	C 	0.83450 0.01930 0.52350 0.15200
H 	H 	0.80730 0.05760 0.53480 0.01000
C 	C 	0.79870 0.94866 0.24390 -0.23200
H 	H 	0.76150 0.93160 0.29030 0.12700
O 	O 	0.80570 0.03859 0.94255 -0.36100
C 	C 	0.09810 0.40337 0.75110 -0.23300
C 	C 	0.37420 0.28210 0.89430 0.34500
C 	C 	0.51380 0.22996 0.83960 0.21600
H 	H 	0.57460 0.23080 0.81100 -0.01900
O 	O 	0.94080 0.45231 0.73056 -0.41100
C 	C 	0.33310 0.22770 0.92130 -0.32800
H 	H 	0.27080 0.22710 0.94720 0.16400
C 	C 	0.91690 0.90593 0.48950 -0.29400
H 	H 	0.94500 0.86790 0.47800 0.16300
C 	C 	0.87110 0.00650 0.43770 -0.31600
H 	H 	0.86880 0.03600 0.39140 0.15600
O 	O 	0.33040 0.33670 0.91990 -0.31700
C 	C 	0.01430 0.43136 0.69160 0.40800
C 	C 	0.26650 0.36710 0.76620 -0.33000
H 	H 	0.32770 0.35970 0.74040 0.15400
C 	C 	0.46330 0.28326 0.85200 -0.33900
H 	H 	0.48940 0.32010 0.83170 0.16300
C 	C 	0.18840 0.39098 0.71330 0.20800
H 	H 	0.19680 0.39890 0.65100 -0.02700
C 	C 	0.90880 0.00150 0.10790 0.04300
H 	H 	0.94580 0.01990 0.06260 0.02700
C 	C 	0.91100 0.94980 0.42170 0.34000
C 	C 	0.16430 0.36700 0.89700 -0.32600
H 	H 	0.15640 0.35940 0.95950 0.16900
C 	C 	0.25250 0.35440 0.85770 0.33200
C 	C 	0.38410 0.17449 0.91020 0.20900
H 	H 	0.35740 0.13780 0.93020 -0.02200
C 	C 	0.08710 0.39100 0.84330 0.20800
H 	H 	0.02640 0.39900 0.86970 -0.02200
Cd	Cd	0.82499 0.51922 0.67385 1.23700
O 	O 	0.82730 0.48717 0.52000 -0.49900
O 	O 	0.70600 0.44882 0.75417 -0.35000
O 	O 	0.75320 0.53878 0.80733 -0.38600
C 	C 	0.74040 0.50878 0.50020 0.38200
C 	C 	0.96470 0.61528 0.63820 0.48600
C 	C 	0.66210 0.47537 0.90710 -0.26500
O 	O 	0.47320 0.92972 0.89419 -0.42500
O 	O 	0.87910 0.61893 0.66620 -0.42400
C 	C 	0.02380 0.67474 0.63110 -0.33600
C 	C 	0.69290 0.49261 0.40770 -0.21900
C 	C 	0.70900 0.48852 0.81640 0.37700
O 	O 	0.54920 0.43539 0.16281 -0.33300
O 	O 	0.00720 0.56720 0.61830 -0.51100
C 	C 	0.54430 0.48320 0.30990 -0.31100
H 	H 	0.47590 0.48860 0.30030 0.16300
C 	C 	0.59900 0.45709 0.24260 0.32700
C 	C 	0.74690 0.46592 0.33880 0.18600
H 	H 	0.81510 0.45960 0.34860 -0.02100
C 	C 	0.61970 0.41925 0.92440 0.29700
H 	H 	0.61570 0.38990 0.87780 -0.05100
C 	C 	0.66550 0.51930 0.97650 0.30100
H 	H 	0.69270 0.55760 0.96520 -0.02800
C 	C 	0.70130 0.44866 0.25610 -0.31100
H 	H 	0.73850 0.43160 0.20970 0.14900
O 	O 	0.69430 0.53859 0.55745 -0.37600
C 	C 	0.40190 0.90337 0.74890 -0.23300
C 	C 	0.12580 0.78210 0.60570 0.40800
C 	C 	0.98620 0.72996 0.66040 0.34800
H 	H 	0.92540 0.73080 0.68900 -0.06000
O 	O 	0.55920 0.95231 0.76944 -0.42200
C 	C 	0.16690 0.72770 0.57870 -0.40600
H 	H 	0.22920 0.72710 0.55280 0.18600
C 	C 	0.58310 0.40593 0.01050 -0.42700
H 	H 	0.55500 0.36790 0.02200 0.19300
C 	C 	0.62890 0.50650 0.06230 -0.43200
H 	H 	0.63120 0.53600 0.10860 0.19500
O 	O 	0.16960 0.83670 0.58010 -0.34200
C 	C 	0.48570 0.93136 0.80840 0.42700
C 	C 	0.23350 0.86710 0.73380 -0.33200
H 	H 	0.17230 0.85970 0.75960 0.15700
C 	C 	0.03670 0.78326 0.64800 -0.45100
H 	H 	0.01060 0.82010 0.66830 0.19400
C 	C 	0.31160 0.89098 0.78670 0.21200
H 	H 	0.30320 0.89890 0.84900 -0.01900
C 	C 	0.59120 0.50150 0.39210 0.18700
H 	H 	0.55420 0.51990 0.43740 -0.01200
C 	C 	0.58900 0.44980 0.07830 0.40300
C 	C 	0.33570 0.86700 0.60300 -0.33000
H 	H 	0.34360 0.85940 0.54050 0.16600
C 	C 	0.24750 0.85440 0.64230 0.33600
C 	C 	0.11590 0.67449 0.58980 0.29000
H 	H 	0.14260 0.63780 0.56980 -0.05700
C 	C 	0.41290 0.89100 0.65670 0.21200
H 	H 	0.47360 0.89900 0.63030 -0.02000
Cd	Cd	0.32499 0.98078 0.17385 1.24000
O 	O 	0.32730 0.01283 0.02000 -0.53500
O 	O 	0.20600 0.05118 0.25417 -0.35000
O 	O 	0.25320 0.96122 0.30733 -0.37200
C 	C 	0.24040 0.99122 0.00020 0.40800
C 	C 	0.46470 0.88472 0.13820 0.41800
C 	C 	0.16210 0.02463 0.40710 -0.20200
O 	O 	0.97320 0.57028 0.39419 -0.44400
O 	O 	0.37910 0.88107 0.16620 -0.41500
C 	C 	0.52380 0.82526 0.13110 -0.24000
C 	C 	0.19290 0.00739 0.90770 -0.27900
C 	C 	0.20900 0.01148 0.31640 0.33000
O 	O 	0.04920 0.06461 0.66281 -0.32600
O 	O 	0.50720 0.93280 0.11830 -0.48100
C 	C 	0.04430 0.01680 0.80990 -0.42400
H 	H 	0.97590 0.01140 0.80030 0.20800
C 	C 	0.09900 0.04291 0.74260 0.37300
C 	C 	0.24690 0.03408 0.83880 0.23700
H 	H 	0.31510 0.04040 0.84860 -0.03600
C 	C 	0.11970 0.08075 0.42440 0.16600
H 	H 	0.11570 0.11010 0.37780 -0.01600
C 	C 	0.16550 0.98070 0.47650 0.18500
H 	H 	0.19270 0.94240 0.46520 0.00100
C 	C 	0.20130 0.05134 0.75610 -0.36100
H 	H 	0.23850 0.06840 0.70970 0.16500
O 	O 	0.19430 0.96141 0.05745 -0.39300
C 	C 	0.90190 0.59663 0.24890 -0.24900
C 	C 	0.62580 0.71790 0.10570 0.34700
C 	C 	0.48620 0.77004 0.16040 0.21800
H 	H 	0.42540 0.76920 0.18900 -0.02600
O 	O 	0.05920 0.54769 0.26944 -0.45600
C 	C 	0.66690 0.77230 0.07870 -0.33900
H 	H 	0.72920 0.77290 0.05280 0.16000
C 	C 	0.08310 0.09407 0.51050 -0.29300
H 	H 	0.05500 0.13210 0.52200 0.15300
C 	C 	0.12890 0.99350 0.56230 -0.28200
H 	H 	0.13120 0.96400 0.60860 0.14900
O 	O 	0.66960 0.66330 0.08010 -0.33300
C 	C 	0.98570 0.56864 0.30840 0.45300
C 	C 	0.73350 0.63290 0.23380 -0.34100
H 	H 	0.67230 0.64030 0.25960 0.15700
C 	C 	0.53670 0.71674 0.14800 -0.34900
H 	H 	0.51060 0.67990 0.16830 0.15900
C 	C 	0.81160 0.60902 0.28670 0.22000
H 	H 	0.80320 0.60110 0.34900 -0.03000
C 	C 	0.09120 0.99850 0.89210 0.30000
H 	H 	0.05420 0.98010 0.93740 -0.04100
C 	C 	0.08900 0.05020 0.57830 0.30100
C 	C 	0.83570 0.63300 0.10300 -0.33700
H 	H 	0.84360 0.64060 0.04050 0.16200
C 	C 	0.74750 0.64560 0.14230 0.33600
C 	C 	0.61590 0.82551 0.08980 0.21300
H 	H 	0.64260 0.86220 0.06980 -0.03500
C 	C 	0.91290 0.60900 0.15670 0.21900
H 	H 	0.97360 0.60100 0.13030 -0.02500
Cd	Cd	0.17501 0.48078 0.32615 1.23300
O 	O 	0.17270 0.51283 0.48000 -0.50400
O 	O 	0.29400 0.55118 0.24583 -0.34000
O 	O 	0.24680 0.46122 0.19267 -0.38400
C 	C 	0.25960 0.49122 0.49980 0.38100
C 	C 	0.03530 0.38472 0.36180 0.35200
C 	C 	0.33790 0.52463 0.09290 -0.10000
O 	O 	0.52680 0.07028 0.10581 -0.46000
O 	O 	0.12090 0.38107 0.33380 -0.40200
C 	C 	0.97620 0.32526 0.36890 -0.13500
C 	C 	0.30710 0.50739 0.59230 -0.21200
C 	C 	0.29100 0.51148 0.18360 0.31400
O 	O 	0.45080 0.56461 0.83719 -0.28400
O 	O 	0.99280 0.43280 0.38170 -0.45000
C 	C 	0.45570 0.51680 0.69010 -0.29600
H 	H 	0.52410 0.51140 0.69970 0.15900
C 	C 	0.40100 0.54291 0.75740 0.30900
C 	C 	0.25310 0.53408 0.66120 0.17600
H 	H 	0.18490 0.54040 0.65140 -0.01500
C 	C 	0.38030 0.58075 0.07560 0.03400
H 	H 	0.38430 0.61010 0.12220 0.02800
C 	C 	0.33450 0.48070 0.02350 0.03600
H 	H 	0.30730 0.44240 0.03480 0.04000
C 	C 	0.29870 0.55134 0.74390 -0.29500
H 	H 	0.26150 0.56840 0.79030 0.14800
O 	O 	0.30570 0.46141 0.44255 -0.37900
C 	C 	0.59810 0.09663 0.25110 -0.24800
C 	C 	0.87420 0.21790 0.39430 0.28600
C 	C 	0.01380 0.27004 0.33960 0.09000
H 	H 	0.07460 0.26920 0.31100 0.01400
O 	O 	0.44080 0.04769 0.23056 -0.44200
C 	C 	0.83310 0.27230 0.42130 -0.26400
H 	H 	0.77080 0.27290 0.44720 0.13800
C 	C 	0.41690 0.59407 0.98950 -0.15800
H 	H 	0.44500 0.63210 0.97800 0.12200
C 	C 	0.37110 0.49350 0.93770 -0.16200
H 	H 	0.36880 0.46400 0.89140 0.11000
O 	O 	0.83040 0.16330 0.41990 -0.30900
C 	C 	0.51430 0.06864 0.19160 0.43100
C 	C 	0.76650 0.13290 0.26620 -0.33800
H 	H 	0.82770 0.14030 0.24040 0.15400
C 	C 	0.96330 0.21674 0.35200 -0.24000
H 	H 	0.98940 0.17990 0.33170 0.12900
C 	C 	0.68840 0.10902 0.21330 0.21500
H 	H 	0.69680 0.10110 0.15100 -0.03700
C 	C 	0.40880 0.49850 0.60790 0.17700
H 	H 	0.44580 0.48010 0.56260 -0.00900
C 	C 	0.41100 0.55020 0.92170 0.23400
C 	C 	0.66430 0.13300 0.39700 -0.33300
H 	H 	0.65640 0.14060 0.45950 0.16500
C 	C 	0.75250 0.14560 0.35770 0.33000
C 	C 	0.88410 0.32551 0.41020 0.13400
H 	H 	0.85740 0.36220 0.43020 -0.00000
C 	C 	0.58710 0.10900 0.34330 0.21400
H 	H 	0.52640 0.10100 0.36970 -0.02700
Cd	Cd	0.50000 0.00000 -0.00000 1.23000
Cd	Cd	0.00000 0.50000 0.50000 1.24000
