data_crystal

_cell_length_a 15.13940
_cell_length_b 16.56700
_cell_length_c 17.86800
_cell_angle_alpha 95.39900
_cell_angle_beta  97.07400
_cell_angle_gamma 102.33200

_symmetry_space_group_name_	'P 1'
_symmetry_space_group_name_H-M	'P 1'

loop_
_symmetry_equiv_pos_as_xyz
  x,y,z

loop_
_atom_site_label
_atom_site_type_symbol
_atom_site_fract_x
_atom_site_fract_y
_atom_site_fract_z
_atom_site_charge
Cd	Cd	0.31397 0.01764 0.36623 1.23300
Cd	Cd	0.86837 0.63416 0.07436 1.24000
C 	C 	0.57390 0.68680 0.14180 0.21400
H 	H 	0.57770 0.63480 0.15570 -0.02900
C 	C 	0.51380 0.38540 0.61520 0.31100
C 	C 	0.76890 0.47730 0.77240 0.23500
H 	H 	0.82620 0.46870 0.76540 -0.02800
C 	C 	0.49490 0.72040 0.15290 -0.36600
H 	H 	0.44620 0.68880 0.17210 0.16300
C 	C 	0.69410 0.45710 0.71320 -0.33300
H 	H 	0.70040 0.42970 0.66700 0.16300
C 	C 	0.59310 0.50130 0.79470 -0.37900
H 	H 	0.53450 0.50390 0.80350 0.18200
C 	C 	0.61320 0.47690 0.72230 0.33700
C 	C 	0.47210 0.38810 0.54100 -0.26700
H 	H 	0.46740 0.43890 0.52480 0.14500
C 	C 	0.53250 0.31110 0.63240 -0.30000
H 	H 	0.56920 0.31000 0.67780 0.14100
C 	C 	0.49200 0.79740 0.13560 0.41400
C 	C 	0.66170 0.51950 0.84720 0.26600
H 	H 	0.65260 0.54120 0.89480 -0.03100
C 	C 	0.30020 0.73080 0.07960 -0.40500
H 	H 	0.33930 0.71110 0.05000 0.17000
C 	C 	0.55890 0.83970 0.10430 -0.40900
H 	H 	0.55630 0.89260 0.09200 0.19300
C 	C 	0.64220 0.73280 0.11060 -0.25400
C 	C 	0.75240 0.50930 0.83880 -0.27100
C 	C 	0.07960 0.54760 0.71850 0.20200
H 	H 	0.09280 0.49930 0.69640 -0.02100
C 	C 	0.81990 0.53050 0.90760 0.44600
C 	C 	0.43750 0.31400 0.49110 0.16500
H 	H 	0.40570 0.31560 0.44350 -0.00100
C 	C 	0.06420 0.60800 0.67440 -0.33100
H 	H 	0.06520 0.59980 0.62230 0.15300
C 	C 	0.21000 0.69830 0.06530 0.28200
H 	H 	0.18690 0.65370 0.02730 -0.07100
C 	C 	0.07220 0.80180 0.55740 -0.34800
H 	H 	0.01000 0.79410 0.54040 0.16600
C 	C 	0.09320 0.49150 0.84180 0.37700
C 	C 	0.33500 0.79470 0.13960 0.39400
C 	C 	0.49780 0.23730 0.58330 0.17900
H 	H 	0.50640 0.18690 0.59820 -0.02000
C 	C 	0.18670 0.79460 0.16580 0.26200
H 	H 	0.14720 0.81610 0.19370 -0.03000
C 	C 	0.72670 0.70030 0.09650 0.41200
C 	C 	0.45050 0.23940 0.51230 -0.21500
C 	C 	0.15170 0.73010 0.10590 -0.29000
C 	C 	0.07540 0.55790 0.79560 -0.22800
C 	C 	0.04740 0.68080 0.70730 0.34100
C 	C 	0.05420 0.69760 0.08580 0.37400
C 	C 	0.27660 0.82480 0.18250 -0.37800
H 	H 	0.30000 0.86630 0.22320 0.18100
C 	C 	0.04370 0.69170 0.78540 -0.31800
H 	H 	0.03280 0.74090 0.80800 0.16300
C 	C 	0.09990 0.77470 0.62220 0.34800
C 	C 	0.63220 0.80790 0.08960 0.26000
H 	H 	0.67620 0.83820 0.06470 -0.03500
C 	C 	0.05620 0.63010 0.82850 0.20100
H 	H 	0.05170 0.63660 0.88010 -0.02200
C 	C 	0.13560 0.84130 0.51550 0.21000
H 	H 	0.11600 0.86040 0.47050 -0.02200
C 	C 	0.65010 0.04510 0.17990 -0.36800
H 	H 	0.65990 0.07480 0.13890 0.16100
C 	C 	0.19300 0.78530 0.64890 -0.33400
H 	H 	0.21160 0.76580 0.69400 0.15800
C 	C 	0.99220 0.04900 0.29840 0.33800
H 	H 	0.01770 0.08410 0.34310 -0.08000
C 	C 	0.69770 0.95590 0.26890 -0.34800
H 	H 	0.73890 0.92520 0.28650 0.16900
C 	C 	0.57380 0.04620 0.21550 0.21800
H 	H 	0.53280 0.07720 0.19820 -0.03000
C 	C 	0.25680 0.82490 0.60770 0.21000
H 	H 	0.31880 0.83290 0.62530 -0.02300
C 	C 	0.40680 0.15970 0.46210 0.41100
C 	C 	0.29820 0.89690 0.49630 0.42100
C 	C 	0.71150 0.99930 0.20590 0.37300
C 	C 	0.22890 0.85250 0.54060 -0.23700
C 	C 	0.00570 0.94850 0.19790 0.24000
H 	H 	0.04030 0.91610 0.17470 -0.02800
C 	C 	0.86650 0.99360 0.19990 0.40400
C 	C 	0.62250 0.95930 0.30430 0.25000
H 	H 	0.61490 0.93270 0.34740 -0.03700
C 	C 	0.91620 0.94430 0.16490 -0.34200
H 	H 	0.89060 0.90900 0.12040 0.18000
C 	C 	0.90260 0.04590 0.26640 -0.43200
H 	H 	0.86800 0.07840 0.28930 0.19300
C 	C 	0.55780 0.00170 0.27700 -0.25900
C 	C 	0.04370 0.00010 0.26440 -0.31200
C 	C 	0.47400 0.00010 0.31180 0.37100
C 	C 	0.13930 0.00370 0.30100 0.36900
O 	O 	0.55500 0.46330 0.64890 -0.31100
O 	O 	0.73330 0.63220 0.12090 -0.39300
O 	O 	0.10230 0.42360 0.80980 -0.36700
O 	O 	0.42410 0.83390 0.15760 -0.36300
O 	O 	0.80320 0.58000 0.95970 -0.41900
O 	O 	0.99970 0.72790 0.12480 -0.36600
O 	O 	0.03310 0.74220 0.66500 -0.33700
O 	O 	0.01960 0.64110 0.03030 -0.51000
O 	O 	0.36780 0.16450 0.39710 -0.38200
O 	O 	0.10190 0.50530 0.91400 -0.46900
O 	O 	0.17060 0.05240 0.36060 -0.37800
O 	O 	0.77970 0.73780 0.06310 -0.40900
O 	O 	0.26690 0.91880 0.43370 -0.43600
O 	O 	0.89020 0.50220 0.90700 -0.42300
O 	O 	0.40650 0.09340 0.48710 -0.51300
O 	O 	0.46130 0.96260 0.36960 -0.45300
O 	O 	0.18660 0.96200 0.26940 -0.35900
O 	O 	0.41340 0.03370 0.28100 -0.40200
O 	O 	0.78020 0.99200 0.16320 -0.34500
O 	O 	0.38130 0.90830 0.52290 -0.43400
Cd	Cd	0.68603 0.98236 0.63377 1.24500
Cd	Cd	0.13163 0.36584 0.92564 1.24800
C 	C 	0.42610 0.31320 0.85820 0.21100
H 	H 	0.42230 0.36520 0.84430 -0.02200
C 	C 	0.48620 0.61460 0.38480 0.31100
C 	C 	0.23110 0.52270 0.22760 0.25000
H 	H 	0.17380 0.53130 0.23460 -0.04300
C 	C 	0.50510 0.27960 0.84710 -0.35800
H 	H 	0.55380 0.31120 0.82790 0.16200
C 	C 	0.30590 0.54290 0.28680 -0.34900
H 	H 	0.29960 0.57030 0.33300 0.16500
C 	C 	0.40690 0.49870 0.20530 -0.40000
H 	H 	0.46550 0.49610 0.19650 0.18100
C 	C 	0.38680 0.52310 0.27770 0.34500
C 	C 	0.52790 0.61190 0.45900 -0.26400
H 	H 	0.53260 0.56110 0.47520 0.14400
C 	C 	0.46750 0.68890 0.36760 -0.29800
H 	H 	0.43080 0.69000 0.32220 0.14100
C 	C 	0.50800 0.20260 0.86440 0.41200
C 	C 	0.33830 0.48050 0.15280 0.28300
H 	H 	0.34740 0.45880 0.10520 -0.05500
C 	C 	0.69980 0.26920 0.92040 -0.40700
H 	H 	0.66070 0.28890 0.95000 0.18700
C 	C 	0.44110 0.16030 0.89570 -0.39900
H 	H 	0.44370 0.10740 0.90800 0.19200
C 	C 	0.35780 0.26720 0.88940 -0.24000
C 	C 	0.24760 0.49070 0.16120 -0.29700
C 	C 	0.92040 0.45240 0.28150 0.21200
H 	H 	0.90720 0.50070 0.30360 -0.01800
C 	C 	0.18010 0.46950 0.09240 0.45700
C 	C 	0.56250 0.68600 0.50890 0.16200
H 	H 	0.59430 0.68440 0.55650 0.00400
C 	C 	0.93580 0.39200 0.32560 -0.33400
H 	H 	0.93480 0.40020 0.37770 0.16200
C 	C 	0.79000 0.30170 0.93470 0.29600
H 	H 	0.81310 0.34630 0.97270 -0.05500
C 	C 	0.92780 0.19820 0.44260 -0.34900
H 	H 	0.99000 0.20590 0.45960 0.18000
C 	C 	0.90680 0.50850 0.15820 0.38800
C 	C 	0.66500 0.20530 0.86040 0.40300
C 	C 	0.50220 0.76270 0.41670 0.17500
H 	H 	0.49360 0.81310 0.40180 -0.01700
C 	C 	0.81330 0.20540 0.83420 0.27800
H 	H 	0.85280 0.18390 0.80630 -0.02900
C 	C 	0.27330 0.29970 0.90350 0.41000
C 	C 	0.54950 0.76060 0.48770 -0.20800
C 	C 	0.84830 0.26990 0.89410 -0.29800
C 	C 	0.92460 0.44210 0.20440 -0.23600
C 	C 	0.95260 0.31920 0.29270 0.34800
C 	C 	0.94580 0.30240 0.91420 0.42700
C 	C 	0.72340 0.17520 0.81750 -0.38400
H 	H 	0.70000 0.13370 0.77680 0.17900
C 	C 	0.95630 0.30830 0.21460 -0.32600
H 	H 	0.96720 0.25910 0.19200 0.16100
C 	C 	0.90010 0.22530 0.37780 0.35100
C 	C 	0.36780 0.19210 0.91040 0.25500
H 	H 	0.32380 0.16180 0.93530 -0.02500
C 	C 	0.94380 0.36990 0.17150 0.21300
H 	H 	0.94830 0.36340 0.11990 -0.04000
C 	C 	0.86440 0.15870 0.48450 0.21500
H 	H 	0.88400 0.13960 0.52950 -0.02300
C 	C 	0.34990 0.95490 0.82010 -0.20700
H 	H 	0.34010 0.92520 0.86110 0.13000
C 	C 	0.80700 0.21470 0.35110 -0.33900
H 	H 	0.78840 0.23420 0.30600 0.15400
C 	C 	0.00780 0.95100 0.70160 0.00400
H 	H 	0.98230 0.91590 0.65690 0.07600
C 	C 	0.30230 0.04410 0.73110 -0.22700
H 	H 	0.26110 0.07480 0.71350 0.11800
C 	C 	0.42620 0.95380 0.78450 0.11100
H 	H 	0.46720 0.92280 0.80180 0.02200
C 	C 	0.74320 0.17510 0.39230 0.21100
H 	H 	0.68120 0.16710 0.37470 -0.02700
C 	C 	0.59320 0.84030 0.53790 0.40600
C 	C 	0.70180 0.10310 0.50370 0.42200
C 	C 	0.28850 0.00070 0.79410 0.23300
C 	C 	0.77110 0.14750 0.45940 -0.24400
C 	C 	0.99430 0.05150 0.80210 0.09800
H 	H 	0.95970 0.08390 0.82530 0.03200
C 	C 	0.13350 0.00640 0.80010 0.22900
C 	C 	0.37750 0.04070 0.69570 0.09400
H 	H 	0.38510 0.06730 0.65260 0.00700
C 	C 	0.08380 0.05570 0.83510 -0.23900
H 	H 	0.10940 0.09100 0.87960 0.14100
C 	C 	0.09740 0.95410 0.73360 -0.16000
H 	H 	0.13200 0.92160 0.71070 0.10600
C 	C 	0.44220 0.99830 0.72300 -0.13700
C 	C 	0.95630 0.99990 0.73560 -0.07100
C 	C 	0.52600 0.99990 0.68820 0.38000
C 	C 	0.86070 0.99630 0.69900 0.34800
O 	O 	0.44500 0.53670 0.35110 -0.31500
O 	O 	0.26670 0.36780 0.87910 -0.37800
O 	O 	0.89770 0.57640 0.19020 -0.36300
O 	O 	0.57590 0.16610 0.84240 -0.36600
O 	O 	0.19680 0.42000 0.04030 -0.47700
O 	O 	0.00030 0.27210 0.87520 -0.41400
O 	O 	0.96690 0.25780 0.33500 -0.33000
O 	O 	0.98040 0.35890 0.96970 -0.46400
O 	O 	0.63220 0.83550 0.60290 -0.37100
O 	O 	0.89810 0.49470 0.08600 -0.49500
O 	O 	0.82940 0.94760 0.63940 -0.35200
O 	O 	0.22030 0.26220 0.93690 -0.39000
O 	O 	0.73310 0.08120 0.56630 -0.44900
O 	O 	0.10980 0.49780 0.09300 -0.46400
O 	O 	0.59350 0.90660 0.51290 -0.49700
O 	O 	0.53870 0.03740 0.63040 -0.48700
O 	O 	0.81340 0.03800 0.73060 -0.37900
O 	O 	0.58660 0.96630 0.71900 -0.38400
O 	O 	0.21980 0.00800 0.83680 -0.28000
O 	O 	0.61870 0.09170 0.47710 -0.44600
Cd	Cd	0.50000 0.00000 0.50000 1.23700
Cd	Cd	0.00000 0.50000 -0.00000 1.22600
