data_crystal

_cell_length_a 13.10200
_cell_length_b 13.13400
_cell_length_c 25.33600
_cell_angle_alpha 93.93500
_cell_angle_beta  90.00000
_cell_angle_gamma 90.00000

_symmetry_space_group_name_	'P 1'
_symmetry_space_group_name_H-M	'P 1'

loop_
_symmetry_equiv_pos_as_xyz
  x,y,z

loop_
_atom_site_label
_atom_site_type_symbol
_atom_site_fract_x
_atom_site_fract_y
_atom_site_fract_z
_atom_site_charge
Mn	Mn	0.05282 0.76149 0.48483 1.29200
Mn	Mn	0.55282 0.73851 0.01517 1.28700
Mn	Mn	0.30616 0.47132 0.99833 1.26300
Mn	Mn	0.50000 0.00000 -0.00000 1.28800
Mn	Mn	0.19384 0.97132 0.49833 1.25600
Mn	Mn	0.69384 0.52868 0.00167 1.24000
Mn	Mn	0.80616 0.02868 0.50167 1.24600
Mn	Mn	0.94718 0.23851 0.51517 1.30300
Mn	Mn	-0.00000 0.50000 0.50000 1.30100
Mn	Mn	0.44718 0.26149 0.98483 1.30900
H 	H 	0.89180 0.03930 0.34720 0.14500
H 	H 	0.64860 0.70010 0.88000 -0.00400
H 	H 	0.61560 0.33110 0.15270 0.13100
H 	H 	0.83930 0.44460 0.14310 -0.01300
H 	H 	0.86170 0.14950 0.16790 0.11300
H 	H 	0.46820 0.18310 0.74590 0.15400
H 	H 	0.74370 0.59060 0.59550 0.00500
H 	H 	0.66670 0.73580 0.79020 0.14100
H 	H 	0.30970 0.99650 0.14250 -0.01200
H 	H 	0.81490 0.80880 0.37870 -0.02900
H 	H 	0.83480 0.87340 0.22860 0.11900
H 	H 	0.94070 0.86610 0.82530 0.14400
H 	H 	0.14860 0.79990 0.62000 -0.00900
H 	H 	0.36170 0.35050 0.33210 0.12500
H 	H 	0.13830 0.85050 0.83210 0.13500
H 	H 	0.25630 0.40940 0.40450 0.00300
H 	H 	0.83330 0.23580 0.29020 0.14400
H 	H 	0.73210 0.81950 0.15740 0.02800
H 	H 	0.03180 0.68310 0.24590 0.12500
H 	H 	0.60820 0.53930 0.84720 0.13100
H 	H 	0.51440 0.94770 0.87410 0.15000
H 	H 	0.16070 0.55540 0.85690 -0.01600
H 	H 	0.53180 0.81690 0.25410 0.15800
H 	H 	0.63830 0.64950 0.66790 0.12600
H 	H 	0.46250 0.77020 0.33360 0.00100
H 	H 	0.26790 0.18050 0.84260 -0.00300
H 	H 	0.41840 0.66440 0.58440 0.00700
H 	H 	0.04890 0.93330 0.21860 0.19300
H 	H 	0.91480 0.40200 0.22210 0.14800
H 	H 	0.61740 0.13280 0.26920 0.15500
H 	H 	0.38440 0.66890 0.84730 0.13800
H 	H 	0.19030 0.49650 0.64250 -0.01900
H 	H 	0.75630 0.09060 0.09550 0.02000
H 	H 	0.22160 0.67890 0.19870 0.15200
H 	H 	0.69030 0.00350 0.85750 -0.02300
H 	H 	0.31490 0.69120 0.12130 -0.03500
H 	H 	0.08160 0.16440 0.08440 -0.00500
H 	H 	0.24370 0.90940 0.90450 -0.00900
H 	H 	0.33330 0.26420 0.20980 0.14200
H 	H 	0.48560 0.05230 0.12590 0.12300
H 	H 	0.72160 0.82110 0.30130 0.15600
H 	H 	0.76790 0.31950 0.65740 0.01200
H 	H 	0.16670 0.76420 0.70980 0.13900
H 	H 	0.11560 0.16890 0.34730 0.13700
H 	H 	0.23210 0.68050 0.34260 0.01100
H 	H 	0.11740 0.36720 0.23080 0.16700
H 	H 	0.77840 0.32110 0.80130 0.15500
H 	H 	0.88260 0.63280 0.76920 0.16000
H 	H 	0.35140 0.29990 0.12000 -0.00700
H 	H 	0.16520 0.12660 0.77140 0.15300
H 	H 	0.85140 0.20010 0.38000 -0.00300
H 	H 	0.01440 0.55230 0.62590 0.09700
H 	H 	0.91840 0.83560 0.91560 0.01900
H 	H 	0.66070 0.94460 0.64310 -0.01500
H 	H 	0.96820 0.31690 0.75410 0.18700
H 	H 	0.10820 0.96070 0.65280 0.11700
H 	H 	0.53750 0.22980 0.66640 -0.00100
H 	H 	0.98560 0.44770 0.37410 0.17500
H 	H 	0.66520 0.37340 0.72860 0.13700
H 	H 	0.33480 0.62660 0.27140 0.13800
H 	H 	0.62990 0.65090 0.13610 0.12600
H 	H 	0.37010 0.34910 0.86390 0.12900
H 	H 	0.12990 0.84910 0.36390 0.13200
H 	H 	0.18510 0.19120 0.62130 -0.03600
H 	H 	0.80970 0.50350 0.35750 -0.01600
H 	H 	0.33930 0.05540 0.35690 -0.01400
H 	H 	0.45110 0.43330 0.71860 0.17200
H 	H 	0.22940 0.98320 0.22420 0.17300
H 	H 	0.38260 0.86720 0.73080 0.17100
H 	H 	0.58160 0.33560 0.41560 0.00600
H 	H 	0.72940 0.51680 0.27580 0.16500
H 	H 	0.44070 0.63390 0.67470 0.13600
H 	H 	0.08520 0.59800 0.77790 0.13800
H 	H 	0.54890 0.56670 0.28140 0.17100
H 	H 	0.58520 0.90200 0.72210 0.13900
H 	H 	0.27840 0.17890 0.69870 0.15200
H 	H 	0.27060 0.48320 0.72420 0.16500
H 	H 	0.68510 0.30880 0.87870 -0.03000
H 	H 	0.96250 0.72980 0.16640 0.01400
H 	H 	0.87010 0.15090 0.63610 0.12500
H 	H 	0.05930 0.13390 0.17470 0.12800
H 	H 	0.03750 0.27020 0.83360 -0.01300
H 	H 	0.55930 0.36610 0.32530 0.13500
H 	H 	0.39180 0.46070 0.15280 0.12700
H 	H 	0.88440 0.83110 0.65270 0.13100
H 	H 	0.41480 0.09800 0.27790 0.14900
H 	H 	0.77060 0.01680 0.77580 0.15800
H 	H 	0.95110 0.06670 0.78140 0.15400
C 	C 	0.48200 0.96200 0.26076 0.34600
C 	C 	0.35110 0.85610 0.40611 0.41600
C 	C 	0.66570 0.58400 0.66597 -0.23700
C 	C 	0.24200 0.11440 0.84040 0.19600
C 	C 	0.49470 0.86400 0.27543 -0.29000
C 	C 	0.92360 0.46690 0.21031 -0.29500
C 	C 	0.60850 0.09460 0.64651 -0.18600
C 	C 	0.22810 0.95240 0.87794 0.18800
C 	C 	0.95130 0.57800 0.70055 0.27900
C 	C 	0.23510 0.55020 0.38072 -0.16900
C 	C 	0.54850 0.16460 0.67738 0.13900
C 	C 	0.58790 0.61380 0.15736 -0.22500
C 	C 	0.79710 0.74970 0.35852 0.20300
C 	C 	0.98190 0.71910 0.57821 0.31700
C 	C 	0.51800 0.03800 0.73924 0.30100
C 	C 	0.04870 0.42200 0.29945 0.32800
C 	C 	0.98870 0.05410 0.63589 0.05300
C 	C 	0.74200 0.38560 0.65960 0.15600
C 	C 	0.12490 0.25720 0.28371 0.31500
C 	C 	0.21750 0.74740 0.68509 -0.25300
C 	C 	0.14720 0.98310 0.79388 0.32000
C 	C 	0.82440 0.65740 0.37564 -0.23100
C 	C 	0.04850 0.33540 0.82262 0.16000
C 	C 	0.12220 0.50760 0.83672 0.14800
C 	C 	0.16570 0.91600 0.83403 -0.27400
C 	C 	0.61690 0.33220 0.33643 -0.25800
C 	C 	0.96360 0.99810 0.27903 0.41400
C 	C 	0.45150 0.83540 0.32262 0.13600
C 	C 	0.31830 0.58230 0.29726 -0.27000
C 	C 	0.22280 0.83000 0.21879 0.33900
C 	C 	0.69050 0.29840 0.30068 0.26700
C 	C 	0.28250 0.24740 0.18509 -0.25700
C 	C 	0.63030 0.31450 0.39050 0.12100
C 	C 	0.83520 0.40850 0.57522 0.40200
C 	C 	0.77720 0.17000 0.78121 0.33200
C 	C 	0.60020 0.14840 0.23507 -0.33500
C 	C 	0.72280 0.67000 0.28121 0.33500
C 	C 	0.86970 0.81450 0.89050 0.12200
C 	C 	0.05420 0.99860 0.66770 -0.19300
C 	C 	0.10170 0.88230 0.28708 0.33600
C 	C 	0.08790 0.88620 0.34264 -0.24400
C 	C 	0.00530 0.36400 0.77543 -0.33500
C 	C 	0.61510 0.15030 0.92498 0.42100
C 	C 	0.29710 0.75030 0.14148 0.20200
C 	C 	0.62490 0.24280 0.21629 0.29500
C 	C 	0.75380 0.07510 0.79698 -0.32200
C 	C 	0.89830 0.11770 0.71292 0.28300
C 	C 	0.77190 0.04760 0.12206 0.06500
C 	C 	0.49070 0.55250 0.07688 0.36400
C 	C 	0.50530 0.13600 0.72457 -0.28200
C 	C 	0.38310 0.66780 0.66357 -0.25900
C 	C 	0.02100 0.40090 0.35177 -0.29900
C 	C 	0.64890 0.14390 0.59389 0.42500
C 	C 	0.78250 0.25260 0.31491 -0.25100
C 	C 	0.88490 0.65030 0.42498 0.42200
C 	C 	0.75800 0.88560 0.15960 0.10800
C 	C 	0.67560 0.15740 0.87564 -0.23300
C 	C 	0.21880 0.23570 0.09507 -0.18200
C 	C 	0.97900 0.59910 0.64823 -0.16500
C 	C 	0.79570 0.56720 0.34535 0.19700
C 	C 	0.70640 0.73350 0.86877 0.12100
C 	C 	0.62220 0.99240 0.66328 0.16600
C 	C 	0.55020 0.19440 0.13244 0.06400
C 	C 	0.72550 0.24080 0.46388 0.35300
C 	C 	0.70290 0.24970 0.85852 0.20200
C 	C 	0.05020 0.30560 0.36756 0.10600
C 	C 	0.39830 0.38230 0.78708 0.30800
C 	C 	0.35280 0.48310 0.29388 0.28000
C 	C 	0.13030 0.18550 0.10950 0.12200
C 	C 	0.50930 0.44750 0.92312 0.35800
C 	C 	0.59950 0.26760 0.16462 -0.22500
C 	C 	0.28120 0.73570 0.59507 -0.17300
C 	C 	0.11690 0.16780 0.16357 -0.26600
C 	C 	0.24310 0.74200 0.18838 -0.32800
C 	C 	0.52100 0.09910 0.14823 -0.22000
C 	C 	0.66480 0.90850 0.07522 0.38300
C 	C 	0.17560 0.34260 0.62436 -0.23800
C 	C 	0.14890 0.35610 0.90611 0.42200
C 	C 	0.47900 0.90090 0.85177 -0.24800
C 	C 	0.29570 0.93280 0.15465 0.19900
C 	C 	0.36970 0.68550 0.60950 0.12300
C 	C 	0.22550 0.25920 0.03612 0.35700
C 	C 	0.03980 0.93710 0.25509 -0.43500
C 	C 	0.87780 0.49240 0.16328 0.14200
C 	C 	0.42360 0.03310 0.28969 -0.32200
C 	C 	0.20290 0.25030 0.64148 0.20100
C 	C 	0.27450 0.75920 0.53612 0.35500
C 	C 	0.74620 0.57510 0.29698 -0.32400
C 	C 	0.73510 0.94980 0.11928 -0.10900
C 	C 	0.39980 0.85160 0.76493 -0.36300
C 	C 	0.33520 0.09150 0.92478 0.41600
C 	C 	0.46360 0.50190 0.22097 0.31700
C 	C 	0.25380 0.42490 0.70302 -0.32700
C 	C 	0.80950 0.79840 0.80068 0.26800
C 	C 	0.25690 0.24200 0.68838 -0.32600
C 	C 	0.89980 0.64840 0.73507 -0.32700
C 	C 	0.10850 0.40540 0.85349 -0.17500
C 	C 	0.81830 0.91770 0.20274 -0.20300
C 	C 	0.51810 0.21910 0.07821 0.28300
C 	C 	0.89150 0.59460 0.14651 -0.15700
C 	C 	0.51130 0.55410 0.13589 0.04700
C 	C 	0.96020 0.06290 0.74491 -0.30500
C 	C 	0.39150 0.90540 0.35349 -0.14600
C 	C 	0.70430 0.06720 0.84535 0.19500
C 	C 	0.94980 0.69440 0.63244 0.04400
C 	C 	0.57640 0.96690 0.71031 -0.27400
C 	C 	0.54870 0.07800 0.20055 0.27600
C 	C 	0.10020 0.35160 0.26493 -0.37100
C 	C 	0.40050 0.73240 0.83538 -0.24300
C 	C 	0.33430 0.41600 0.33403 -0.23800
C 	C 	0.77450 0.74080 0.96388 0.35100
C 	C 	0.38490 0.84970 0.07502 0.42000
C 	C 	0.98200 0.53800 0.23924 0.33000
C 	C 	0.11510 0.34970 0.57502 0.42100
C 	C 	0.74310 0.75800 0.31162 -0.32200
C 	C 	0.30950 0.70160 0.69932 0.26800
C 	C 	0.76490 0.44980 0.61928 -0.16600
C 	C 	0.37780 0.00760 0.33672 0.12600
C 	C 	0.27720 0.33000 0.71879 0.33600
C 	C 	0.75690 0.25800 0.81162 -0.32000
C 	C 	0.64720 0.51690 0.70612 0.27900
C 	C 	0.20430 0.43280 0.65465 0.19700
C 	C 	0.48870 0.44590 0.86411 0.05200
C 	C 	0.68170 0.41770 0.70274 -0.26900
C 	C 	0.99070 0.94750 0.42312 0.40400
C 	C 	0.91210 0.11380 0.65736 -0.21500
C 	C 	0.41210 0.38620 0.84264 -0.22900
C 	C 	0.25800 0.61440 0.34040 0.15600
C 	C 	0.55420 0.50140 0.83230 -0.24000
C 	C 	0.53640 0.49810 0.77903 0.31900
C 	C 	0.87510 0.74280 0.71629 0.29100
C 	C 	0.72810 0.54760 0.62206 0.13100
C 	C 	0.18170 0.08230 0.79726 -0.32600
C 	C 	0.85110 0.64390 0.09389 0.41800
C 	C 	0.71750 0.75260 0.81491 -0.24700
C 	C 	0.26490 0.05020 0.88072 -0.21600
C 	C 	0.83430 0.08400 0.16597 -0.19500
C 	C 	0.88310 0.83220 0.83643 -0.25100
C 	C 	0.24620 0.92490 0.20302 -0.32900
C 	C 	0.79360 0.23350 0.36877 0.12300
C 	C 	0.03640 0.00190 0.72097 0.23700
C 	C 	0.44980 0.80560 0.86756 0.08800
C 	C 	0.37510 0.75720 0.78371 0.31100
C 	C 	0.32440 0.84260 0.12436 -0.23600
C 	C 	0.71880 0.26430 0.40493 -0.17300
C 	C 	0.01800 0.46200 0.76076 0.31500
C 	C 	0.99470 0.63600 0.22457 -0.23700
C 	C 	0.01130 0.94590 0.36411 0.05100
C 	C 	0.48190 0.78090 0.92179 0.27200
C 	C 	0.53980 0.56290 0.24491 -0.36400
C 	C 	0.85280 0.01690 0.20612 0.23100
C 	C 	0.78120 0.76430 0.90493 -0.16300
C 	C 	0.95150 0.66460 0.17738 0.11400
C 	C 	0.19050 0.20160 0.19932 0.26700
C 	C 	0.60170 0.61770 0.21292 0.30600
C 	C 	0.09950 0.23240 0.33538 -0.25900
C 	C 	0.46020 0.43710 0.75509 -0.36600
C 	C 	0.45130 0.92200 0.79945 0.33100
C 	C 	0.94580 0.00140 0.33230 -0.29900
C 	C 	0.07640 0.53310 0.78969 -0.29800
C 	C 	0.00930 0.05250 0.57688 0.32100
C 	C 	0.44580 0.49860 0.16770 -0.23700
C 	C 	0.16480 0.59150 0.42478 0.40100
C 	C 	0.90050 0.76760 0.66462 -0.20800
C 	C 	0.01810 0.28090 0.42179 0.24200
C 	C 	0.29360 0.26650 0.13123 0.12600
C 	C 	0.27190 0.45240 0.37794 0.13200
C 	C 	0.20640 0.76650 0.63123 0.12500
O 	O 	0.40840 0.76450 0.05009 -0.46800
O 	O 	0.05960 0.91188 0.45211 -0.58600
O 	O 	0.67880 0.31580 0.24646 -0.30200
O 	O 	0.63387 0.81958 0.07404 -0.46300
O 	O 	0.41040 0.93480 0.05992 -0.45000
O 	O 	0.47050 0.69175 0.93631 -0.37400
O 	O 	0.13180 0.28280 0.91605 -0.32800
O 	O 	0.14040 0.52360 0.45818 -0.43000
O 	O 	0.97050 0.80825 0.56369 -0.37900
O 	O 	0.66160 0.27430 0.49437 -0.26400
O 	O 	0.86820 0.71720 0.08395 -0.33600
O 	O 	0.69490 0.68537 0.97465 -0.52100
O 	O 	0.44040 0.41188 0.95211 -0.55500
O 	O 	0.09520 0.02000 0.56188 -0.47900
O 	O 	0.17880 0.18420 0.25354 -0.31300
O 	O 	0.80510 0.18537 0.47465 -0.53900
O 	O 	0.90810 0.06120 0.24863 -0.33500
O 	O 	0.97890 0.35055 0.45376 -0.47000
O 	O 	0.36613 0.18042 0.92596 -0.46400
O 	O 	0.02950 0.19175 0.43631 -0.39100
O 	O 	0.40810 0.43880 0.25137 -0.31800
O 	O 	0.97370 0.48010 0.71395 -0.29600
O 	O 	0.40480 0.52000 0.06188 -0.48500
O 	O 	0.86613 0.31958 0.57404 -0.46000
O 	O 	0.08960 0.43480 0.55992 -0.45900
O 	O 	0.16160 0.22570 0.00563 -0.28500
O 	O 	0.90480 0.98000 0.43812 -0.46600
O 	O 	0.29450 0.93710 0.43167 -0.42600
O 	O 	0.55960 0.58812 0.04789 -0.57400
O 	O 	0.19490 0.81463 0.52535 -0.53800
O 	O 	0.52110 0.85055 0.95376 -0.47600
O 	O 	0.70550 0.06290 0.56833 -0.44100
O 	O 	0.17710 0.81540 0.26767 -0.32800
O 	O 	0.52950 0.30825 0.06369 -0.39500
O 	O 	0.30510 0.31463 0.02535 -0.55500
O 	O 	0.02630 0.51990 0.28605 -0.34100
O 	O 	0.59160 0.23550 0.94991 -0.45100
O 	O 	0.82290 0.18460 0.73233 -0.31500
O 	O 	0.59520 0.48000 0.93812 -0.46100
O 	O 	0.33840 0.72570 0.50563 -0.26200
O 	O 	0.94040 0.08812 0.54789 -0.54600
O 	O 	0.35960 0.02360 0.95818 -0.42500
O 	O 	0.83840 0.77430 0.99437 -0.23900
O 	O 	0.52630 0.98010 0.21395 -0.30500
O 	O 	0.79450 0.56290 0.06833 -0.43800
O 	O 	0.09190 0.93880 0.75137 -0.30500
O 	O 	0.02110 0.64945 0.54624 -0.52200
O 	O 	0.20550 0.43710 0.93167 -0.42800
O 	O 	0.63180 0.21720 0.58395 -0.33500
O 	O 	0.32120 0.68420 0.75354 -0.30700
O 	O 	0.47370 0.01990 0.78605 -0.33200
O 	O 	0.36820 0.78280 0.41605 -0.32900
O 	O 	0.13387 0.68042 0.42596 -0.46800
O 	O 	0.09160 0.26450 0.55009 -0.47000
O 	O 	0.58960 0.06520 0.94008 -0.45100
O 	O 	0.47890 0.14945 0.04624 -0.51200
O 	O 	0.67710 0.68460 0.23233 -0.32000
O 	O 	0.85960 0.47640 0.54182 -0.42000
O 	O 	0.64040 0.97640 0.04182 -0.41800
O 	O 	0.82120 0.81580 0.74646 -0.29600
O 	O 	0.91040 0.56520 0.44008 -0.44800
O 	O 	0.90840 0.73550 0.44991 -0.45100
O 	O 	0.32290 0.31540 0.76767 -0.32100
O 	O 	0.59190 0.56120 0.74863 -0.31800
