data_crystal

_cell_length_a 9.51500
_cell_length_b 17.54660
_cell_length_c 17.54660
_cell_angle_alpha 103.60400
_cell_angle_beta  102.77300
_cell_angle_gamma 77.22660

_symmetry_space_group_name_	'P 1'
_symmetry_space_group_name_H-M	'P 1'

loop_
_symmetry_equiv_pos_as_xyz
  x,y,z

loop_
_atom_site_label
_atom_site_type_symbol
_atom_site_fract_x
_atom_site_fract_y
_atom_site_fract_z
_atom_site_charge
Mn	Mn	0.06499 0.82066 0.31296 1.29000
Mn	Mn	0.50000 0.50000 -0.00000 1.22900
Mn	Mn	0.93501 0.17934 0.68704 1.30000
Mn	Mn	0.56499 0.68704 0.17934 1.29500
Mn	Mn	0.00000 0.00000 0.50000 1.22100
Mn	Mn	0.43501 0.31296 0.82066 1.29500
H 	H 	0.93380 0.83730 0.63110 0.13600
H 	H 	0.63090 0.68220 0.58960 0.15000
H 	H 	0.17690 0.84500 0.60600 -0.03300
H 	H 	0.36910 0.31780 0.41040 0.14700
H 	H 	0.67920 0.03760 0.91020 0.20000
H 	H 	0.81510 0.28320 0.20640 0.16600
H 	H 	0.01810 0.47740 0.72740 0.00700
H 	H 	0.68490 0.20640 0.28320 0.13900
H 	H 	0.81940 0.14330 0.06170 0.14600
H 	H 	0.43380 0.36890 0.16270 0.15600
H 	H 	0.31940 0.93830 0.85670 0.14900
H 	H 	0.48190 0.72740 0.47740 -0.01700
H 	H 	0.07350 0.21000 0.15860 0.19600
H 	H 	0.82310 0.15500 0.39400 -0.02600
H 	H 	0.32310 0.60600 0.84500 -0.00700
H 	H 	0.19700 0.03450 0.78350 -0.04700
H 	H 	0.42650 0.15860 0.21000 0.20100
H 	H 	0.08230 0.98480 0.17800 0.19700
H 	H 	0.44430 0.86440 0.16000 -0.05900
H 	H 	0.31510 0.79360 0.71680 0.13700
H 	H 	0.18490 0.71680 0.79360 0.11100
H 	H 	0.06620 0.16270 0.36890 0.15400
H 	H 	0.57350 0.84140 0.79000 0.18000
H 	H 	0.68060 0.06170 0.14330 0.17200
H 	H 	0.30300 0.78350 0.03450 -0.06100
H 	H 	0.80300 0.96550 0.21650 -0.05300
H 	H 	0.56620 0.63110 0.83730 0.13300
H 	H 	0.51810 0.27260 0.52260 -0.02000
H 	H 	0.98190 0.52260 0.27260 -0.04600
H 	H 	0.05570 0.16000 0.86440 -0.03800
H 	H 	0.55570 0.13560 0.84000 -0.06800
H 	H 	0.67690 0.39400 0.15500 -0.05300
H 	H 	0.69700 0.21650 0.96550 -0.03700
H 	H 	0.94430 0.84000 0.13560 -0.08800
H 	H 	0.32080 0.96240 0.08980 0.17900
H 	H 	0.17920 0.08980 0.96240 0.15700
H 	H 	0.41770 0.17800 0.98480 0.20300
H 	H 	0.13090 0.41040 0.31780 0.18800
H 	H 	0.92650 0.79000 0.84140 0.18400
H 	H 	0.18060 0.85670 0.93830 0.17100
H 	H 	0.58230 0.82200 0.01520 0.09200
H 	H 	0.91770 0.01520 0.82200 0.10000
H 	H 	0.86910 0.58960 0.68220 0.11200
H 	H 	0.82080 0.91020 0.03760 0.21900
C 	C 	0.63320 0.02230 0.14770 -0.41300
C 	C 	0.92540 0.93630 0.71910 0.04600
C 	C 	0.15000 0.66900 0.78080 -0.23400
C 	C 	0.77750 0.18630 0.54310 0.38500
C 	C 	0.42540 0.28090 0.06370 0.14200
C 	C 	0.18380 0.53040 0.79060 -0.18200
C 	C 	0.26630 0.81100 0.60200 0.17200
C 	C 	0.78140 0.24080 0.84160 0.49000
C 	C 	0.43020 0.33010 0.00450 0.27400
C 	C 	0.23370 0.60200 0.81100 0.11300
C 	C 	0.44920 0.74190 0.52590 0.17300
C 	C 	0.57460 0.71910 0.93630 0.04000
C 	C 	0.13320 0.85230 0.97770 -0.38400
C 	C 	0.93250 0.80270 0.73210 0.32700
C 	C 	0.48900 0.02130 0.11070 0.34800
C 	C 	0.98280 0.33670 0.26750 0.41300
C 	C 	0.53860 0.71300 0.59260 -0.28500
C 	C 	0.22250 0.81370 0.45690 0.38600
C 	C 	0.70650 0.96450 0.19110 0.29200
C 	C 	0.85000 0.33100 0.21920 -0.37800
C 	C 	0.65000 0.21920 0.33100 -0.30400
C 	C 	0.41760 0.96280 0.11500 -0.33200
C 	C 	0.86680 0.14770 0.02230 -0.33200
C 	C 	0.92300 0.90660 0.84420 0.31200
C 	C 	0.29350 0.03550 0.80890 0.19200
C 	C 	0.96140 0.59260 0.71300 -0.16800
C 	C 	0.63590 0.90480 0.19700 -0.32000
C 	C 	0.00840 0.15760 0.90460 0.16800
C 	C 	0.76630 0.39800 0.18900 0.23400
C 	C 	0.43110 0.31490 0.14470 -0.31800
C 	C 	0.13590 0.80300 0.09520 -0.36900
C 	C 	0.48280 0.73250 0.66330 0.30900
C 	C 	0.72250 0.54310 0.18630 0.40800
C 	C 	0.94920 0.47410 0.25810 0.27100
C 	C 	0.93110 0.85530 0.68510 -0.23800
C 	C 	0.05080 0.52590 0.74190 0.08000
C 	C 	0.01720 0.66330 0.73250 0.21500
C 	C 	0.31620 0.79060 0.53040 -0.23600
C 	C 	0.50840 0.09540 0.84240 0.26300
C 	C 	0.92140 0.96150 0.79870 -0.17500
C 	C 	0.42300 0.15580 0.09340 0.39100
C 	C 	0.03860 0.40740 0.28700 -0.41200
C 	C 	0.58240 0.03720 0.88500 -0.41500
C 	C 	0.08240 0.11500 0.96280 -0.27100
C 	C 	0.01100 0.11070 0.02130 0.28000
C 	C 	0.06890 0.14470 0.31490 -0.32100
C 	C 	0.56980 0.66990 0.99550 0.39500
C 	C 	0.35000 0.78080 0.66900 -0.30300
C 	C 	0.56890 0.68510 0.85530 -0.24000
C 	C 	0.51720 0.26750 0.33670 0.31200
C 	C 	0.42720 0.18940 0.17360 -0.45500
C 	C 	0.07280 0.17360 0.18940 -0.45800
C 	C 	0.49160 0.90460 0.15760 0.24700
C 	C 	0.36410 0.09520 0.80300 -0.31100
C 	C 	0.06750 0.19730 0.26790 0.38500
C 	C 	0.46140 0.28700 0.40740 -0.28700
C 	C 	0.57700 0.84420 0.90660 0.30300
C 	C 	0.81620 0.46960 0.20940 -0.29500
C 	C 	0.57280 0.81060 0.82640 -0.38300
C 	C 	0.91760 0.88500 0.03720 -0.46700
C 	C 	0.57860 0.79870 0.96150 -0.16900
C 	C 	0.07860 0.03850 0.20130 -0.37600
C 	C 	0.98900 0.88930 0.97870 0.45800
C 	C 	0.06980 0.00450 0.33010 0.27500
C 	C 	0.51100 0.97870 0.88930 0.40000
C 	C 	0.28140 0.15840 0.75920 0.50500
C 	C 	0.68380 0.20940 0.46960 -0.23700
C 	C 	0.07700 0.09340 0.15580 0.38200
C 	C 	0.36680 0.97770 0.85230 -0.31500
C 	C 	0.07460 0.06370 0.28090 0.13800
C 	C 	0.71860 0.84160 0.24080 0.51000
C 	C 	0.21860 0.75920 0.15840 0.52300
C 	C 	0.42140 0.20130 0.03850 -0.37900
C 	C 	0.43250 0.26790 0.19730 0.38200
C 	C 	0.73370 0.18900 0.39800 0.17000
C 	C 	0.56750 0.73210 0.80270 0.32900
C 	C 	0.20650 0.80890 0.03550 0.24400
C 	C 	0.99160 0.84240 0.09540 0.33700
C 	C 	0.92720 0.82640 0.81060 -0.38200
C 	C 	0.93020 0.99550 0.66990 0.39200
C 	C 	0.55080 0.25810 0.47410 0.17200
C 	C 	0.86410 0.19700 0.90480 -0.25700
C 	C 	0.27750 0.45690 0.81370 0.36600
C 	C 	0.79350 0.19110 0.96450 0.23300
O 	O 	0.34610 0.72560 0.15180 -0.53200
O 	O 	0.34140 0.21447 0.75613 -0.49600
O 	O 	0.15390 0.15180 0.72560 -0.53700
O 	O 	0.89640 0.13655 0.54105 -0.52000
O 	O 	0.06890 0.27624 0.30576 -0.36500
O 	O 	0.76230 0.60829 0.21891 -0.44700
O 	O 	0.91560 0.93632 0.92368 -0.32200
O 	O 	0.39640 0.45895 0.86345 -0.51000
O 	O 	0.09210 0.93215 0.29745 -0.41500
O 	O 	0.65860 0.78553 0.24387 -0.48900
O 	O 	0.43110 0.30576 0.27624 -0.33300
O 	O 	0.15860 0.75613 0.21447 -0.50500
O 	O 	0.90790 0.06785 0.70255 -0.47300
O 	O 	0.58440 0.92368 0.93632 -0.31200
O 	O 	0.73770 0.21891 0.60829 -0.44300
O 	O 	0.10360 0.86345 0.45895 -0.52100
O 	O 	0.26230 0.78109 0.39171 -0.44300
O 	O 	0.40790 0.29745 0.93215 -0.41200
O 	O 	0.95280 0.96816 0.60044 -0.46600
O 	O 	0.56890 0.69424 0.72376 -0.31700
O 	O 	0.08440 0.06368 0.07632 -0.34800
O 	O 	0.59210 0.70255 0.06785 -0.47800
O 	O 	0.23770 0.39171 0.78109 -0.44000
O 	O 	0.84610 0.84820 0.27440 -0.51300
O 	O 	0.54720 0.60044 0.96816 -0.47600
O 	O 	0.04720 0.03184 0.39956 -0.47700
O 	O 	0.65390 0.27440 0.84820 -0.51700
O 	O 	0.93110 0.72376 0.69424 -0.28700
O 	O 	0.41560 0.07632 0.06368 -0.36000
O 	O 	0.84140 0.24387 0.78553 -0.48100
O 	O 	0.45280 0.39956 0.03184 -0.47100
O 	O 	0.60360 0.54105 0.13655 -0.53400
