data_crystal

_cell_length_a 9.52370
_cell_length_b 17.67270
_cell_length_c 17.67270
_cell_angle_alpha 103.47200
_cell_angle_beta  103.79900
_cell_angle_gamma 76.20080

_symmetry_space_group_name_	'P 1'
_symmetry_space_group_name_H-M	'P 1'

loop_
_symmetry_equiv_pos_as_xyz
  x,y,z

loop_
_atom_site_label
_atom_site_type_symbol
_atom_site_fract_x
_atom_site_fract_y
_atom_site_fract_z
_atom_site_charge
Mn	Mn	0.93578 0.67770 0.18726 1.30200
Mn	Mn	-0.00000 0.50000 -0.00000 1.21900
Mn	Mn	0.43578 0.81274 0.32230 1.30000
Mn	Mn	0.50000 0.00000 0.50000 1.22800
Mn	Mn	0.56422 0.18726 0.67770 1.30000
Mn	Mn	0.06422 0.32230 0.81274 1.29700
H 	H 	0.93930 0.33910 0.12870 0.14100
H 	H 	0.03100 0.97910 0.21450 0.06900
H 	H 	0.18810 0.21790 0.29690 0.10800
H 	H 	0.67520 0.89180 0.65180 -0.05700
H 	H 	0.41580 0.68290 0.48550 0.15300
H 	H 	0.82480 0.65180 0.89180 -0.03500
H 	H 	0.18180 0.35230 0.43610 0.19900
H 	H 	0.68810 0.70310 0.78210 0.15600
H 	H 	0.81190 0.78210 0.70310 0.17800
H 	H 	0.06940 0.70820 0.66200 0.18700
H 	H 	0.68180 0.56390 0.64770 0.17600
H 	H 	0.96900 0.02090 0.78550 -0.10900
H 	H 	0.69840 0.71980 0.46740 -0.04600
H 	H 	0.88610 0.09060 0.17000 0.08300
H 	H 	0.61390 0.17000 0.09060 0.13000
H 	H 	0.08420 0.48550 0.68290 0.14800
H 	H 	0.38610 0.83000 0.90940 0.19200
H 	H 	0.30160 0.28020 0.53260 -0.09100
H 	H 	0.32230 0.46630 0.58350 0.19800
H 	H 	0.58420 0.31710 0.51450 0.15000
H 	H 	0.11390 0.90940 0.83000 0.22400
H 	H 	0.06070 0.66090 0.87130 0.15300
H 	H 	0.93060 0.29180 0.33800 0.19100
H 	H 	0.43930 0.87130 0.66090 0.15500
H 	H 	0.55630 0.63220 0.34580 -0.07400
H 	H 	0.17520 0.34820 0.10820 -0.05100
H 	H 	0.82230 0.41650 0.53370 0.22300
H 	H 	0.46900 0.21450 0.97910 0.03600
H 	H 	0.43060 0.66200 0.70820 0.19100
H 	H 	0.19840 0.53260 0.28020 -0.07500
H 	H 	0.56940 0.33800 0.29180 0.18700
H 	H 	0.44370 0.36780 0.65420 -0.07000
H 	H 	0.31190 0.29690 0.21790 0.14000
H 	H 	0.56070 0.12870 0.33910 0.13800
H 	H 	0.31820 0.43610 0.35230 0.17300
H 	H 	0.67770 0.53370 0.41650 0.20200
H 	H 	0.17770 0.58350 0.46630 0.17800
H 	H 	0.80160 0.46740 0.71980 -0.06200
H 	H 	0.91580 0.51450 0.31710 0.15500
H 	H 	0.94370 0.34580 0.63220 -0.09500
H 	H 	0.32480 0.10820 0.34820 -0.02000
H 	H 	0.53100 0.78550 0.02090 -0.09200
H 	H 	0.05630 0.65420 0.36780 -0.05000
H 	H 	0.81820 0.64770 0.56390 0.15200
C 	C 	0.63400 0.52447 0.64973 -0.40900
C 	C 	0.41870 0.46608 0.61092 -0.39600
C 	C 	0.20590 0.30821 0.53339 0.35000
C 	C 	0.78320 0.73643 0.33997 0.50600
C 	C 	0.57490 0.34111 0.40749 0.35200
C 	C 	0.00910 0.61033 0.52507 0.33900
C 	C 	0.50830 0.59268 0.34732 0.28800
C 	C 	0.71330 0.04193 0.68627 0.37300
C 	C 	0.47570 0.79521 0.90639 -0.38000
C 	C 	0.07000 0.67195 0.69265 -0.42300
C 	C 	0.57380 0.16602 0.49538 0.33800
C 	C 	0.86370 0.69281 0.40579 -0.27600
C 	C 	0.71680 0.33997 0.73643 0.52500
C 	C 	0.42510 0.65889 0.59251 0.35800
C 	C 	0.02430 0.90639 0.79521 -0.47800
C 	C 	0.29410 0.53339 0.30821 0.29100
C 	C 	0.13630 0.30719 0.59421 -0.40500
C 	C 	0.57470 0.21518 0.43582 0.09200
C 	C 	0.43400 0.77144 0.69636 0.35500
C 	C 	0.99090 0.38967 0.47493 0.46800
C 	C 	0.91870 0.38908 0.53392 -0.46200
C 	C 	0.93000 0.32805 0.30735 -0.40900
C 	C 	0.86600 0.64973 0.52447 -0.33400
C 	C 	0.49090 0.52507 0.61033 0.40000
C 	C 	0.92530 0.43582 0.21518 0.09500
C 	C 	0.47590 0.22934 0.16426 0.31000
C 	C 	0.84460 0.82989 0.71831 -0.41000
C 	C 	0.56600 0.22856 0.30364 0.34400
C 	C 	0.63630 0.40579 0.69281 -0.33400
C 	C 	0.42530 0.78482 0.56418 0.10300
C 	C 	0.93380 0.35673 0.18187 -0.26900
C 	C 	0.93400 0.30364 0.22856 0.33900
C 	C 	0.28670 0.95807 0.31373 0.38900
C 	C 	0.50910 0.47493 0.38967 0.40400
C 	C 	0.15540 0.17011 0.28169 -0.23300
C 	C 	0.52430 0.20479 0.09361 -0.26900
C 	C 	0.19280 0.03139 0.28681 -0.18900
C 	C 	0.06600 0.69636 0.77144 0.35700
C 	C 	0.00830 0.65268 0.40732 0.20800
C 	C 	0.49170 0.40732 0.65268 0.28200
C 	C 	0.97570 0.09361 0.20479 -0.12500
C 	C 	0.97590 0.83574 0.77066 0.44800
C 	C 	0.36370 0.59421 0.30719 -0.34500
C 	C 	0.58130 0.53392 0.38908 -0.40300
C 	C 	0.21330 0.31373 0.95807 0.41400
C 	C 	0.42120 0.70533 0.53887 -0.28700
C 	C 	0.56620 0.18187 0.35673 -0.27300
C 	C 	0.76220 0.89606 0.68874 0.26400
C 	C 	0.57880 0.29467 0.46113 -0.27900
C 	C 	0.07380 0.50462 0.83398 0.33100
C 	C 	0.28320 0.66003 0.26357 0.52900
C 	C 	0.30720 0.28681 0.03139 -0.25700
C 	C 	0.26220 0.31126 0.10394 0.18400
C 	C 	0.07470 0.56418 0.78482 0.10000
C 	C 	0.13400 0.35027 0.47553 -0.49400
C 	C 	0.02410 0.16426 0.22934 0.19800
C 	C 	0.92620 0.49538 0.16602 0.33800
C 	C 	0.21680 0.26357 0.66003 0.54800
C 	C 	0.08130 0.61092 0.46608 -0.34100
C 	C 	0.34460 0.28169 0.17011 -0.31900
C 	C 	0.42620 0.83398 0.50462 0.33100
C 	C 	0.80720 0.96861 0.71319 -0.28600
C 	C 	0.99170 0.34732 0.59268 0.36500
C 	C 	0.57000 0.30735 0.32805 -0.41300
C 	C 	0.92510 0.40749 0.34111 0.36000
C 	C 	0.23780 0.10394 0.31126 0.10900
C 	C 	0.65540 0.71831 0.82989 -0.35100
C 	C 	0.07490 0.59251 0.65889 0.35100
C 	C 	0.93840 0.97255 0.76745 0.38500
C 	C 	0.79410 0.69179 0.46661 0.22700
C 	C 	0.52410 0.77066 0.83574 0.37000
C 	C 	0.06160 0.02745 0.23255 -0.02100
C 	C 	0.07880 0.53887 0.70533 -0.28400
C 	C 	0.73780 0.68874 0.89606 0.21300
C 	C 	0.92120 0.46113 0.29467 -0.28100
C 	C 	0.43000 0.69265 0.67195 -0.42200
C 	C 	0.78670 0.68627 0.04193 0.35500
C 	C 	0.36600 0.47553 0.35027 -0.41500
C 	C 	0.70590 0.46661 0.69179 0.28500
C 	C 	0.43840 0.23255 0.02745 0.09400
C 	C 	0.06620 0.64327 0.81813 -0.28600
C 	C 	0.56160 0.76745 0.97255 0.31100
C 	C 	0.69280 0.71319 0.96861 -0.24300
C 	C 	0.43380 0.81813 0.64327 -0.28400
O 	O 	0.41170 0.80020 0.43368 -0.44800
O 	O 	0.09470 0.36460 0.95954 -0.51400
O 	O 	0.40530 0.95954 0.36460 -0.50300
O 	O 	0.91650 0.43630 0.41936 -0.36100
O 	O 	0.43960 0.90445 0.53155 -0.45600
O 	O 	0.84530 0.34470 0.77158 -0.51900
O 	O 	0.74390 0.71778 0.10638 -0.44500
O 	O 	0.56040 0.09555 0.46845 -0.48300
O 	O 	0.43570 0.80839 0.77525 -0.33300
O 	O 	0.84470 0.73805 0.28603 -0.49000
O 	O 	0.41650 0.58064 0.56370 -0.34900
O 	O 	0.08830 0.43368 0.80020 -0.45000
O 	O 	0.15470 0.65530 0.22842 -0.54300
O 	O 	0.06430 0.77525 0.80839 -0.35800
O 	O 	0.24390 0.89362 0.28222 -0.44600
O 	O 	0.56430 0.19161 0.22475 -0.32700
O 	O 	0.34470 0.71397 0.26195 -0.50700
O 	O 	0.75610 0.10638 0.71778 -0.44700
O 	O 	0.08350 0.56370 0.58064 -0.33800
O 	O 	0.25610 0.28222 0.89362 -0.45000
O 	O 	0.93570 0.22475 0.19161 -0.29200
O 	O 	0.65530 0.28603 0.73805 -0.49800
O 	O 	0.91170 0.56632 0.19980 -0.44800
O 	O 	0.34530 0.22842 0.65530 -0.53900
O 	O 	0.90530 0.63540 0.04046 -0.52300
O 	O 	0.65470 0.77158 0.34470 -0.52300
O 	O 	0.06040 0.53155 0.90445 -0.45900
O 	O 	0.58350 0.41936 0.43630 -0.35000
O 	O 	0.59470 0.04046 0.63540 -0.53500
O 	O 	0.93960 0.46845 0.09555 -0.47500
O 	O 	0.58830 0.19980 0.56632 -0.45200
O 	O 	0.15530 0.26195 0.71397 -0.51500
