data_crystal

_cell_length_a 12.54970
_cell_length_b 17.74720
_cell_length_c 21.78300
_cell_angle_alpha 90.00000
_cell_angle_beta  90.00000
_cell_angle_gamma 97.50700

_symmetry_space_group_name_	'P 1'
_symmetry_space_group_name_H-M	'P 1'

loop_
_symmetry_equiv_pos_as_xyz
  x,y,z

loop_
_atom_site_label
_atom_site_type_symbol
_atom_site_fract_x
_atom_site_fract_y
_atom_site_fract_z
_atom_site_charge
Mn	Mn	0.82768 0.46729 0.84599 1.29000
Mn	Mn	0.09004 0.03984 0.59418 1.32100
Mn	Mn	0.17232 0.03271 0.34599 1.28900
Mn	Mn	0.47253 0.02939 0.62938 1.25800
Mn	Mn	0.90996 0.46016 0.09418 1.32100
Mn	Mn	0.17232 0.53271 0.15401 1.28900
Mn	Mn	0.90996 0.96016 0.40582 1.32000
Mn	Mn	0.47253 0.52939 0.87062 1.25700
Mn	Mn	0.09004 0.53984 0.90582 1.32100
Mn	Mn	0.82768 0.96729 0.65401 1.28800
Mn	Mn	0.52747 0.97061 0.37062 1.25700
Mn	Mn	0.52747 0.47061 0.12938 1.25700
H 	H 	0.19420 0.22530 0.48480 -0.02500
H 	H 	0.21280 0.97180 0.78710 0.12900
H 	H 	0.08890 0.32170 0.89720 -0.04700
H 	H 	0.21280 0.47180 0.71290 0.12800
H 	H 	0.33900 0.12990 0.97440 0.17500
H 	H 	0.89080 0.30580 0.39690 0.15500
H 	H 	0.65340 0.49840 0.52700 0.20200
H 	H 	0.03060 0.61870 0.43580 0.17100
H 	H 	0.56220 0.10240 0.06780 0.17600
H 	H 	0.56220 0.60240 0.43220 0.17600
H 	H 	0.78720 0.52820 0.28710 0.12800
H 	H 	0.91110 0.17830 0.39720 -0.04800
H 	H 	0.10920 0.19420 0.89690 0.15600
H 	H 	0.68100 0.74330 0.02720 -0.03600
H 	H 	0.43780 0.89760 0.93220 0.17600
H 	H 	0.29240 0.80730 0.36690 -0.04000
H 	H 	0.21310 0.43350 0.93510 0.24500
H 	H 	0.08890 0.82170 0.60280 -0.04800
H 	H 	0.31900 0.25670 0.97280 -0.03600
H 	H 	0.85020 0.97490 0.03830 0.19900
H 	H 	0.24130 0.55510 0.30610 0.11700
H 	H 	0.16510 0.22230 0.64020 -0.03500
H 	H 	0.62620 0.17850 0.89370 0.16400
H 	H 	0.50320 0.56000 0.67740 0.13800
H 	H 	0.00930 0.25850 0.57700 -0.02200
H 	H 	0.31900 0.75670 0.52720 -0.03500
H 	H 	0.49680 0.44000 0.32260 0.13800
H 	H 	0.85020 0.47490 0.46170 0.19900
H 	H 	0.83490 0.27770 0.14020 -0.03500
H 	H 	0.75870 0.94490 0.80610 0.11700
H 	H 	0.34230 0.57820 0.08610 0.25900
H 	H 	0.17910 0.35380 0.47850 0.16100
H 	H 	0.59600 0.30310 0.88500 -0.05200
H 	H 	0.34230 0.07820 0.41390 0.25900
H 	H 	0.83490 0.77770 0.35980 -0.03500
H 	H 	0.78690 0.56650 0.06490 0.24500
H 	H 	0.14480 0.34950 0.64080 0.15500
H 	H 	0.89080 0.80580 0.10310 0.15600
H 	H 	0.24130 0.05510 0.19390 0.11700
H 	H 	0.37380 0.32150 0.39370 0.16400
H 	H 	0.34660 0.00160 0.02700 0.20300
H 	H 	0.14980 0.02510 0.96170 0.19900
H 	H 	0.65770 0.42180 0.91390 0.25900
H 	H 	0.46040 0.77090 0.93030 -0.03500
H 	H 	0.66820 0.31580 0.62010 0.15400
H 	H 	0.46040 0.27090 0.56970 -0.03500
H 	H 	0.53960 0.22910 0.06970 -0.03500
H 	H 	0.50320 0.06000 0.82260 0.13800
H 	H 	0.85520 0.15050 0.14080 0.15600
H 	H 	0.70760 0.19270 0.63310 -0.04000
H 	H 	0.05540 0.43670 0.32700 0.14500
H 	H 	0.53960 0.72910 0.43030 -0.03500
H 	H 	0.33900 0.62990 0.52560 0.17500
H 	H 	0.68100 0.24330 0.47280 -0.03500
H 	H 	0.82090 0.64620 0.52150 0.16100
H 	H 	0.03060 0.11870 0.06420 0.16700
H 	H 	0.91110 0.67830 0.10280 -0.04700
H 	H 	0.96940 0.38130 0.56420 0.17100
H 	H 	0.33180 0.18420 0.12010 0.15300
H 	H 	0.19420 0.72530 0.01520 -0.02500
H 	H 	0.00930 0.75850 0.92300 -0.01600
H 	H 	0.43780 0.39760 0.56780 0.17600
H 	H 	0.16510 0.72230 0.85980 -0.03500
H 	H 	0.05540 0.93670 0.17300 0.15200
H 	H 	0.66100 0.87010 0.02560 0.17500
H 	H 	0.78720 0.02820 0.21290 0.12900
H 	H 	0.94460 0.56330 0.67300 0.14500
H 	H 	0.99070 0.74150 0.42300 -0.02200
H 	H 	0.37380 0.82150 0.10630 0.16400
H 	H 	0.99070 0.24150 0.07700 -0.01600
H 	H 	0.21310 0.93350 0.56490 0.24400
H 	H 	0.65770 0.92180 0.58610 0.25900
H 	H 	0.14480 0.84950 0.85920 0.15600
H 	H 	0.40400 0.69690 0.11500 -0.05200
H 	H 	0.70760 0.69270 0.86690 -0.03900
H 	H 	0.94460 0.06330 0.82700 0.15200
H 	H 	0.66100 0.37010 0.47440 0.17500
H 	H 	0.10920 0.69420 0.60310 0.15500
H 	H 	0.59600 0.80310 0.61500 -0.05200
H 	H 	0.14980 0.52510 0.53830 0.19900
H 	H 	0.66820 0.81580 0.87990 0.15300
H 	H 	0.40400 0.19690 0.38500 -0.05200
H 	H 	0.29240 0.30730 0.13310 -0.03900
H 	H 	0.65340 0.99840 0.97300 0.20300
H 	H 	0.75870 0.44490 0.69390 0.11700
H 	H 	0.96940 0.88130 0.93580 0.16700
H 	H 	0.85520 0.65050 0.35920 0.15500
H 	H 	0.34660 0.50160 0.47300 0.20200
H 	H 	0.33180 0.68420 0.37990 0.15400
H 	H 	0.82090 0.14620 0.97850 0.16200
H 	H 	0.80580 0.77470 0.51520 -0.02500
H 	H 	0.17910 0.85380 0.02150 0.16200
H 	H 	0.80580 0.27470 0.98480 -0.02500
H 	H 	0.49680 0.94000 0.17740 0.13800
H 	H 	0.78690 0.06650 0.43510 0.24400
H 	H 	0.62620 0.67850 0.60630 0.16400
C 	C 	0.23950 0.26980 0.11880 0.20300
C 	C 	0.13840 0.28840 0.10500 -0.22500
C 	C 	0.18510 0.14090 0.09160 0.33500
C 	C 	0.62360 0.01100 0.73410 0.35000
C 	C 	0.62040 0.75930 0.04490 0.23900
C 	C 	0.38310 0.36200 0.58300 -0.34000
C 	C 	0.68550 0.76760 0.39500 -0.27200
C 	C 	0.43770 0.37440 0.92400 0.41600
C 	C 	0.73670 0.30420 0.61150 -0.34300
C 	C 	0.45340 0.29290 0.92730 -0.27900
C 	C 	0.86160 0.71160 0.89500 -0.22500
C 	C 	0.07340 0.01620 0.79740 0.09100
C 	C 	0.96760 0.65920 0.56120 0.32700
C 	C 	0.13370 0.74130 0.03310 0.20000
C 	C 	0.45520 0.23170 0.40420 0.24700
C 	C 	0.91700 0.84310 0.92200 -0.31600
C 	C 	0.71130 0.46790 0.66970 -0.25800
C 	C 	0.91700 0.34310 0.57800 -0.32300
C 	C 	0.64720 0.99990 0.93050 -0.39600
C 	C 	0.05220 0.18780 0.44310 -0.26900
C 	C 	0.43720 0.30640 0.40850 -0.37100
C 	C 	0.96180 0.98780 0.26820 0.30100
C 	C 	0.68550 0.26760 0.10500 -0.27200
C 	C 	0.20790 0.83380 0.87390 -0.34800
C 	C 	0.79210 0.16620 0.12610 -0.34800
C 	C 	0.36790 0.49340 0.30380 0.06800
C 	C 	0.28970 0.88600 0.89550 0.34300
C 	C 	0.96130 0.44940 0.39990 0.33100
C 	C 	0.38310 0.86200 0.91700 -0.34000
C 	C 	0.56990 0.03630 0.90370 0.34700
C 	C 	0.43770 0.87440 0.57600 0.41600
C 	C 	0.73670 0.80420 0.88850 -0.34000
C 	C 	0.13030 0.52250 0.57950 -0.37800
C 	C 	0.04840 0.21060 0.91400 -0.34000
C 	C 	0.36790 0.99340 0.19620 0.07000
C 	C 	0.64720 0.49990 0.56950 -0.39500
C 	C 	0.12430 0.81800 0.03610 -0.32200
C 	C 	0.51430 0.35790 0.43490 0.36400
C 	C 	0.18510 0.64090 0.40840 0.33800
C 	C 	0.76050 0.23020 0.61880 0.20700
C 	C 	0.03870 0.05060 0.89990 0.33100
C 	C 	0.62040 0.25930 0.45510 0.23800
C 	C 	0.61690 0.13800 0.08300 -0.34000
C 	C 	0.56230 0.62560 0.07600 0.41600
C 	C 	0.03820 0.51220 0.76820 0.30800
C 	C 	0.86630 0.25870 0.96690 0.20000
C 	C 	0.71640 0.46530 0.60640 0.33000
C 	C 	0.81490 0.35910 0.59160 0.33800
C 	C 	0.71640 0.96530 0.89360 0.33000
C 	C 	0.95160 0.78940 0.08600 -0.34000
C 	C 	0.95160 0.28940 0.41400 -0.33400
C 	C 	0.56280 0.19360 0.90850 -0.37100
C 	C 	0.22080 0.25770 0.62590 0.22100
C 	C 	0.55910 0.53800 0.65960 -0.26600
C 	C 	0.62360 0.51100 0.76590 0.34900
C 	C 	0.67560 0.85060 0.39370 0.47300
C 	C 	0.60350 0.71390 0.41640 0.22500
C 	C 	0.81490 0.85910 0.90840 0.33500
C 	C 	0.76050 0.73020 0.88120 0.20300
C 	C 	0.61690 0.63800 0.41700 -0.34000
C 	C 	0.60760 0.83490 0.04240 -0.35700
C 	C 	0.71030 0.11400 0.10450 0.34300
C 	C 	0.28360 0.03470 0.10640 0.33000
C 	C 	0.55910 0.03800 0.84040 -0.26700
C 	C 	0.94030 0.76950 0.91470 0.18600
C 	C 	0.67560 0.35060 0.10630 0.47300
C 	C 	0.48570 0.64210 0.56510 0.36400
C 	C 	0.96180 0.48780 0.23180 0.30800
C 	C 	0.86630 0.75870 0.53310 0.20100
C 	C 	0.31450 0.23240 0.60500 -0.27200
C 	C 	0.44090 0.96200 0.15960 -0.26700
C 	C 	0.60760 0.33490 0.45760 -0.35600
C 	C 	0.32440 0.14940 0.60630 0.47300
C 	C 	0.32440 0.64940 0.89370 0.47300
C 	C 	0.79210 0.66620 0.37390 -0.34800
C 	C 	0.22080 0.75770 0.87410 0.22100
C 	C 	0.56230 0.12560 0.42400 0.41600
C 	C 	0.37960 0.74070 0.54490 0.23800
C 	C 	0.23950 0.76980 0.38120 0.20700
C 	C 	0.99180 0.95370 0.16050 -0.28400
C 	C 	0.54660 0.20710 0.42730 -0.27800
C 	C 	0.43010 0.96370 0.09630 0.34700
C 	C 	0.05220 0.68780 0.05690 -0.26300
C 	C 	0.08300 0.15690 0.07800 -0.31600
C 	C 	0.39650 0.78610 0.91640 0.22600
C 	C 	0.39240 0.16510 0.95760 -0.35700
C 	C 	0.28970 0.38600 0.60450 0.34200
C 	C 	0.05700 0.10440 0.45030 0.45100
C 	C 	0.86970 0.47750 0.42050 -0.37800
C 	C 	0.26330 0.19580 0.11150 -0.34000
C 	C 	0.16720 0.98970 0.81570 -0.26600
C 	C 	0.35280 0.00010 0.06950 -0.39600
C 	C 	0.54480 0.76830 0.59580 0.24700
C 	C 	0.05970 0.23050 0.08530 0.18600
C 	C 	0.77920 0.74230 0.37410 0.22100
C 	C 	0.39650 0.28610 0.58360 0.22500
C 	C 	0.03660 0.78670 0.58470 0.21900
C 	C 	0.03240 0.34080 0.43880 0.32700
C 	C 	0.43010 0.46370 0.40370 0.34600
C 	C 	0.05700 0.60440 0.04970 0.45100
C 	C 	0.03660 0.28670 0.91530 0.21300
C 	C 	0.56990 0.53630 0.59630 0.34600
C 	C 	0.63210 0.00660 0.80380 0.07000
C 	C 	0.71030 0.61400 0.39550 0.34200
C 	C 	0.00820 0.54630 0.66050 -0.27200
C 	C 	0.80850 0.50950 0.37740 0.31900
C 	C 	0.92660 0.98380 0.20260 0.09100
C 	C 	0.48570 0.14210 0.93490 0.36400
C 	C 	0.00820 0.04630 0.83950 -0.28400
C 	C 	0.08300 0.65690 0.42200 -0.32300
C 	C 	0.44090 0.46200 0.34040 -0.26600
C 	C 	0.89300 0.63220 0.88890 0.42400
C 	C 	0.87570 0.18200 0.96390 -0.32200
C 	C 	0.45520 0.73170 0.09580 0.24700
C 	C 	0.28360 0.53470 0.39360 0.33000
C 	C 	0.71130 0.96790 0.83030 -0.25900
C 	C 	0.96340 0.71330 0.08470 0.21300
C 	C 	0.87570 0.68200 0.53610 -0.32100
C 	C 	0.20790 0.33380 0.62610 -0.34800
C 	C 	0.83280 0.01030 0.18430 -0.26600
C 	C 	0.28870 0.53210 0.33030 -0.25800
C 	C 	0.13030 0.02250 0.92050 -0.38400
C 	C 	0.31450 0.73240 0.89500 -0.27200
C 	C 	0.19150 0.99050 0.87740 0.32400
C 	C 	0.94030 0.26950 0.58530 0.19700
C 	C 	0.35280 0.50010 0.43050 -0.39500
C 	C 	0.77920 0.24230 0.12590 0.22100
C 	C 	0.63210 0.50660 0.69620 0.06800
C 	C 	0.94780 0.31220 0.94310 -0.26300
C 	C 	0.37640 0.98900 0.26590 0.35000
C 	C 	0.86970 0.97750 0.07950 -0.38400
C 	C 	0.80850 0.00950 0.12260 0.32400
C 	C 	0.54480 0.26830 0.90420 0.24700
C 	C 	0.37960 0.24070 0.95510 0.23900
C 	C 	0.83280 0.51030 0.31570 -0.26800
C 	C 	0.05970 0.73050 0.41470 0.19700
C 	C 	0.39240 0.66510 0.54240 -0.35600
C 	C 	0.56280 0.69360 0.59150 -0.37100
C 	C 	0.16720 0.48970 0.68430 -0.26800
C 	C 	0.03870 0.55060 0.60010 0.33100
C 	C 	0.37640 0.48900 0.23410 0.34900
C 	C 	0.92660 0.48380 0.29740 0.09000
C 	C 	0.28870 0.03210 0.16970 -0.25900
C 	C 	0.96760 0.15920 0.93880 0.33400
C 	C 	0.89300 0.13220 0.61110 0.42600
C 	C 	0.19150 0.49050 0.62260 0.31900
C 	C 	0.96340 0.21330 0.41530 0.21900
C 	C 	0.45340 0.79290 0.57270 -0.27800
C 	C 	0.94780 0.81220 0.55690 -0.26900
C 	C 	0.03820 0.01220 0.73180 0.30100
C 	C 	0.03240 0.84080 0.06120 0.33400
C 	C 	0.99180 0.45370 0.33950 -0.27200
C 	C 	0.94300 0.89560 0.54970 0.45100
C 	C 	0.54660 0.70710 0.07270 -0.27900
C 	C 	0.51430 0.85790 0.06510 0.36400
C 	C 	0.96130 0.94940 0.10010 0.33100
C 	C 	0.13370 0.24130 0.46690 0.20100
C 	C 	0.26330 0.69580 0.38850 -0.34300
C 	C 	0.10700 0.36780 0.11110 0.42400
C 	C 	0.12430 0.31800 0.46390 -0.32100
C 	C 	0.10700 0.86780 0.38890 0.42600
C 	C 	0.07340 0.51620 0.70260 0.09000
C 	C 	0.13840 0.78840 0.39500 -0.23000
C 	C 	0.04840 0.71060 0.58600 -0.33400
C 	C 	0.60350 0.21390 0.08360 0.22600
C 	C 	0.43720 0.80640 0.09150 -0.37100
C 	C 	0.94300 0.39560 0.95030 0.45100
C 	C 	0.86160 0.21160 0.60500 -0.23000
O 	O 	0.49790 0.08230 0.39160 -0.49500
O 	O 	0.75900 0.89700 0.38740 -0.48000
O 	O 	0.91090 0.91830 0.49900 -0.42600
O 	O 	0.02620 0.41830 0.44340 -0.31300
O 	O 	0.41660 0.12990 0.60220 -0.49800
O 	O 	0.97380 0.08170 0.94340 -0.31000
O 	O 	0.08910 0.58170 0.99900 -0.42700
O 	O 	0.79790 0.93300 0.92290 -0.32600
O 	O 	0.20210 0.06700 0.07710 -0.32600
O 	O 	0.10830 0.50920 0.80910 -0.41600
O 	O 	0.44880 0.45310 0.21310 -0.46600
O 	O 	0.55120 0.04690 0.71310 -0.46600
O 	O 	0.27920 0.57750 0.07600 -0.48400
O 	O 	0.93990 0.51270 0.77828 -0.44800
O 	O 	0.06010 0.98730 0.27828 -0.44200
O 	O 	0.08910 0.08170 0.50100 -0.42600
O 	O 	0.89170 0.99080 0.30910 -0.41500
O 	O 	0.89170 0.49080 0.19090 -0.41600
O 	O 	0.91090 0.41830 0.00100 -0.42700
O 	O 	0.63590 0.60210 0.04760 -0.35300
O 	O 	0.71440 0.53640 0.39940 -0.32100
O 	O 	0.81740 0.57750 0.88730 -0.43200
O 	O 	0.96510 0.43930 0.90480 -0.56300
O 	O 	0.49830 0.56610 0.55839 -0.33400
O 	O 	0.81700 0.04080 0.45920 -0.45000
O 	O 	0.28560 0.96360 0.89940 -0.32100
O 	O 	0.99070 0.12600 0.61400 -0.44800
O 	O 	0.00930 0.37400 0.11400 -0.45000
O 	O 	0.72080 0.42250 0.92400 -0.48400
O 	O 	0.03490 0.56070 0.09520 -0.56300
O 	O 	0.99070 0.62600 0.88600 -0.45000
O 	O 	0.50210 0.41770 0.89160 -0.49500
O 	O 	0.68620 0.97840 0.70290 -0.47500
O 	O 	0.58340 0.37010 0.10220 -0.49800
O 	O 	0.18260 0.92250 0.38730 -0.43200
O 	O 	0.24100 0.10300 0.61260 -0.48000
O 	O 	0.71440 0.03640 0.10060 -0.32100
O 	O 	0.55120 0.54690 0.78690 -0.46600
O 	O 	0.06010 0.48730 0.22172 -0.44800
O 	O 	0.31380 0.02160 0.29710 -0.47500
O 	O 	0.36410 0.39790 0.95240 -0.35300
O 	O 	0.58340 0.87010 0.39780 -0.49800
O 	O 	0.50170 0.43390 0.44161 -0.33400
O 	O 	0.10830 0.00920 0.69090 -0.41500
O 	O 	0.49830 0.06610 0.94161 -0.33400
O 	O 	0.18260 0.42250 0.11270 -0.43200
O 	O 	0.02620 0.91830 0.05660 -0.31000
O 	O 	0.27920 0.07750 0.42400 -0.48500
O 	O 	0.31380 0.52160 0.20290 -0.47400
O 	O 	0.49790 0.58230 0.10840 -0.49500
O 	O 	0.50170 0.93390 0.05839 -0.33400
O 	O 	0.24100 0.60300 0.88740 -0.47900
O 	O 	0.41660 0.62990 0.89780 -0.49800
O 	O 	0.72080 0.92250 0.57600 -0.48500
O 	O 	0.81740 0.07750 0.61270 -0.43200
O 	O 	0.75900 0.39700 0.11260 -0.47900
O 	O 	0.18300 0.45920 0.95920 -0.45300
O 	O 	0.81700 0.54080 0.04080 -0.45300
O 	O 	0.44880 0.95310 0.28690 -0.46600
O 	O 	0.28560 0.46360 0.60060 -0.32100
O 	O 	0.20210 0.56700 0.42290 -0.32600
O 	O 	0.18300 0.95920 0.54080 -0.45000
O 	O 	0.96510 0.93930 0.59520 -0.56500
O 	O 	0.93990 0.01270 0.72172 -0.44200
O 	O 	0.36410 0.89790 0.54760 -0.35200
O 	O 	0.00930 0.87400 0.38600 -0.44800
O 	O 	0.50210 0.91770 0.60840 -0.49500
O 	O 	0.79790 0.43300 0.57710 -0.32600
O 	O 	0.63590 0.10210 0.45240 -0.35200
O 	O 	0.68620 0.47840 0.79710 -0.47400
O 	O 	0.97380 0.58170 0.55660 -0.31300
O 	O 	0.03490 0.06070 0.40480 -0.56500
