data_crystal

_cell_length_a 18.66790
_cell_length_b 18.66790
_cell_length_c 17.83470
_cell_angle_alpha 90.00000
_cell_angle_beta  90.00000
_cell_angle_gamma 90.00000

_symmetry_space_group_name_	'P 1'
_symmetry_space_group_name_H-M	'P 1'

loop_
_symmetry_equiv_pos_as_xyz
  x,y,z

loop_
_atom_site_label
_atom_site_type_symbol
_atom_site_fract_x
_atom_site_fract_y
_atom_site_fract_z
_atom_site_charge
Cd	Cd	0.57282 0.43288 0.00611 1.24400
Cl	Cl	0.54698 0.55606 0.06451 -0.57000
O 	O 	0.65260 0.47857 0.92151 -0.35300
C 	C 	0.70950 0.41950 0.81920 -0.03900
O 	O 	0.63837 0.36253 0.91257 -0.32500
C 	C 	0.66390 0.41980 0.88870 0.29700
C 	C 	0.72330 0.48240 0.78110 -0.01700
H 	H 	0.70470 0.52520 0.79920 0.06600
C 	C 	0.73740 0.35690 0.79140 -0.01600
H 	H 	0.72730 0.31390 0.81540 0.06200
C 	C 	0.78030 0.35700 0.72820 -0.02600
H 	H 	0.80050 0.31430 0.71140 0.06700
C 	C 	0.79330 0.41970 0.69000 -0.03100
C 	C 	0.84110 0.41990 0.62160 0.29000
C 	C 	0.76430 0.48270 0.71670 -0.02600
H 	H 	0.77240 0.52540 0.69120 0.07000
O 	O 	0.87909 0.36682 0.60783 -0.34200
O 	O 	0.84190 0.47506 0.58071 -0.34100
Cd	Cd	0.92718 0.06712 0.00611 1.24000
Cl	Cl	0.95302 0.94394 0.06451 -0.56700
O 	O 	0.84740 0.02143 0.92151 -0.35200
C 	C 	0.79050 0.08050 0.81920 -0.04200
O 	O 	0.86163 0.13747 0.91257 -0.32600
C 	C 	0.83610 0.08020 0.88870 0.29700
C 	C 	0.77670 0.01760 0.78110 -0.01300
H 	H 	0.79530 0.97480 0.79920 0.06300
C 	C 	0.76260 0.14310 0.79140 -0.01500
H 	H 	0.77270 0.18610 0.81540 0.06100
C 	C 	0.71970 0.14300 0.72820 -0.02700
H 	H 	0.69950 0.18570 0.71140 0.06700
C 	C 	0.70670 0.08030 0.69000 -0.03100
C 	C 	0.65890 0.08010 0.62160 0.29000
C 	C 	0.73570 0.01730 0.71670 -0.02700
H 	H 	0.72760 0.97460 0.69120 0.07000
O 	O 	0.62091 0.13318 0.60783 -0.34200
O 	O 	0.65810 0.02494 0.58071 -0.34100
Cd	Cd	0.56712 0.07282 0.50611 1.24300
Cl	Cl	0.44394 0.04698 0.56451 -0.57200
O 	O 	0.52143 0.15260 0.42151 -0.35500
C 	C 	0.58050 0.20950 0.31920 -0.04100
O 	O 	0.63747 0.13837 0.41257 -0.32800
C 	C 	0.58020 0.16390 0.38870 0.29600
C 	C 	0.51760 0.22330 0.28110 -0.01700
H 	H 	0.47480 0.20470 0.29920 0.06600
C 	C 	0.64310 0.23740 0.29140 -0.01600
H 	H 	0.68610 0.22730 0.31540 0.06100
C 	C 	0.64300 0.28030 0.22820 -0.02700
H 	H 	0.68570 0.30050 0.21140 0.06700
C 	C 	0.58030 0.29330 0.19000 -0.03100
C 	C 	0.58010 0.34110 0.12160 0.29000
C 	C 	0.51730 0.26430 0.21670 -0.02700
H 	H 	0.47460 0.27240 0.19120 0.07000
O 	O 	0.63318 0.37909 0.10783 -0.34200
O 	O 	0.52494 0.34190 0.08071 -0.34100
Cd	Cd	0.93288 0.42718 0.50611 1.24300
Cl	Cl	0.05606 0.45302 0.56451 -0.57200
O 	O 	0.97857 0.34740 0.42151 -0.35500
C 	C 	0.91950 0.29050 0.31920 -0.04100
O 	O 	0.86253 0.36163 0.41257 -0.32800
C 	C 	0.91980 0.33610 0.38870 0.29600
C 	C 	0.98240 0.27670 0.28110 -0.01800
H 	H 	0.02520 0.29530 0.29920 0.06800
C 	C 	0.85690 0.26260 0.29140 -0.01600
H 	H 	0.81390 0.27270 0.31540 0.06100
C 	C 	0.85700 0.21970 0.22820 -0.02700
H 	H 	0.81430 0.19950 0.21140 0.06700
C 	C 	0.91970 0.20670 0.19000 -0.03100
C 	C 	0.91990 0.15890 0.12160 0.29000
C 	C 	0.98270 0.23570 0.21670 -0.03100
H 	H 	0.02540 0.22760 0.19120 0.07300
O 	O 	0.86682 0.12091 0.10783 -0.34400
O 	O 	0.97506 0.15810 0.08071 -0.34300
Cd	Cd	0.42718 0.56712 0.99389 1.24300
Cl	Cl	0.45302 0.44394 0.93549 -0.57100
O 	O 	0.34740 0.52143 0.07849 -0.35400
C 	C 	0.29050 0.58050 0.18080 -0.04000
O 	O 	0.36163 0.63747 0.08743 -0.32600
C 	C 	0.33610 0.58020 0.11130 0.29600
C 	C 	0.27670 0.51760 0.21890 -0.01700
H 	H 	0.29530 0.47480 0.20080 0.06600
C 	C 	0.26260 0.64310 0.20860 -0.01600
H 	H 	0.27270 0.68610 0.18460 0.06200
C 	C 	0.21970 0.64300 0.27180 -0.02600
H 	H 	0.19950 0.68570 0.28860 0.06700
C 	C 	0.20670 0.58030 0.31000 -0.03100
C 	C 	0.15890 0.58010 0.37840 0.29000
C 	C 	0.23570 0.51730 0.28330 -0.02600
H 	H 	0.22760 0.47460 0.30880 0.07000
O 	O 	0.12091 0.63318 0.39217 -0.34200
O 	O 	0.15810 0.52494 0.41929 -0.34100
Cd	Cd	0.07282 0.93288 0.99389 1.24000
Cl	Cl	0.04698 0.05606 0.93549 -0.56700
O 	O 	0.15260 0.97857 0.07849 -0.35200
C 	C 	0.20950 0.91950 0.18080 -0.04200
O 	O 	0.13837 0.86253 0.08743 -0.32600
C 	C 	0.16390 0.91980 0.11130 0.29700
C 	C 	0.22330 0.98240 0.21890 -0.01300
H 	H 	0.20470 0.02520 0.20080 0.06300
C 	C 	0.23740 0.85690 0.20860 -0.01500
H 	H 	0.22730 0.81390 0.18460 0.06100
C 	C 	0.28030 0.85700 0.27180 -0.02700
H 	H 	0.30050 0.81430 0.28860 0.06700
C 	C 	0.29330 0.91970 0.31000 -0.03100
C 	C 	0.34110 0.91990 0.37840 0.29000
C 	C 	0.26430 0.98270 0.28330 -0.02700
H 	H 	0.27240 0.02540 0.30880 0.07000
O 	O 	0.37909 0.86682 0.39217 -0.34200
O 	O 	0.34190 0.97506 0.41929 -0.34100
Cd	Cd	0.43288 0.92718 0.49389 1.24300
Cl	Cl	0.55606 0.95302 0.43549 -0.57200
O 	O 	0.47857 0.84740 0.57849 -0.35500
C 	C 	0.41950 0.79050 0.68080 -0.04100
O 	O 	0.36253 0.86163 0.58743 -0.32800
C 	C 	0.41980 0.83610 0.61130 0.29600
C 	C 	0.48240 0.77670 0.71890 -0.01700
H 	H 	0.52520 0.79530 0.70080 0.06600
C 	C 	0.35690 0.76260 0.70860 -0.01600
H 	H 	0.31390 0.77270 0.68460 0.06100
C 	C 	0.35700 0.71970 0.77180 -0.02700
H 	H 	0.31430 0.69950 0.78860 0.06700
C 	C 	0.41970 0.70670 0.81000 -0.03100
C 	C 	0.41990 0.65890 0.87840 0.29000
C 	C 	0.48270 0.73570 0.78330 -0.02700
H 	H 	0.52540 0.72760 0.80880 0.07000
O 	O 	0.36682 0.62091 0.89217 -0.34200
O 	O 	0.47506 0.65810 0.91929 -0.34100
Cd	Cd	0.06712 0.57282 0.49389 1.24300
Cl	Cl	0.94394 0.54698 0.43549 -0.57200
O 	O 	0.02143 0.65260 0.57849 -0.35500
C 	C 	0.08050 0.70950 0.68080 -0.04100
O 	O 	0.13747 0.63837 0.58743 -0.32800
C 	C 	0.08020 0.66390 0.61130 0.29600
C 	C 	0.01760 0.72330 0.71890 -0.01800
H 	H 	0.97480 0.70470 0.70080 0.06800
C 	C 	0.14310 0.73740 0.70860 -0.01600
H 	H 	0.18610 0.72730 0.68460 0.06100
C 	C 	0.14300 0.78030 0.77180 -0.02700
H 	H 	0.18570 0.80050 0.78860 0.06700
C 	C 	0.08030 0.79330 0.81000 -0.03100
C 	C 	0.08010 0.84110 0.87840 0.29000
C 	C 	0.01730 0.76430 0.78330 -0.03100
H 	H 	0.97460 0.77240 0.80880 0.07300
O 	O 	0.13318 0.87909 0.89217 -0.34400
O 	O 	0.02494 0.84190 0.91929 -0.34300
