data_crystal

_cell_length_a 11.94820
_cell_length_b 11.94820
_cell_length_c 30.65700
_cell_angle_alpha 90.00000
_cell_angle_beta  90.00000
_cell_angle_gamma 90.00000

_symmetry_space_group_name_	'P 1'
_symmetry_space_group_name_H-M	'P 1'

loop_
_symmetry_equiv_pos_as_xyz
  x,y,z

loop_
_atom_site_label
_atom_site_type_symbol
_atom_site_fract_x
_atom_site_fract_y
_atom_site_fract_z
_atom_site_charge
O 	O 	0.37350 0.49620 0.93980 -0.59200
C 	C 	0.31290 0.34690 0.90530 -0.25800
C 	C 	0.30500 0.68900 0.90930 -0.12500
O 	O 	0.43100 0.65100 0.96910 -0.39400
O 	O 	0.43440 0.34870 0.96630 -0.37900
C 	C 	0.30600 0.77600 0.90780 0.12300
C 	C 	0.32000 0.22500 0.90480 0.06400
C 	C 	0.37050 0.40520 0.93790 0.55200
C 	C 	0.36900 0.61600 0.94460 0.41200
O 	O 	0.87350 0.99620 0.43980 -0.44200
C 	C 	0.81290 0.84690 0.40530 -0.22500
C 	C 	0.80500 0.18900 0.40930 -0.10300
O 	O 	0.93100 0.15100 0.46910 -0.30900
O 	O 	0.93440 0.84870 0.46630 -0.28800
C 	C 	0.80600 0.27600 0.40780 0.11200
C 	C 	0.82000 0.72500 0.40480 0.12800
C 	C 	0.87050 0.90520 0.43790 0.50000
C 	C 	0.86900 0.11600 0.44460 0.28800
O 	O 	0.12650 0.00380 0.43980 -0.74000
C 	C 	0.18710 0.15310 0.40530 -0.30700
C 	C 	0.19500 0.81100 0.40930 -0.11700
O 	O 	0.06900 0.84900 0.46910 -0.49600
O 	O 	0.06560 0.15130 0.46630 -0.46600
C 	C 	0.19400 0.72400 0.40780 0.08200
C 	C 	0.18000 0.27500 0.40480 0.07900
C 	C 	0.12950 0.09480 0.43790 0.62000
C 	C 	0.13100 0.88400 0.44460 0.53100
O 	O 	0.62650 0.50380 0.93980 -0.59300
C 	C 	0.68710 0.65310 0.90530 -0.27500
C 	C 	0.69500 0.31100 0.90930 -0.09600
O 	O 	0.56900 0.34900 0.96910 -0.40200
O 	O 	0.56560 0.65130 0.96630 -0.36500
C 	C 	0.69400 0.22400 0.90780 0.08100
C 	C 	0.68000 0.77500 0.90480 0.15300
C 	C 	0.62950 0.59480 0.93790 0.57400
C 	C 	0.63100 0.38400 0.94460 0.41400
O 	O 	0.50380 0.87350 0.18980 -0.56500
C 	C 	0.65310 0.81290 0.15530 -0.26500
C 	C 	0.31100 0.80500 0.15930 -0.09100
O 	O 	0.34900 0.93100 0.21910 -0.34200
O 	O 	0.65130 0.93440 0.21630 -0.31300
C 	C 	0.22400 0.80600 0.15780 0.08700
C 	C 	0.77500 0.82000 0.15480 0.16200
C 	C 	0.59480 0.87050 0.18790 0.55500
C 	C 	0.38400 0.86900 0.19460 0.39400
O 	O 	0.00380 0.37350 0.68980 -0.71500
C 	C 	0.15310 0.31290 0.65530 -0.29700
C 	C 	0.81100 0.30500 0.65930 -0.11100
O 	O 	0.84900 0.43100 0.71910 -0.43200
O 	O 	0.15130 0.43440 0.71630 -0.40900
C 	C 	0.72400 0.30600 0.65780 0.09400
C 	C 	0.27500 0.32000 0.65480 0.09600
C 	C 	0.09480 0.37050 0.68790 0.60500
C 	C 	0.88400 0.36900 0.69460 0.51500
O 	O 	0.99620 0.62650 0.68980 -0.47300
C 	C 	0.84690 0.68710 0.65530 -0.23500
C 	C 	0.18900 0.69500 0.65930 -0.11000
O 	O 	0.15100 0.56900 0.71910 -0.38000
O 	O 	0.84870 0.56560 0.71630 -0.35100
C 	C 	0.27600 0.69400 0.65780 0.10000
C 	C 	0.72500 0.68000 0.65480 0.11100
C 	C 	0.90520 0.62950 0.68790 0.51700
C 	C 	0.11600 0.63100 0.69460 0.30500
O 	O 	0.49620 0.12650 0.18980 -0.62300
C 	C 	0.34690 0.18710 0.15530 -0.26800
C 	C 	0.68900 0.19500 0.15930 -0.13200
O 	O 	0.65100 0.06900 0.21910 -0.47000
O 	O 	0.34870 0.06560 0.21630 -0.44700
C 	C 	0.77600 0.19400 0.15780 0.10600
C 	C 	0.22500 0.18000 0.15480 0.04100
C 	C 	0.40520 0.12950 0.18790 0.56500
C 	C 	0.61600 0.13100 0.19460 0.42600
O 	O 	0.12650 0.49620 0.81020 -0.62200
C 	C 	0.18710 0.34690 0.84470 -0.26800
C 	C 	0.19500 0.68900 0.84070 -0.13100
O 	O 	0.06900 0.65100 0.78090 -0.46900
O 	O 	0.06560 0.34870 0.78370 -0.44700
C 	C 	0.19400 0.77600 0.84220 0.10800
C 	C 	0.18000 0.22500 0.84520 0.04500
C 	C 	0.12950 0.40520 0.81210 0.56700
C 	C 	0.13100 0.61600 0.80540 0.42600
O 	O 	0.62650 0.99620 0.31020 -0.47300
C 	C 	0.68710 0.84690 0.34470 -0.23500
C 	C 	0.69500 0.18900 0.34070 -0.11000
O 	O 	0.56900 0.15100 0.28090 -0.38000
O 	O 	0.56560 0.84870 0.28370 -0.35100
C 	C 	0.69400 0.27600 0.34220 0.10000
C 	C 	0.68000 0.72500 0.34520 0.11200
C 	C 	0.62950 0.90520 0.31210 0.51700
C 	C 	0.63100 0.11600 0.30540 0.30500
O 	O 	0.37350 0.00380 0.31020 -0.71500
C 	C 	0.31290 0.15310 0.34470 -0.29700
C 	C 	0.30500 0.81100 0.34070 -0.11100
O 	O 	0.43100 0.84900 0.28090 -0.43200
O 	O 	0.43440 0.15130 0.28370 -0.40900
C 	C 	0.30600 0.72400 0.34220 0.09400
C 	C 	0.32000 0.27500 0.34520 0.09600
C 	C 	0.37050 0.09480 0.31210 0.60500
C 	C 	0.36900 0.88400 0.30540 0.51500
O 	O 	0.87350 0.50380 0.81020 -0.56500
C 	C 	0.81290 0.65310 0.84470 -0.26500
C 	C 	0.80500 0.31100 0.84070 -0.08900
O 	O 	0.93100 0.34900 0.78090 -0.34200
O 	O 	0.93440 0.65130 0.78370 -0.31300
C 	C 	0.80600 0.22400 0.84220 0.08800
C 	C 	0.82000 0.77500 0.84520 0.16600
C 	C 	0.87050 0.59480 0.81210 0.55700
C 	C 	0.86900 0.38400 0.80540 0.39400
O 	O 	0.99620 0.87350 0.56020 -0.44300
C 	C 	0.84690 0.81290 0.59470 -0.22500
C 	C 	0.18900 0.80500 0.59070 -0.10300
O 	O 	0.15100 0.93100 0.53090 -0.30900
O 	O 	0.84870 0.93440 0.53370 -0.28800
C 	C 	0.27600 0.80600 0.59220 0.11200
C 	C 	0.72500 0.82000 0.59520 0.12800
C 	C 	0.90520 0.87050 0.56210 0.50000
C 	C 	0.11600 0.86900 0.55540 0.28800
O 	O 	0.49620 0.37350 0.06020 -0.59900
C 	C 	0.34690 0.31290 0.09470 -0.25800
C 	C 	0.68900 0.30500 0.09070 -0.12600
O 	O 	0.65100 0.43100 0.03090 -0.41400
O 	O 	0.34870 0.43440 0.03370 -0.39800
C 	C 	0.77600 0.30600 0.09220 0.11400
C 	C 	0.22500 0.32000 0.09520 0.05500
C 	C 	0.40520 0.37050 0.06210 0.54900
C 	C 	0.61600 0.36900 0.05540 0.40600
O 	O 	0.50380 0.62650 0.06020 -0.60100
C 	C 	0.65310 0.68710 0.09470 -0.27600
C 	C 	0.31100 0.69500 0.09070 -0.09700
O 	O 	0.34900 0.56900 0.03090 -0.42300
O 	O 	0.65130 0.56560 0.03370 -0.38500
C 	C 	0.22400 0.69400 0.09220 0.07000
C 	C 	0.77500 0.68000 0.09520 0.14300
C 	C 	0.59480 0.62950 0.06210 0.57100
C 	C 	0.38400 0.63100 0.05540 0.40900
O 	O 	0.00380 0.12650 0.56020 -0.74000
C 	C 	0.15310 0.18710 0.59470 -0.30700
C 	C 	0.81100 0.19500 0.59070 -0.11700
O 	O 	0.84900 0.06900 0.53090 -0.49600
O 	O 	0.15130 0.06560 0.53370 -0.46600
C 	C 	0.72400 0.19400 0.59220 0.08200
C 	C 	0.27500 0.18000 0.59520 0.07900
C 	C 	0.09480 0.12950 0.56210 0.62000
C 	C 	0.88400 0.13100 0.55540 0.53100
In	In	0.50000 0.50000 -0.00000 2.03000
In	In	0.00000 0.00000 0.50000 1.98300
In	In	0.50000 0.00000 0.25000 2.01000
In	In	-0.00000 0.50000 0.75000 2.01000
C 	C 	0.25000 0.39390 0.87500 0.21800
C 	C 	0.25000 0.83870 0.87500 0.01000
N 	N 	0.25000 0.95000 0.87500 -0.05300
C 	C 	0.75000 0.89390 0.37500 0.25600
C 	C 	0.75000 0.33870 0.37500 0.01700
N 	N 	0.75000 0.45000 0.37500 -0.07100
C 	C 	0.25000 0.10610 0.37500 0.20800
C 	C 	0.25000 0.66130 0.37500 0.01400
N 	N 	0.25000 0.55000 0.37500 -0.09500
C 	C 	0.75000 0.60610 0.87500 0.25200
C 	C 	0.75000 0.16130 0.87500 0.02200
N 	N 	0.75000 0.05000 0.87500 -0.10900
C 	C 	0.60610 0.75000 0.12500 0.24800
C 	C 	0.16130 0.75000 0.12500 0.02100
N 	N 	0.05000 0.75000 0.12500 -0.11300
C 	C 	0.10610 0.25000 0.62500 0.20800
C 	C 	0.66130 0.25000 0.62500 0.01400
N 	N 	0.55000 0.25000 0.62500 -0.09500
C 	C 	0.89390 0.75000 0.62500 0.25600
C 	C 	0.33870 0.75000 0.62500 0.01700
N 	N 	0.45000 0.75000 0.62500 -0.07100
C 	C 	0.39390 0.25000 0.12500 0.21400
C 	C 	0.83870 0.25000 0.12500 0.00900
N 	N 	0.95000 0.25000 0.12500 -0.05800
