data_crystal

_cell_length_a 11.19200
_cell_length_b 12.40100
_cell_length_c 12.56600
_cell_angle_alpha 64.42400
_cell_angle_beta  75.58600
_cell_angle_gamma 80.44600

_symmetry_space_group_name_	'P 1'
_symmetry_space_group_name_H-M	'P 1'

loop_
_symmetry_equiv_pos_as_xyz
  x,y,z

loop_
_atom_site_label
_atom_site_type_symbol
_atom_site_fract_x
_atom_site_fract_y
_atom_site_fract_z
_atom_site_charge
Cu	Cu	0.37734 0.06004 0.41182 0.90200
C 	C 	0.00660 0.07870 0.87800 -0.03300
C 	C 	0.89500 0.02990 0.94990 0.08100
C 	C 	0.88820 0.95090 0.07050 0.00200
C 	C 	0.01340 0.16400 0.74550 -0.15100
H 	H 	0.93040 0.18620 0.72920 0.11800
H 	H 	0.05000 0.23650 0.72930 0.07200
C 	C 	0.18900 0.14390 0.58340 0.08000
H 	H 	0.22860 0.21200 0.56410 0.02500
C 	C 	0.13850 0.98500 0.58800 0.09500
H 	H 	0.13960 0.91960 0.56970 0.00600
C 	C 	0.77870 0.06470 0.89790 -0.13300
H 	H 	0.70670 0.04890 0.96290 0.09700
H 	H 	0.77530 0.14980 0.84700 0.10000
C 	C 	0.72700 0.03490 0.72990 0.08700
H 	H 	0.69610 0.11270 0.68890 0.02900
C 	C 	0.78360 0.85110 0.78340 0.10300
H 	H 	0.79920 0.77490 0.78380 0.00600
C 	C 	0.76790 0.89480 0.14460 -0.09100
H 	H 	0.72710 0.87720 0.09470 0.08000
H 	H 	0.78510 0.81990 0.21040 0.08000
C 	C 	0.57620 0.95270 0.26940 0.08400
H 	H 	0.53710 0.88180 0.29960 0.02200
C 	C 	0.61950 0.12730 0.23050 0.09700
H 	H 	0.61330 0.20300 0.23040 0.00900
C 	C 	0.55820 0.33760 0.41150 -0.12000
C 	C 	0.66460 0.36260 0.43310 0.05400
H 	H 	0.72030 0.30040 0.46860 0.04500
C 	C 	0.68740 0.47990 0.40190 -0.09900
C 	C 	0.60220 0.57220 0.35000 0.04000
H 	H 	0.61690 0.65100 0.32970 0.04400
C 	C 	0.49630 0.54830 0.32830 -0.09700
C 	C 	0.47500 0.43080 0.35970 0.05400
H 	H 	0.40380 0.41390 0.34590 0.03500
C 	C 	0.53490 0.20930 0.44730 0.38100
C 	C 	0.79790 0.51210 0.42630 0.32000
C 	C 	0.40600 0.65160 0.27290 0.31400
N 	N 	0.22630 0.06650 0.53280 -0.21900
N 	N 	0.08680 0.10900 0.66530 -0.07400
N 	N 	0.05280 0.00730 0.66880 -0.09400
N 	N 	0.72900 0.94380 0.70060 -0.21100
N 	N 	0.77620 0.99740 0.82740 -0.06600
N 	N 	0.81300 0.87910 0.86420 -0.08000
N 	N 	0.53260 0.04720 0.29510 -0.22700
N 	N 	0.68500 0.97590 0.19350 -0.07900
N 	N 	0.71400 0.08740 0.16760 -0.08200
O 	O 	0.43680 0.19300 0.42390 -0.42200
O 	O 	0.61150 0.12960 0.49510 -0.39900
O 	O 	0.87820 0.42700 0.46930 -0.37700
O 	O 	0.80950 0.61690 0.40630 -0.31800
O 	O 	0.43440 0.75450 0.24800 -0.25000
O 	O 	0.31170 0.62930 0.25220 -0.26100
Cu	Cu	0.62266 0.93996 0.58818 0.90200
C 	C 	0.99340 0.92130 0.12200 0.06500
C 	C 	0.10500 0.97010 0.05010 -0.03600
C 	C 	0.11180 0.04910 0.92950 0.05100
C 	C 	0.98660 0.83600 0.25450 -0.01900
H 	H 	0.06960 0.81380 0.27080 0.02300
H 	H 	0.95000 0.76350 0.27070 0.05100
C 	C 	0.81100 0.85610 0.41660 0.09600
H 	H 	0.77140 0.78800 0.43590 0.02300
C 	C 	0.86150 0.01500 0.41200 0.10100
H 	H 	0.86040 0.08040 0.43030 0.02000
C 	C 	0.22130 0.93530 0.10210 -0.08500
H 	H 	0.29330 0.95110 0.03710 0.08400
H 	H 	0.22470 0.85020 0.15300 0.08000
C 	C 	0.27300 0.96510 0.27010 0.08400
H 	H 	0.30390 0.88730 0.31110 0.02800
C 	C 	0.21640 0.14890 0.21660 0.09400
H 	H 	0.20080 0.22510 0.21620 -0.00500
C 	C 	0.23210 0.10520 0.85540 -0.11800
H 	H 	0.27290 0.12280 0.90530 0.08500
H 	H 	0.21490 0.18010 0.78960 0.08600
C 	C 	0.42380 0.04730 0.73060 0.08100
H 	H 	0.46290 0.11820 0.70040 0.02300
C 	C 	0.38050 0.87270 0.76950 0.09700
H 	H 	0.38670 0.79700 0.76960 0.00600
C 	C 	0.44180 0.66240 0.58850 -0.12200
C 	C 	0.33540 0.63740 0.56690 0.05500
H 	H 	0.27970 0.69960 0.53140 0.03900
C 	C 	0.31260 0.52010 0.59810 -0.10700
C 	C 	0.39780 0.42780 0.65000 0.04000
H 	H 	0.38310 0.34900 0.67030 0.04300
C 	C 	0.50370 0.45170 0.67170 -0.09700
C 	C 	0.52500 0.56920 0.64030 0.05200
H 	H 	0.59620 0.58610 0.65410 0.03800
C 	C 	0.46510 0.79070 0.55270 0.38000
C 	C 	0.20210 0.48790 0.57370 0.32300
C 	C 	0.59400 0.34840 0.72710 0.31200
N 	N 	0.77370 0.93350 0.46720 -0.21800
N 	N 	0.91320 0.89100 0.33470 -0.08200
N 	N 	0.94720 0.99270 0.33120 -0.06800
N 	N 	0.27100 0.05620 0.29940 -0.21500
N 	N 	0.22380 0.00260 0.17260 -0.07800
N 	N 	0.18700 0.12090 0.13580 -0.09100
N 	N 	0.46740 0.95280 0.70490 -0.22600
N 	N 	0.31500 0.02410 0.80650 -0.07500
N 	N 	0.28600 0.91260 0.83240 -0.08700
O 	O 	0.56320 0.80700 0.57610 -0.42100
O 	O 	0.38850 0.87040 0.50490 -0.40100
O 	O 	0.12180 0.57300 0.53070 -0.40800
O 	O 	0.19050 0.38310 0.59370 -0.33500
O 	O 	0.56560 0.24550 0.75200 -0.24900
O 	O 	0.68830 0.37070 0.74780 -0.25200
Cu	Cu	-0.00000 0.50000 0.50000 0.85400
