data_crystal

_cell_length_a 13.41540
_cell_length_b 13.41540
_cell_length_c 13.41540
_cell_angle_alpha 90.00000
_cell_angle_beta  90.00000
_cell_angle_gamma 90.00000

_symmetry_space_group_name_	'P 1'
_symmetry_space_group_name_H-M	'P 1'

loop_
_symmetry_equiv_pos_as_xyz
  x,y,z

loop_
_atom_site_label
_atom_site_type_symbol
_atom_site_fract_x
_atom_site_fract_y
_atom_site_fract_z
_atom_site_charge
P 	P 	0.27140 0.44800 0.89550 0.65100
O 	O 	0.19190 0.52840 0.88660 -0.63800
O 	O 	0.37430 0.49350 0.90300 -0.55000
O 	O 	0.26260 0.37000 0.81830 -0.53900
P 	P 	0.77140 0.94800 0.39550 0.64700
O 	O 	0.69190 0.02840 0.38660 -0.62300
O 	O 	0.87430 0.99350 0.40300 -0.55400
O 	O 	0.76260 0.87000 0.31830 -0.54300
P 	P 	0.22860 0.55200 0.39550 0.66500
O 	O 	0.30810 0.47160 0.38660 -0.63900
O 	O 	0.12570 0.50650 0.40300 -0.53800
O 	O 	0.23740 0.63000 0.31830 -0.53900
P 	P 	0.72860 0.05200 0.89550 0.66200
O 	O 	0.80810 0.97160 0.88660 -0.64700
O 	O 	0.62570 0.00650 0.90300 -0.53100
O 	O 	0.73740 0.13000 0.81830 -0.53900
P 	P 	0.72860 0.94800 0.60450 0.64700
O 	O 	0.80810 0.02840 0.61340 -0.62000
O 	O 	0.62570 0.99350 0.59700 -0.55500
O 	O 	0.73740 0.87000 0.68170 -0.54000
P 	P 	0.22860 0.44800 0.10450 0.66400
O 	O 	0.30810 0.52840 0.11340 -0.63800
O 	O 	0.12570 0.49350 0.09700 -0.52200
O 	O 	0.23740 0.37000 0.18170 -0.53500
P 	P 	0.77140 0.05200 0.10450 0.67900
O 	O 	0.69190 0.97160 0.11340 -0.65300
O 	O 	0.87430 0.00650 0.09700 -0.50500
O 	O 	0.76260 0.13000 0.18170 -0.53800
P 	P 	0.27140 0.55200 0.60450 0.66500
O 	O 	0.19190 0.47160 0.61340 -0.64000
O 	O 	0.37430 0.50650 0.59700 -0.53800
O 	O 	0.26260 0.63000 0.68170 -0.53900
P 	P 	0.89550 0.27140 0.44800 0.65000
O 	O 	0.88660 0.19190 0.52840 -0.63900
O 	O 	0.90300 0.37430 0.49350 -0.55100
O 	O 	0.81830 0.26260 0.37000 -0.53900
P 	P 	0.39550 0.77140 0.94800 0.64700
O 	O 	0.38660 0.69190 0.02840 -0.62300
O 	O 	0.40300 0.87430 0.99350 -0.55400
O 	O 	0.31830 0.76260 0.87000 -0.54300
P 	P 	0.39550 0.22860 0.55200 0.66500
O 	O 	0.38660 0.30810 0.47160 -0.63900
O 	O 	0.40300 0.12570 0.50650 -0.53800
O 	O 	0.31830 0.23740 0.63000 -0.53900
P 	P 	0.89550 0.72860 0.05200 0.66200
O 	O 	0.88660 0.80810 0.97160 -0.64700
O 	O 	0.90300 0.62570 0.00650 -0.53100
O 	O 	0.81830 0.73740 0.13000 -0.53900
P 	P 	0.60450 0.72860 0.94800 0.64700
O 	O 	0.61340 0.80810 0.02840 -0.62000
O 	O 	0.59700 0.62570 0.99350 -0.55500
O 	O 	0.68170 0.73740 0.87000 -0.54000
P 	P 	0.10450 0.22860 0.44800 0.66400
O 	O 	0.11340 0.30810 0.52840 -0.63800
O 	O 	0.09700 0.12570 0.49350 -0.52200
O 	O 	0.18170 0.23740 0.37000 -0.53500
P 	P 	0.10450 0.77140 0.05200 0.67900
O 	O 	0.11340 0.69190 0.97160 -0.65300
O 	O 	0.09700 0.87430 0.00650 -0.50500
O 	O 	0.18170 0.76260 0.13000 -0.53800
P 	P 	0.60450 0.27140 0.55200 0.66500
O 	O 	0.61340 0.19190 0.47160 -0.64000
O 	O 	0.59700 0.37430 0.50650 -0.53800
O 	O 	0.68170 0.26260 0.63000 -0.53900
P 	P 	0.44800 0.89550 0.27140 0.65000
O 	O 	0.52840 0.88660 0.19190 -0.63900
O 	O 	0.49350 0.90300 0.37430 -0.55100
O 	O 	0.37000 0.81830 0.26260 -0.53900
P 	P 	0.94800 0.39550 0.77140 0.64700
O 	O 	0.02840 0.38660 0.69190 -0.62300
O 	O 	0.99350 0.40300 0.87430 -0.55400
O 	O 	0.87000 0.31830 0.76260 -0.54300
P 	P 	0.55200 0.39550 0.22860 0.66500
O 	O 	0.47160 0.38660 0.30810 -0.63900
O 	O 	0.50650 0.40300 0.12570 -0.53800
O 	O 	0.63000 0.31830 0.23740 -0.53900
P 	P 	0.05200 0.89550 0.72860 0.66200
O 	O 	0.97160 0.88660 0.80810 -0.64700
O 	O 	0.00650 0.90300 0.62570 -0.53100
O 	O 	0.13000 0.81830 0.73740 -0.53900
P 	P 	0.94800 0.60450 0.72860 0.64700
O 	O 	0.02840 0.61340 0.80810 -0.62000
O 	O 	0.99350 0.59700 0.62570 -0.55500
O 	O 	0.87000 0.68170 0.73740 -0.54000
P 	P 	0.44800 0.10450 0.22860 0.66400
O 	O 	0.52840 0.11340 0.30810 -0.63800
O 	O 	0.49350 0.09700 0.12570 -0.52200
O 	O 	0.37000 0.18170 0.23740 -0.53500
P 	P 	0.05200 0.10450 0.77140 0.67900
O 	O 	0.97160 0.11340 0.69190 -0.65300
O 	O 	0.00650 0.09700 0.87430 -0.50500
O 	O 	0.13000 0.18170 0.76260 -0.53800
P 	P 	0.55200 0.60450 0.27140 0.66500
O 	O 	0.47160 0.61340 0.19190 -0.64000
O 	O 	0.50650 0.59700 0.37430 -0.53800
O 	O 	0.63000 0.68170 0.26260 -0.53900
Er	Er	0.18513 0.68513 0.81487 1.94800
Er	Er	0.03164 0.53164 0.96836 1.78900
Er	Er	0.68513 0.18513 0.31487 1.95500
Er	Er	0.53164 0.03164 0.46836 1.84000
Er	Er	0.31487 0.31487 0.31487 1.95600
Er	Er	0.46836 0.46836 0.46836 1.79400
Er	Er	0.81487 0.81487 0.81487 1.93600
Er	Er	0.96836 0.96836 0.96836 1.66400
Er	Er	0.81487 0.18513 0.68513 1.94800
Er	Er	0.96836 0.03164 0.53164 1.78900
Er	Er	0.31487 0.68513 0.18513 1.95500
Er	Er	0.46836 0.53164 0.03164 1.84000
Er	Er	0.68513 0.81487 0.18513 1.94800
Er	Er	0.53164 0.96836 0.03164 1.78900
Er	Er	0.18513 0.31487 0.68513 1.95500
Er	Er	0.03164 0.46836 0.53164 1.84000
O 	O 	0.25000 0.39320 -0.00000 -0.37800
O 	O 	0.25000 0.60680 0.50000 -0.39900
O 	O 	0.75000 0.89320 0.50000 -0.40100
O 	O 	0.75000 0.10680 -0.00000 -0.37900
O 	O 	0.00000 0.25000 0.39320 -0.37800
O 	O 	0.50000 0.25000 0.60680 -0.39900
O 	O 	0.50000 0.75000 0.89320 -0.40100
O 	O 	-0.00000 0.75000 0.10680 -0.37900
O 	O 	0.39320 0.00000 0.25000 -0.37800
O 	O 	0.60680 0.50000 0.25000 -0.39900
O 	O 	0.89320 0.50000 0.75000 -0.40100
O 	O 	0.10680 0.00000 0.75000 -0.37900
