data_crystal

_cell_length_a 6.34900
_cell_length_b 10.25800
_cell_length_c 15.73700
_cell_angle_alpha 106.79000
_cell_angle_beta  93.66000
_cell_angle_gamma 103.56000

_symmetry_space_group_name_	'P 1'
_symmetry_space_group_name_H-M	'P 1'

loop_
_symmetry_equiv_pos_as_xyz
  x,y,z

loop_
_atom_site_label
_atom_site_type_symbol
_atom_site_fract_x
_atom_site_fract_y
_atom_site_fract_z
_atom_site_charge
Sr	Sr	0.98654 0.07780 0.64960 1.53700
Sr	Sr	0.69404 0.73254 0.73627 1.50000
Sr	Sr	0.01346 0.92220 0.35040 1.51000
Sr	Sr	0.30596 0.26746 0.26373 1.48500
Cu	Cu	-0.00000 0.50000 -0.00000 0.83600
Cu	Cu	0.50000 0.50000 0.50000 0.88700
C 	C 	0.05310 0.27622 0.87179 0.15900
C 	C 	0.90130 0.34039 0.82748 0.26400
C 	C 	0.75657 0.73863 0.48926 0.25000
C 	C 	0.68485 0.63713 0.39236 0.22200
C 	C 	0.43078 0.95431 0.67876 0.22100
C 	C 	0.24872 0.84944 0.70655 0.25900
C 	C 	0.94690 0.72378 0.12821 0.26200
C 	C 	0.09870 0.65961 0.17252 0.15600
C 	C 	0.24343 0.26137 0.51074 0.25000
C 	C 	0.31515 0.36287 0.60764 0.21600
C 	C 	0.56922 0.04569 0.32124 0.25500
C 	C 	0.75128 0.15056 0.29345 0.24500
O 	O 	0.11660 0.33612 0.95527 -0.35100
O 	O 	0.85360 0.44692 0.87829 -0.36600
O 	O 	0.10890 0.17357 0.82502 -0.35400
O 	O 	0.84241 0.29265 0.74643 -0.35300
O 	O 	0.69208 0.68844 0.55037 -0.50200
O 	O 	0.43458 0.48536 0.61550 -0.50200
O 	O 	0.86897 0.86100 0.49966 -0.46100
O 	O 	0.74638 0.67605 0.32857 -0.36000
O 	O 	0.29973 0.75170 0.72677 -0.46500
O 	O 	0.62225 0.94424 0.68984 -0.49500
O 	O 	0.36880 0.03904 0.64617 -0.38400
O 	O 	0.06231 0.87119 0.70602 -0.54700
O 	O 	0.88340 0.66388 0.04473 -0.41500
O 	O 	0.14640 0.55308 0.12171 -0.42700
O 	O 	0.89110 0.82643 0.17498 -0.37600
O 	O 	0.15759 0.70735 0.25357 -0.37300
O 	O 	0.30792 0.31156 0.44963 -0.52100
O 	O 	0.56542 0.51464 0.38450 -0.50900
O 	O 	0.13103 0.13900 0.50034 -0.49800
O 	O 	0.25362 0.32395 0.67143 -0.37700
O 	O 	0.70027 0.24830 0.27323 -0.45900
O 	O 	0.37775 0.05576 0.31016 -0.52600
O 	O 	0.63120 0.96096 0.35383 -0.40000
O 	O 	0.93769 0.12881 0.29398 -0.49300
