data_crystal

_cell_length_a 21.96000
_cell_length_b 7.65500
_cell_length_c 6.16700
_cell_angle_alpha 90.00000
_cell_angle_beta  91.47000
_cell_angle_gamma 90.00000

_symmetry_space_group_name_	'P 1'
_symmetry_space_group_name_H-M	'P 1'

loop_
_symmetry_equiv_pos_as_xyz
  x,y,z

loop_
_atom_site_label
_atom_site_type_symbol
_atom_site_fract_x
_atom_site_fract_y
_atom_site_fract_z
_atom_site_charge
Ce	Ce	0.64534 0.25424 0.05018 2.13200
O 	O 	0.54406 0.36220 0.88560 -0.42000
O 	O 	0.53758 0.14450 0.14830 -0.44300
O 	O 	0.65551 0.20370 0.65350 -0.45800
O 	O 	0.65939 0.04520 0.35320 -0.46200
O 	O 	0.63765 0.94460 0.90550 -0.50000
H 	H 	0.60660 0.88470 0.94410 0.23800
O 	O 	0.76297 0.89200 0.71720 -0.48300
H 	H 	0.75980 0.98030 0.80000 0.22300
O 	O 	0.66438 0.53980 0.86230 -0.45700
O 	O 	0.74996 0.64770 0.00550 -0.52100
C 	C 	0.65570 0.06120 0.55490 0.40200
C 	C 	0.65090 0.89490 0.68870 -0.03500
H 	H 	0.61730 0.82370 0.62980 0.04200
C 	C 	0.71000 0.78670 0.68740 -0.00600
H 	H 	0.71220 0.72840 0.54640 0.04900
C 	C 	0.70730 0.64690 0.86220 0.39900
Ce	Ce	0.14534 0.75424 0.05018 2.12300
O 	O 	0.04406 0.86220 0.88560 -0.42700
O 	O 	0.03758 0.64450 0.14830 -0.44800
O 	O 	0.15551 0.70370 0.65350 -0.46500
O 	O 	0.15939 0.54520 0.35320 -0.46900
O 	O 	0.13765 0.44460 0.90550 -0.48900
H 	H 	0.10660 0.38470 0.94410 0.24300
O 	O 	0.26297 0.39200 0.71720 -0.47600
H 	H 	0.25980 0.48030 0.80000 0.23800
O 	O 	0.16438 0.03980 0.86230 -0.43900
O 	O 	0.24996 0.14770 0.00550 -0.50600
C 	C 	0.15570 0.56120 0.55490 0.37000
C 	C 	0.15090 0.39490 0.68870 -0.00200
H 	H 	0.11730 0.32370 0.62980 0.04000
C 	C 	0.21000 0.28670 0.68740 -0.01100
H 	H 	0.21220 0.22840 0.54640 0.05900
C 	C 	0.20730 0.14690 0.86220 0.40000
Ce	Ce	0.35466 0.25424 0.94982 2.17100
O 	O 	0.45594 0.36220 0.11440 -0.46100
O 	O 	0.46242 0.14450 0.85170 -0.40300
O 	O 	0.34449 0.20370 0.34650 -0.46700
O 	O 	0.34061 0.04520 0.64680 -0.44400
O 	O 	0.36235 0.94460 0.09450 -0.51800
H 	H 	0.39340 0.88470 0.05590 0.22000
O 	O 	0.23703 0.89200 0.28280 -0.50000
H 	H 	0.24020 0.98030 0.20000 0.21900
O 	O 	0.33562 0.53980 0.13770 -0.45800
O 	O 	0.25004 0.64770 0.99450 -0.43000
C 	C 	0.34430 0.06120 0.44510 0.40100
C 	C 	0.34910 0.89490 0.31130 -0.04100
H 	H 	0.38270 0.82370 0.37020 0.04500
C 	C 	0.29000 0.78670 0.31260 0.02100
H 	H 	0.28780 0.72840 0.45360 0.04500
C 	C 	0.29270 0.64690 0.13780 0.30300
Ce	Ce	0.85466 0.75424 0.94982 2.16200
O 	O 	0.95594 0.86220 0.11440 -0.44200
O 	O 	0.96242 0.64450 0.85170 -0.38300
O 	O 	0.84449 0.70370 0.34650 -0.47100
O 	O 	0.84061 0.54520 0.64680 -0.44900
O 	O 	0.86235 0.44460 0.09450 -0.50800
H 	H 	0.89340 0.38470 0.05590 0.23300
O 	O 	0.73703 0.39200 0.28280 -0.49200
H 	H 	0.74020 0.48030 0.20000 0.23400
O 	O 	0.83562 0.03980 0.13770 -0.43600
O 	O 	0.75004 0.14770 0.99450 -0.41500
C 	C 	0.84430 0.56120 0.44510 0.37200
C 	C 	0.84910 0.39490 0.31130 -0.00900
H 	H 	0.88270 0.32370 0.37020 0.05000
C 	C 	0.79000 0.28670 0.31260 0.01700
H 	H 	0.78780 0.22840 0.45360 0.05500
C 	C 	0.79270 0.14690 0.13780 0.30500
S 	S 	0.50000 0.25470 -0.00000 0.55000
S 	S 	-0.00000 0.75470 -0.00000 0.48300
