data_crystal

_cell_length_a 7.64390
_cell_length_b 22.01300
_cell_length_c 6.15560
_cell_angle_alpha 90.00000
_cell_angle_beta  90.00000
_cell_angle_gamma 90.00000

_symmetry_space_group_name_	'P 1'
_symmetry_space_group_name_H-M	'P 1'

loop_
_symmetry_equiv_pos_as_xyz
  x,y,z

loop_
_atom_site_label
_atom_site_type_symbol
_atom_site_fract_x
_atom_site_fract_y
_atom_site_fract_z
_atom_site_charge
Ce	Ce	0.47932 0.35423 0.43918 2.14800
O 	O 	0.38470 0.46168 0.58120 -0.45100
O 	O 	0.60070 0.45698 0.31160 -0.46500
O 	O 	0.52740 0.34561 0.83360 -0.46000
O 	O 	0.68660 0.33662 0.13760 -0.44800
O 	O 	0.78760 0.36198 0.58460 -0.54900
H 	H 	0.84570 0.39050 0.53860 0.27500
O 	O 	0.84170 0.23674 0.78300 -0.51800
H 	H 	0.76340 0.24350 0.69530 0.26700
O 	O 	0.19320 0.33570 0.63300 -0.45900
O 	O 	0.08500 0.25059 0.49330 -0.48100
C 	C 	0.66990 0.34310 0.93640 0.35600
C 	C 	0.83750 0.34910 0.80080 0.01700
H 	H 	0.90780 0.38280 0.85720 0.03700
C 	C 	0.94550 0.29010 0.81050 0.02300
H 	H 	0.00430 0.28800 0.95180 0.04300
C 	C 	0.08570 0.29240 0.63070 0.34700
Ce	Ce	0.52068 0.64577 0.43918 2.15000
O 	O 	0.61530 0.53832 0.58120 -0.44400
O 	O 	0.39930 0.54302 0.31160 -0.46700
O 	O 	0.47260 0.65439 0.83360 -0.45500
O 	O 	0.31340 0.66338 0.13760 -0.45100
O 	O 	0.21240 0.63802 0.58460 -0.56100
H 	H 	0.15430 0.60950 0.53860 0.27100
O 	O 	0.15830 0.76326 0.78300 -0.50700
H 	H 	0.23660 0.75650 0.69530 0.26000
O 	O 	0.80680 0.66430 0.63300 -0.46500
O 	O 	0.91500 0.74941 0.49330 -0.48100
C 	C 	0.33010 0.65690 0.93640 0.34400
C 	C 	0.16250 0.65090 0.80080 0.05400
H 	H 	0.09220 0.61720 0.85720 0.01400
C 	C 	0.05450 0.70990 0.81050 -0.09000
H 	H 	0.99570 0.71200 0.95180 0.10300
C 	C 	0.91430 0.70760 0.63070 0.40600
Ce	Ce	0.02068 0.85423 0.56082 2.13500
O 	O 	0.11530 0.96168 0.41880 -0.41700
O 	O 	0.89930 0.95698 0.68840 -0.40800
O 	O 	0.97260 0.84561 0.16640 -0.43900
O 	O 	0.81340 0.83662 0.86240 -0.44100
O 	O 	0.71240 0.86198 0.41540 -0.54800
H 	H 	0.65430 0.89050 0.46140 0.27500
O 	O 	0.65830 0.73674 0.21700 -0.51500
H 	H 	0.73660 0.74350 0.30470 0.26600
O 	O 	0.30680 0.83570 0.36700 -0.46500
O 	O 	0.41500 0.75059 0.50670 -0.48200
C 	C 	0.83010 0.84310 0.06360 0.35000
C 	C 	0.66250 0.84910 0.19920 0.02800
H 	H 	0.59220 0.88280 0.14280 0.03200
C 	C 	0.55450 0.79010 0.18950 -0.00600
H 	H 	0.49570 0.78800 0.04820 0.05600
C 	C 	0.41430 0.79240 0.36930 0.36000
Ce	Ce	0.97932 0.14577 0.56082 2.15500
O 	O 	0.88470 0.03832 0.41880 -0.42300
O 	O 	0.10070 0.04302 0.68840 -0.45700
O 	O 	0.02740 0.15439 0.16640 -0.46500
O 	O 	0.18660 0.16338 0.86240 -0.45300
O 	O 	0.28760 0.13802 0.41540 -0.55400
H 	H 	0.34570 0.10950 0.46140 0.27000
O 	O 	0.34170 0.26326 0.21700 -0.51600
H 	H 	0.26340 0.25650 0.30470 0.26500
O 	O 	0.69320 0.16430 0.36700 -0.46000
O 	O 	0.58500 0.24941 0.50670 -0.48100
C 	C 	0.16990 0.15690 0.06360 0.35100
C 	C 	0.33750 0.15090 0.19920 0.02600
H 	H 	0.40780 0.11720 0.14280 0.02600
C 	C 	0.44550 0.20990 0.18950 -0.00600
H 	H 	0.50430 0.21200 0.04820 0.05700
C 	C 	0.58570 0.20760 0.36930 0.36100
S 	S 	0.50000 0.50000 0.44660 0.63800
S 	S 	-0.00000 0.00000 0.55340 0.52200
