data_crystal

_cell_length_a 11.32730
_cell_length_b 11.57440
_cell_length_c 16.24340
_cell_angle_alpha 105.50500
_cell_angle_beta  110.40600
_cell_angle_gamma 90.00000

_symmetry_space_group_name_	'P 1'
_symmetry_space_group_name_H-M	'P 1'

loop_
_symmetry_equiv_pos_as_xyz
  x,y,z

loop_
_atom_site_label
_atom_site_type_symbol
_atom_site_fract_x
_atom_site_fract_y
_atom_site_fract_z
_atom_site_charge
V 	V 	0.76421 0.06031 0.71038 1.71800
V 	V 	0.05383 0.43969 0.28962 1.71700
V 	V 	0.94617 0.56031 0.71038 1.74500
V 	V 	0.80301 0.81828 0.78482 1.73800
V 	V 	0.19699 0.18172 0.21518 1.72600
V 	V 	0.98181 0.31828 0.78482 1.75800
V 	V 	0.23579 0.93969 0.28962 1.74300
V 	V 	0.01819 0.68172 0.21518 1.70100
Cu	Cu	-0.00000 0.00000 -0.00000 0.74400
Cu	Cu	-0.00000 0.50000 -0.00000 0.76400
Cu	Cu	-0.00000 0.50000 0.50000 0.86300
Cu	Cu	0.50000 0.00000 0.50000 0.87300
H 	H 	0.68760 0.80820 0.55580 -0.00900
H 	H 	0.21130 0.80960 0.77180 0.02900
H 	H 	0.31860 0.55420 0.40980 0.04600
H 	H 	0.23540 0.68300 0.12640 -0.10500
H 	H 	0.72930 0.36400 0.41660 0.01500
H 	H 	0.43950 0.69040 0.22820 0.03200
H 	H 	0.80680 0.66980 0.93800 0.00400
H 	H 	0.92900 0.75090 0.60040 -0.02100
H 	H 	0.31270 0.13600 0.58340 0.01700
H 	H 	0.50450 0.13870 0.36020 -0.05300
H 	H 	0.78130 0.86040 0.31140 0.02900
H 	H 	0.34210 0.35130 0.74240 0.03700
H 	H 	0.40030 0.85130 0.74240 0.04600
H 	H 	0.14430 0.36130 0.63980 -0.07600
H 	H 	0.07100 0.24910 0.39960 -0.03500
H 	H 	0.39340 0.32570 0.15960 -0.00000
H 	H 	0.19320 0.33020 0.06200 -0.05600
H 	H 	0.76620 0.82570 0.15960 -0.00500
H 	H 	0.68730 0.86400 0.41660 0.00700
H 	H 	0.60660 0.67430 0.84040 0.01700
H 	H 	0.78870 0.19040 0.22820 0.03100
H 	H 	0.53010 0.36040 0.31140 0.02400
H 	H 	0.46990 0.63960 0.68860 0.03000
H 	H 	0.30990 0.38580 0.43100 0.04800
H 	H 	0.12110 0.88580 0.43100 0.02100
H 	H 	0.65790 0.64870 0.25760 0.03200
H 	H 	0.90880 0.94580 0.59020 0.02100
H 	H 	0.69010 0.61420 0.56900 0.04800
H 	H 	0.27070 0.63600 0.58340 0.01000
H 	H 	0.09120 0.05420 0.40980 0.07200
H 	H 	0.59970 0.14870 0.25760 0.02300
H 	H 	0.13180 0.69180 0.44420 -0.00200
H 	H 	0.89100 0.18300 0.12640 -0.06900
H 	H 	0.85570 0.63870 0.36020 -0.02500
H 	H 	0.31240 0.19180 0.44420 -0.02600
H 	H 	0.32860 0.74910 0.39960 -0.02700
H 	H 	0.13120 0.16980 0.93800 0.00000
H 	H 	0.21870 0.13960 0.68860 0.02700
H 	H 	0.56050 0.30960 0.77180 0.02800
H 	H 	0.10900 0.81700 0.87360 -0.09400
H 	H 	0.49550 0.86130 0.63980 -0.05200
H 	H 	0.23380 0.17430 0.84040 0.02200
H 	H 	0.76460 0.31700 0.87360 -0.07000
H 	H 	0.86820 0.30820 0.55580 -0.03300
H 	H 	0.87890 0.11420 0.56900 0.07200
H 	H 	0.86880 0.83020 0.06200 -0.04000
H 	H 	0.67140 0.25090 0.60040 -0.02900
H 	H 	0.68140 0.44580 0.59020 0.04700
C 	C 	0.08503 0.74390 0.47406 -0.02700
C 	C 	0.27359 0.07990 0.67858 -0.16200
C 	C 	0.38098 0.91120 0.71096 -0.13900
C 	C 	0.56913 0.50640 0.27266 0.01400
C 	C 	0.49827 0.43850 0.50614 0.04100
C 	C 	0.14734 0.09540 0.90348 -0.02600
C 	C 	0.71477 0.42240 0.38374 0.03300
C 	C 	0.40286 0.72220 0.43572 0.06000
C 	C 	0.91497 0.25610 0.52594 0.09900
C 	C 	0.03286 0.22220 0.43572 0.03600
C 	C 	0.72641 0.92010 0.32142 -0.03900
C 	C 	0.38903 0.24390 0.47406 0.03700
C 	C 	0.79138 0.90100 0.15456 -0.06800
C 	C 	0.43087 0.49360 0.72734 0.02600
C 	C 	0.59714 0.27780 0.56428 0.06100
C 	C 	0.56359 0.08290 0.35138 -0.00500
C 	C 	0.44145 0.50860 0.20690 0.03300
C 	C 	0.73181 0.39060 0.86602 0.04100
C 	C 	0.78779 0.58290 0.35138 0.01400
C 	C 	0.39063 0.61480 0.19486 -0.14500
C 	C 	0.80423 0.11480 0.19486 -0.11800
C 	C 	0.61097 0.75610 0.52594 0.03800
C 	C 	0.40499 0.57990 0.67858 -0.10400
C 	C 	0.60937 0.38520 0.80514 -0.13000
C 	C 	0.50173 0.56150 0.49386 0.04000
C 	C 	0.43641 0.91710 0.64862 0.03800
C 	C 	0.24386 0.40460 0.09652 0.01000
C 	C 	0.23455 0.99140 0.79310 0.08200
C 	C 	0.96714 0.77780 0.56428 0.08700
C 	C 	0.38668 0.36000 0.46496 -0.13100
C 	C 	0.61332 0.64000 0.53504 -0.12900
C 	C 	0.60396 0.39510 0.55832 -0.11400
C 	C 	0.86579 0.10940 0.13398 0.02500
C 	C 	0.66897 0.92240 0.38374 0.07800
C 	C 	0.85266 0.90460 0.09652 0.05900
C 	C 	0.29647 0.99360 0.72734 0.07100
C 	C 	0.99213 0.06150 0.49386 0.22800
C 	C 	0.33103 0.07760 0.61626 -0.01000
C 	C 	0.21221 0.41710 0.64862 0.01900
C 	C 	0.07828 0.86000 0.46496 -0.04300
C 	C 	0.95436 0.89510 0.55832 0.05200
C 	C 	0.92172 0.14000 0.53504 -0.21600
C 	C 	0.75614 0.59540 0.90348 0.02100
C 	C 	0.00787 0.93850 0.50614 -0.15200
C 	C 	0.26819 0.60940 0.13398 0.03100
C 	C 	0.28523 0.57760 0.61626 0.03400
C 	C 	0.59501 0.42010 0.32142 -0.09700
C 	C 	0.36318 0.40100 0.15456 -0.14000
C 	C 	0.55855 0.49140 0.79310 0.03400
C 	C 	0.67002 0.58880 0.28904 -0.12100
C 	C 	0.76545 0.00860 0.20690 -0.01700
C 	C 	0.70353 0.00640 0.27266 -0.03100
C 	C 	0.20862 0.09900 0.84544 -0.18800
C 	C 	0.19577 0.88520 0.80514 -0.15300
C 	C 	0.32998 0.41120 0.71096 -0.13400
C 	C 	0.13421 0.89060 0.86602 0.04800
C 	C 	0.61902 0.08880 0.28904 -0.11700
C 	C 	0.04564 0.10490 0.44168 -0.27000
C 	C 	0.63682 0.59900 0.84544 -0.12100
C 	C 	0.39604 0.60490 0.44168 -0.11300
N 	N 	0.10835 0.99330 0.91490 -0.19100
N 	N 	0.19345 0.50670 0.08510 -0.25900
N 	N 	0.49211 0.20050 0.52202 -0.20500
N 	N 	0.18772 0.49780 0.59924 -0.22100
N 	N 	0.02991 0.70050 0.52202 -0.23300
N 	N 	0.58848 0.00220 0.40076 -0.24300
N 	N 	0.97009 0.29950 0.47798 -0.16100
N 	N 	0.81228 0.50220 0.40076 -0.19200
N 	N 	0.41152 0.99780 0.59924 -0.17300
N 	N 	0.50789 0.79950 0.47798 -0.19100
N 	N 	0.89165 0.00670 0.08510 -0.25700
N 	N 	0.80655 0.49330 0.91490 -0.20400
O 	O 	0.88501 0.17620 0.73442 -0.86300
O 	O 	0.92580 0.52690 0.59940 -0.67000
O 	O 	0.12301 0.13700 0.10182 -0.81700
O 	O 	0.11499 0.82380 0.26558 -0.88900
O 	O 	0.02119 0.36300 0.89818 -0.77400
O 	O 	0.10220 0.57210 0.26700 -0.90300
O 	O 	0.07420 0.47310 0.40060 -0.72300
O 	O 	0.87699 0.86300 0.89818 -0.68300
O 	O 	0.89780 0.42790 0.73300 -0.86100
O 	O 	0.15059 0.32380 0.26558 -0.88900
O 	O 	0.83520 0.92790 0.73300 -0.83400
O 	O 	0.97881 0.63700 0.10182 -0.71000
O 	O 	0.67360 0.02690 0.59940 -0.73100
O 	O 	0.16480 0.07210 0.26700 -0.92500
O 	O 	0.84941 0.67620 0.73442 -0.85800
O 	O 	0.32640 0.97310 0.40060 -0.66800
