data_crystal

_cell_length_a 15.94700
_cell_length_b 15.39100
_cell_length_c 19.06400
_cell_angle_alpha 90.00000
_cell_angle_beta  101.18200
_cell_angle_gamma 90.00000

_symmetry_space_group_name_	'P 1'
_symmetry_space_group_name_H-M	'P 1'

loop_
_symmetry_equiv_pos_as_xyz
  x,y,z

loop_
_atom_site_label
_atom_site_type_symbol
_atom_site_fract_x
_atom_site_fract_y
_atom_site_fract_z
_atom_site_charge
C 	C 	0.37540 0.98200 0.11730 0.00000
H 	H 	0.41990 0.95840 0.09850 0.03500
C 	C 	0.33710 0.05830 0.08940 -0.04500
C 	C 	0.27090 0.09420 0.11820 -0.00000
H 	H 	0.24660 0.14680 0.10100 0.04000
C 	C 	0.24090 0.05030 0.17340 -0.11600
C 	C 	0.28170 0.97630 0.20340 0.04500
H 	H 	0.26540 0.95080 0.24290 0.03000
C 	C 	0.34700 0.93970 0.17450 -0.11200
C 	C 	0.39290 0.85800 0.20270 0.37000
C 	C 	0.16680 0.09290 0.19920 0.37600
C 	C 	0.37350 0.11000 0.03660 0.05800
C 	C 	0.38110 0.20000 0.03260 -0.10600
H 	H 	0.37090 0.23460 0.07010 0.06200
C 	C 	0.40340 0.23830 0.97370 0.02900
H 	H 	0.41060 0.29820 0.97340 -0.00600
N 	N 	0.41580 0.19030 0.91430 -0.09800
C 	C 	0.41290 0.10700 0.91940 0.08800
H 	H 	0.43050 0.07440 0.88390 -0.00400
C 	C 	0.38520 0.06180 0.97470 -0.11800
H 	H 	0.37470 0.00230 0.97130 0.06800
O 	O 	0.13790 0.15860 0.16790 -0.46100
O 	O 	0.14000 0.05820 0.25130 -0.36600
O 	O 	0.44300 0.82620 0.16590 -0.46500
O 	O 	0.37710 0.82490 0.26030 -0.41100
Co	Co	0.54025 0.74172 0.17026 1.15300
C 	C 	0.36000 0.09800 0.02090 0.03000
C 	C 	0.44870 0.11140 0.02680 -0.06200
H 	H 	0.48830 0.09420 0.06680 0.04800
C 	C 	0.47210 0.15180 0.96940 -0.01000
H 	H 	0.53040 0.15470 0.96960 0.01700
C 	C 	0.33470 0.16890 0.90660 -0.01900
H 	H 	0.29850 0.18470 0.86420 0.04000
C 	C 	0.30120 0.12740 0.96310 -0.05700
H 	H 	0.24270 0.12090 0.96070 0.04400
N 	N 	0.42370 0.18500 0.91680 -0.09600
C 	C 	0.87540 0.48200 0.11730 0.00200
H 	H 	0.91990 0.45840 0.09850 0.03700
C 	C 	0.83710 0.55830 0.08940 -0.04500
C 	C 	0.77090 0.59420 0.11820 0.00000
H 	H 	0.74660 0.64680 0.10100 0.04000
C 	C 	0.74090 0.55030 0.17340 -0.11600
C 	C 	0.78170 0.47630 0.20340 0.04500
H 	H 	0.76540 0.45080 0.24290 0.03000
C 	C 	0.84700 0.43970 0.17450 -0.11200
C 	C 	0.89290 0.35800 0.20270 0.37000
C 	C 	0.66680 0.59290 0.19920 0.37600
C 	C 	0.87350 0.61000 0.03660 0.05900
C 	C 	0.88110 0.70000 0.03260 -0.10500
H 	H 	0.87090 0.73460 0.07010 0.06200
C 	C 	0.90340 0.73830 0.97370 0.02800
H 	H 	0.91060 0.79820 0.97340 -0.00500
N 	N 	0.91580 0.69030 0.91430 -0.09800
C 	C 	0.91290 0.60700 0.91940 0.08900
H 	H 	0.93050 0.57440 0.88390 -0.00400
C 	C 	0.88520 0.56180 0.97470 -0.11900
H 	H 	0.87470 0.50230 0.97130 0.06900
O 	O 	0.63790 0.65860 0.16790 -0.46100
O 	O 	0.64000 0.55820 0.25130 -0.36600
O 	O 	0.94300 0.32620 0.16590 -0.46400
O 	O 	0.87710 0.32490 0.26030 -0.41100
Co	Co	0.04025 0.24172 0.17026 1.15300
C 	C 	0.86000 0.59800 0.02090 0.02900
C 	C 	0.94870 0.61140 0.02680 -0.06100
H 	H 	0.98830 0.59420 0.06680 0.04800
C 	C 	0.97210 0.65180 0.96940 -0.01100
H 	H 	0.03040 0.65470 0.96960 0.01700
C 	C 	0.83470 0.66890 0.90660 -0.01900
H 	H 	0.79850 0.68470 0.86420 0.04000
C 	C 	0.80120 0.62740 0.96310 -0.05700
H 	H 	0.74270 0.62090 0.96070 0.04400
N 	N 	0.92370 0.68500 0.91680 -0.09600
C 	C 	0.62460 0.98200 0.38270 0.00100
H 	H 	0.58010 0.95840 0.40150 0.03700
C 	C 	0.66290 0.05830 0.41060 -0.04500
C 	C 	0.72910 0.09420 0.38180 0.00000
H 	H 	0.75340 0.14680 0.39900 0.04000
C 	C 	0.75910 0.05030 0.32660 -0.11600
C 	C 	0.71830 0.97630 0.29660 0.04500
H 	H 	0.73460 0.95080 0.25710 0.03000
C 	C 	0.65300 0.93970 0.32550 -0.11200
C 	C 	0.60710 0.85800 0.29730 0.37000
C 	C 	0.83320 0.09290 0.30080 0.37600
C 	C 	0.62650 0.11000 0.46340 0.05800
C 	C 	0.61890 0.20000 0.46740 -0.10600
H 	H 	0.62910 0.23460 0.42990 0.06200
C 	C 	0.59660 0.23830 0.52630 0.02900
H 	H 	0.58940 0.29820 0.52660 -0.00500
N 	N 	0.58420 0.19030 0.58570 -0.09800
C 	C 	0.58710 0.10700 0.58060 0.08800
H 	H 	0.56950 0.07440 0.61610 -0.00400
C 	C 	0.61480 0.06180 0.52530 -0.11700
H 	H 	0.62530 0.00230 0.52870 0.06800
O 	O 	0.86210 0.15860 0.33210 -0.46100
O 	O 	0.86000 0.05820 0.24870 -0.36600
O 	O 	0.55700 0.82620 0.33410 -0.46500
O 	O 	0.62290 0.82490 0.23970 -0.41100
Co	Co	0.45975 0.74172 0.32974 1.15300
C 	C 	0.64000 0.09800 0.47910 0.03000
C 	C 	0.55130 0.11140 0.47320 -0.06200
H 	H 	0.51170 0.09420 0.43320 0.04800
C 	C 	0.52790 0.15180 0.53060 -0.01000
H 	H 	0.46960 0.15470 0.53040 0.01700
C 	C 	0.66530 0.16890 0.59340 -0.01900
H 	H 	0.70150 0.18470 0.63580 0.04000
C 	C 	0.69880 0.12740 0.53690 -0.05700
H 	H 	0.75730 0.12090 0.53930 0.04400
N 	N 	0.57630 0.18500 0.58320 -0.09600
C 	C 	0.12460 0.48200 0.38270 0.00200
H 	H 	0.08010 0.45840 0.40150 0.03600
C 	C 	0.16290 0.55830 0.41060 -0.04500
C 	C 	0.22910 0.59420 0.38180 0.00000
H 	H 	0.25340 0.64680 0.39900 0.04000
C 	C 	0.25910 0.55030 0.32660 -0.11600
C 	C 	0.21830 0.47630 0.29660 0.04500
H 	H 	0.23460 0.45080 0.25710 0.03000
C 	C 	0.15300 0.43970 0.32550 -0.11200
C 	C 	0.10710 0.35800 0.29730 0.37000
C 	C 	0.33320 0.59290 0.30080 0.37600
C 	C 	0.12650 0.61000 0.46340 0.05900
C 	C 	0.11890 0.70000 0.46740 -0.10700
H 	H 	0.12910 0.73460 0.42990 0.06200
C 	C 	0.09660 0.73830 0.52630 0.03000
H 	H 	0.08940 0.79820 0.52660 -0.00600
N 	N 	0.08420 0.69030 0.58570 -0.09800
C 	C 	0.08710 0.60700 0.58060 0.09200
H 	H 	0.06950 0.57440 0.61610 -0.00600
C 	C 	0.11480 0.56180 0.52530 -0.12000
H 	H 	0.12530 0.50230 0.52870 0.06900
O 	O 	0.36210 0.65860 0.33210 -0.46100
O 	O 	0.36000 0.55820 0.24870 -0.36600
O 	O 	0.05700 0.32620 0.33410 -0.46500
O 	O 	0.12290 0.32490 0.23970 -0.41100
Co	Co	0.95975 0.24172 0.32974 1.15400
C 	C 	0.14000 0.59800 0.47910 0.02900
C 	C 	0.05130 0.61140 0.47320 -0.05900
H 	H 	0.01170 0.59420 0.43320 0.04700
C 	C 	0.02790 0.65180 0.53060 -0.01500
H 	H 	0.96960 0.65470 0.53040 0.02000
C 	C 	0.16530 0.66890 0.59340 -0.02100
H 	H 	0.20150 0.68470 0.63580 0.04100
C 	C 	0.19880 0.62740 0.53690 -0.05500
H 	H 	0.25730 0.62090 0.53930 0.04400
N 	N 	0.07630 0.68500 0.58320 -0.09600
C 	C 	0.62460 0.01800 0.88270 0.00100
H 	H 	0.58010 0.04160 0.90150 0.03700
C 	C 	0.66290 0.94170 0.91060 -0.04500
C 	C 	0.72910 0.90580 0.88180 -0.00000
H 	H 	0.75340 0.85320 0.89900 0.04000
C 	C 	0.75910 0.94970 0.82660 -0.11600
C 	C 	0.71830 0.02370 0.79660 0.04500
H 	H 	0.73460 0.04920 0.75710 0.03000
C 	C 	0.65300 0.06030 0.82550 -0.11200
C 	C 	0.60710 0.14200 0.79730 0.37000
C 	C 	0.83320 0.90710 0.80080 0.37600
C 	C 	0.62650 0.89000 0.96340 0.05700
C 	C 	0.61890 0.80000 0.96740 -0.10600
H 	H 	0.62910 0.76540 0.92990 0.06200
C 	C 	0.59660 0.76170 0.02630 0.02900
H 	H 	0.58940 0.70180 0.02660 -0.00600
N 	N 	0.58420 0.80970 0.08570 -0.09800
C 	C 	0.58710 0.89300 0.08060 0.08800
H 	H 	0.56950 0.92560 0.11610 -0.00400
C 	C 	0.61480 0.93820 0.02530 -0.11700
H 	H 	0.62530 0.99770 0.02870 0.06800
O 	O 	0.86210 0.84140 0.83210 -0.46100
O 	O 	0.86000 0.94180 0.74870 -0.36600
O 	O 	0.55700 0.17380 0.83410 -0.46500
O 	O 	0.62290 0.17510 0.73970 -0.41100
Co	Co	0.45975 0.25828 0.82974 1.15300
C 	C 	0.64000 0.90200 0.97910 0.03000
C 	C 	0.55130 0.88860 0.97320 -0.06300
H 	H 	0.51170 0.90580 0.93320 0.04800
C 	C 	0.52790 0.84820 0.03060 -0.01000
H 	H 	0.46960 0.84530 0.03040 0.01700
C 	C 	0.66530 0.83110 0.09340 -0.01900
H 	H 	0.70150 0.81530 0.13580 0.04000
C 	C 	0.69880 0.87260 0.03690 -0.05700
H 	H 	0.75730 0.87910 0.03930 0.04400
N 	N 	0.57630 0.81500 0.08320 -0.09600
C 	C 	0.12460 0.51800 0.88270 0.00200
H 	H 	0.08010 0.54160 0.90150 0.03600
C 	C 	0.16290 0.44170 0.91060 -0.04500
C 	C 	0.22910 0.40580 0.88180 0.00000
H 	H 	0.25340 0.35320 0.89900 0.04000
C 	C 	0.25910 0.44970 0.82660 -0.11600
C 	C 	0.21830 0.52370 0.79660 0.04500
H 	H 	0.23460 0.54920 0.75710 0.03000
C 	C 	0.15300 0.56030 0.82550 -0.11200
C 	C 	0.10710 0.64200 0.79730 0.37000
C 	C 	0.33320 0.40710 0.80080 0.37600
C 	C 	0.12650 0.39000 0.96340 0.06000
C 	C 	0.11890 0.30000 0.96740 -0.10900
H 	H 	0.12910 0.26540 0.92990 0.06300
C 	C 	0.09660 0.26170 0.02630 0.03300
H 	H 	0.08940 0.20180 0.02660 -0.00700
N 	N 	0.08420 0.30970 0.08570 -0.09800
C 	C 	0.08710 0.39300 0.08060 0.09800
H 	H 	0.06950 0.42560 0.11610 -0.00800
C 	C 	0.11480 0.43820 0.02530 -0.12500
H 	H 	0.12530 0.49770 0.02870 0.07100
O 	O 	0.36210 0.34140 0.83210 -0.46100
O 	O 	0.36000 0.44180 0.74870 -0.36600
O 	O 	0.05700 0.67380 0.83410 -0.46500
O 	O 	0.12290 0.67510 0.73970 -0.41100
Co	Co	0.95975 0.75828 0.82974 1.15300
C 	C 	0.14000 0.40200 0.97910 0.02800
C 	C 	0.05130 0.38860 0.97320 -0.05300
H 	H 	0.01170 0.40580 0.93320 0.04500
C 	C 	0.02790 0.34820 0.03060 -0.02200
H 	H 	0.96960 0.34530 0.03040 0.02300
C 	C 	0.16530 0.33110 0.09340 -0.02400
H 	H 	0.20150 0.31530 0.13580 0.04200
C 	C 	0.19880 0.37260 0.03690 -0.05300
H 	H 	0.25730 0.37910 0.03930 0.04300
N 	N 	0.07630 0.31500 0.08320 -0.09700
C 	C 	0.37540 0.01800 0.61730 0.00100
H 	H 	0.41990 0.04160 0.59850 0.03600
C 	C 	0.33710 0.94170 0.58940 -0.04500
C 	C 	0.27090 0.90580 0.61820 0.00000
H 	H 	0.24660 0.85320 0.60100 0.04000
C 	C 	0.24090 0.94970 0.67340 -0.11600
C 	C 	0.28170 0.02370 0.70340 0.04500
H 	H 	0.26540 0.04920 0.74290 0.03000
C 	C 	0.34700 0.06030 0.67450 -0.11200
C 	C 	0.39290 0.14200 0.70270 0.37000
C 	C 	0.16680 0.90710 0.69920 0.37600
C 	C 	0.37350 0.89000 0.53660 0.05800
C 	C 	0.38110 0.80000 0.53260 -0.10600
H 	H 	0.37090 0.76540 0.57010 0.06200
C 	C 	0.40340 0.76170 0.47370 0.02900
H 	H 	0.41060 0.70180 0.47340 -0.00500
N 	N 	0.41580 0.80970 0.41430 -0.09800
C 	C 	0.41290 0.89300 0.41940 0.08800
H 	H 	0.43050 0.92560 0.38390 -0.00400
C 	C 	0.38520 0.93820 0.47470 -0.11700
H 	H 	0.37470 0.99770 0.47130 0.06800
O 	O 	0.13790 0.84140 0.66790 -0.46100
O 	O 	0.14000 0.94180 0.75130 -0.36600
O 	O 	0.44300 0.17380 0.66590 -0.46500
O 	O 	0.37710 0.17510 0.76030 -0.41100
Co	Co	0.54025 0.25828 0.67026 1.15300
C 	C 	0.36000 0.90200 0.52090 0.03000
C 	C 	0.44870 0.88860 0.52680 -0.06200
H 	H 	0.48830 0.90580 0.56680 0.04800
C 	C 	0.47210 0.84820 0.46940 -0.01000
H 	H 	0.53040 0.84530 0.46960 0.01700
C 	C 	0.33470 0.83110 0.40660 -0.01900
H 	H 	0.29850 0.81530 0.36420 0.04000
C 	C 	0.30120 0.87260 0.46310 -0.05700
H 	H 	0.24270 0.87910 0.46070 0.04400
N 	N 	0.42370 0.81500 0.41680 -0.09600
C 	C 	0.87540 0.51800 0.61730 0.00100
H 	H 	0.91990 0.54160 0.59850 0.03700
C 	C 	0.83710 0.44170 0.58940 -0.04500
C 	C 	0.77090 0.40580 0.61820 0.00000
H 	H 	0.74660 0.35320 0.60100 0.04000
C 	C 	0.74090 0.44970 0.67340 -0.11600
C 	C 	0.78170 0.52370 0.70340 0.04500
H 	H 	0.76540 0.54920 0.74290 0.03000
C 	C 	0.84700 0.56030 0.67450 -0.11200
C 	C 	0.89290 0.64200 0.70270 0.37000
C 	C 	0.66680 0.40710 0.69920 0.37600
C 	C 	0.87350 0.39000 0.53660 0.05700
C 	C 	0.88110 0.30000 0.53260 -0.10300
H 	H 	0.87090 0.26540 0.57010 0.06100
C 	C 	0.90340 0.26170 0.47370 0.02600
H 	H 	0.91060 0.20180 0.47340 -0.00400
N 	N 	0.91580 0.30970 0.41430 -0.09800
C 	C 	0.91290 0.39300 0.41940 0.08200
H 	H 	0.93050 0.42560 0.38390 -0.00200
C 	C 	0.88520 0.43820 0.47470 -0.11300
H 	H 	0.87470 0.49770 0.47130 0.06700
O 	O 	0.63790 0.34140 0.66790 -0.46100
O 	O 	0.64000 0.44180 0.75130 -0.36600
O 	O 	0.94300 0.67380 0.66590 -0.46400
O 	O 	0.87710 0.67510 0.76030 -0.41100
Co	Co	0.04025 0.75828 0.67026 1.15300
C 	C 	0.86000 0.40200 0.52090 0.03100
C 	C 	0.94870 0.38860 0.52680 -0.06700
H 	H 	0.98830 0.40580 0.56680 0.05000
C 	C 	0.97210 0.34820 0.46940 -0.00200
H 	H 	0.03040 0.34530 0.46960 0.01400
C 	C 	0.83470 0.33110 0.40660 -0.01600
H 	H 	0.79850 0.31530 0.36420 0.03900
C 	C 	0.80120 0.37260 0.46310 -0.05900
H 	H 	0.74270 0.37910 0.46070 0.04500
N 	N 	0.92370 0.31500 0.41680 -0.09600
Na	Na	0.50000 0.55020 0.25000 0.58900
O 	O 	0.50000 0.65960 0.25000 -0.56000
Na	Na	0.00000 0.05020 0.25000 0.58900
O 	O 	0.00000 0.15960 0.25000 -0.56100
Na	Na	0.50000 0.44980 0.75000 0.58900
O 	O 	0.50000 0.34040 0.75000 -0.56000
Na	Na	0.00000 0.94980 0.75000 0.58900
O 	O 	0.00000 0.84040 0.75000 -0.56000
