data_crystal

_cell_length_a 14.16800
_cell_length_b 15.09100
_cell_length_c 22.75200
_cell_angle_alpha 85.33300
_cell_angle_beta  75.13000
_cell_angle_gamma 69.42600

_symmetry_space_group_name_	'P 1'
_symmetry_space_group_name_H-M	'P 1'

loop_
_symmetry_equiv_pos_as_xyz
  x,y,z

loop_
_atom_site_label
_atom_site_type_symbol
_atom_site_fract_x
_atom_site_fract_y
_atom_site_fract_z
_atom_site_charge
Pr	Pr	0.06871 0.16761 0.79786 2.01100
Pr	Pr	0.80555 0.20436 0.72980 2.05600
Pr	Pr	0.93129 0.83239 0.20214 2.01200
Pr	Pr	0.45800 0.28871 0.69591 2.02700
Pr	Pr	0.54200 0.71129 0.30409 2.02700
Pr	Pr	0.19445 0.79564 0.27020 2.05700
Si	Si	0.14189 0.32741 0.39237 0.78800
Si	Si	0.66869 0.78983 0.89306 0.77700
Si	Si	0.33131 0.21017 0.10694 0.77700
Si	Si	0.85811 0.67259 0.60763 0.78800
H 	H 	0.29930 0.13260 0.00330 -0.02400
H 	H 	0.39870 0.01020 0.36020 0.05000
H 	H 	0.36330 0.31510 0.34280 -0.02300
H 	H 	0.11970 0.21760 0.29600 -0.01200
H 	H 	0.54560 0.58690 0.68090 0.07300
H 	H 	0.45390 0.34490 0.91360 0.08100
H 	H 	0.27370 0.90930 0.13590 0.03100
H 	H 	0.00670 0.80750 0.42120 0.09100
H 	H 	0.63400 0.67760 0.80370 -0.00700
H 	H 	0.92140 0.46960 0.86350 0.04600
H 	H 	0.63120 0.99310 0.88700 -0.00200
H 	H 	0.18580 0.63540 0.37340 0.01700
H 	H 	0.41930 0.32660 0.01760 -0.03100
H 	H 	0.91870 0.39570 0.45130 -0.01900
H 	H 	0.60930 0.86140 0.77980 -0.01600
H 	H 	0.36600 0.32240 0.19630 -0.00700
H 	H 	0.08020 0.41470 0.28160 -0.01300
H 	H 	0.06920 0.49460 0.74520 0.07900
H 	H 	0.30100 0.47490 0.22750 0.06500
H 	H 	0.72630 0.09070 0.86410 0.03100
H 	H 	0.39070 0.13860 0.22020 -0.01600
H 	H 	0.99330 0.19250 0.57880 0.09100
H 	H 	0.80810 0.62190 0.49970 -0.02200
H 	H 	0.60130 0.98980 0.63980 0.05000
H 	H 	0.67130 0.84780 0.09990 0.08900
H 	H 	0.00870 0.13490 0.16800 0.06600
H 	H 	0.76590 0.48050 0.42250 0.08200
H 	H 	0.15040 0.37550 0.10120 -0.01300
H 	H 	0.70070 0.86740 0.99670 -0.02400
H 	H 	0.91980 0.58530 0.71840 -0.01300
H 	H 	0.90140 0.47260 0.60180 0.00100
H 	H 	0.08130 0.60430 0.54870 -0.01900
H 	H 	0.93080 0.50540 0.25480 0.07900
H 	H 	0.54610 0.65510 0.08640 0.08100
H 	H 	0.88030 0.78240 0.70400 -0.01200
H 	H 	0.99130 0.86510 0.83200 0.06600
H 	H 	0.16750 0.33640 0.60120 0.07800
H 	H 	0.10610 0.23640 0.14990 -0.01000
H 	H 	0.23410 0.51950 0.57750 0.08200
H 	H 	0.81200 0.93590 0.73580 0.07500
H 	H 	0.18800 0.06410 0.26420 0.07500
H 	H 	0.09860 0.52740 0.39820 0.00100
H 	H 	0.63670 0.68490 0.65720 -0.02300
H 	H 	0.32450 0.16620 0.39630 -0.01500
H 	H 	0.81420 0.36460 0.62660 0.01700
H 	H 	0.44470 0.87460 0.95300 -0.02100
H 	H 	0.45440 0.41310 0.31910 0.07300
H 	H 	0.36880 0.00690 0.11300 -0.00200
H 	H 	0.19190 0.37810 0.50030 -0.02200
H 	H 	0.58070 0.67340 0.98240 -0.03100
H 	H 	0.07860 0.53040 0.13650 0.04600
H 	H 	0.32870 0.15220 0.90010 0.08900
H 	H 	0.70160 0.02690 0.07690 0.08600
H 	H 	0.55530 0.12540 0.04700 -0.02100
H 	H 	0.29840 0.97310 0.92310 0.08600
H 	H 	0.46540 0.96010 0.75170 0.08300
H 	H 	0.83250 0.66360 0.39880 0.07800
H 	H 	0.69900 0.52510 0.77250 0.06500
H 	H 	0.89390 0.76360 0.85010 -0.01000
H 	H 	0.84960 0.62450 0.89880 -0.01300
H 	H 	0.67550 0.83380 0.60370 -0.01500
H 	H 	0.03020 0.22500 0.47490 -0.01500
H 	H 	0.96980 0.77500 0.52510 -0.01500
H 	H 	0.53460 0.03990 0.24830 0.08300
C 	C 	0.81800 0.47990 0.81360 -0.07400
C 	C 	0.35890 0.22600 0.02100 -0.30000
C 	C 	0.85810 0.37760 0.79260 0.44100
C 	C 	0.73130 0.95160 0.18140 0.30700
C 	C 	0.81920 0.60450 0.87310 0.07200
C 	C 	0.75150 0.86410 0.87070 -0.27000
C 	C 	0.57710 0.69890 0.06850 -0.14300
C 	C 	0.92800 0.48340 0.29440 -0.11500
C 	C 	0.69030 0.63570 0.81700 0.07100
C 	C 	0.82580 0.82390 0.68900 0.10400
C 	C 	0.22420 0.40480 0.37230 -0.27900
C 	C 	0.08090 0.11040 0.15770 -0.07900
C 	C 	0.24090 0.97460 0.13760 -0.08000
C 	C 	0.70430 0.85390 0.63020 0.08000
C 	C 	0.07200 0.51660 0.70560 -0.11500
C 	C 	0.17420 0.17610 0.31100 0.10400
C 	C 	0.34160 0.05190 0.34760 -0.07300
C 	C 	0.40250 0.28960 0.99390 0.12900
C 	C 	0.29670 0.03310 0.12490 0.06700
C 	C 	0.91910 0.88960 0.84230 -0.07900
C 	C 	0.18200 0.52010 0.18640 -0.07400
C 	C 	0.39740 0.24770 0.89600 0.01100
C 	C 	0.86210 0.68590 0.42380 -0.12200
C 	C 	0.01480 0.39390 0.36970 -0.27800
C 	C 	0.93450 0.76550 0.33460 0.34000
C 	C 	0.73050 0.54510 0.79740 -0.07600
C 	C 	0.08110 0.26070 0.59970 -0.01700
C 	C 	0.01700 0.42900 0.31040 0.10200
C 	C 	0.34680 0.92080 0.28710 0.42200
C 	C 	0.78320 0.91520 0.70960 -0.08500
C 	C 	0.66870 0.82440 0.01480 0.12300
C 	C 	0.32670 0.37950 0.34930 0.11400
C 	C 	0.03620 0.22770 0.56280 -0.13000
C 	C 	0.16710 0.49380 0.66270 -0.00100
C 	C 	0.45320 0.11670 0.19090 0.11000
C 	C 	0.21680 0.08480 0.29040 -0.08500
C 	C 	0.42290 0.30110 0.93150 -0.14300
C 	C 	0.92140 0.41620 0.41150 0.10900
C 	C 	0.59750 0.71040 0.00610 0.12900
C 	C 	0.91890 0.73930 0.40030 -0.01700
C 	C 	0.94230 0.75090 0.49970 0.12700
C 	C 	0.75910 0.02540 0.86240 -0.08000
C 	C 	0.67330 0.62050 0.65070 0.11400
C 	C 	0.26750 0.33170 0.14279 -0.26600
C 	C 	0.13790 0.31410 0.57620 -0.12200
C 	C 	0.65840 0.94810 0.65240 -0.07300
C 	C 	0.11640 0.30300 0.47560 -0.30700
C 	C 	0.54400 0.85450 0.86970 -0.28500
C 	C 	0.06550 0.23450 0.66540 0.34000
C 	C 	0.70330 0.96690 0.87510 0.06700
C 	C 	0.30970 0.36430 0.18300 0.07100
C 	C 	0.83290 0.50620 0.33730 -0.00100
C 	C 	0.92800 0.05020 0.83210 0.31300
C 	C 	0.63860 0.04990 0.10570 -0.12900
C 	C 	0.13700 0.48910 0.14790 -0.07100
C 	C 	0.41440 0.26150 0.82870 0.29100
C 	C 	0.13240 0.01470 0.15320 -0.05800
C 	C 	0.33110 0.53630 0.34230 -0.07800
C 	C 	0.65320 0.07920 0.71290 0.42200
C 	C 	0.63280 0.02510 0.16540 0.01300
C 	C 	0.66890 0.46370 0.65770 -0.07800
C 	C 	0.86300 0.51090 0.85210 -0.07100
C 	C 	0.73280 0.57070 0.32160 0.30900
C 	C 	0.26720 0.42930 0.67840 0.30900
C 	C 	0.18080 0.39550 0.12690 0.07200
C 	C 	0.36720 0.97490 0.83460 0.01300
C 	C 	0.14190 0.62240 0.20740 0.44100
C 	C 	0.84560 0.66210 0.48510 0.11600
C 	C 	0.07860 0.58380 0.58850 0.10900
C 	C 	0.17010 0.50550 0.38180 0.05700
C 	C 	0.85980 0.82870 0.85390 0.07800
C 	C 	0.61230 0.39780 0.67720 0.36700
C 	C 	0.69810 0.97690 0.69190 -0.05500
C 	C 	0.77810 0.42910 0.63290 -0.06100
C 	C 	0.98300 0.57100 0.68960 0.10200
C 	C 	0.46100 0.94200 0.79210 -0.12700
C 	C 	0.96380 0.77230 0.43720 -0.13000
C 	C 	0.61730 0.56230 0.66560 -0.09700
C 	C 	0.53900 0.05800 0.20790 -0.12700
C 	C 	0.38270 0.43770 0.33440 -0.09700
C 	C 	0.05770 0.24910 0.50030 0.12700
C 	C 	0.73250 0.66830 0.85721 -0.26600
C 	C 	0.77580 0.59520 0.62770 -0.27900
C 	C 	0.20870 0.20930 0.35297 -0.27800
C 	C 	0.86760 0.98530 0.84680 -0.05800
C 	C 	0.79130 0.79070 0.64703 -0.27800
C 	C 	0.64110 0.77400 0.97900 -0.30000
C 	C 	0.88360 0.69700 0.52440 -0.30700
C 	C 	0.24850 0.13590 0.12930 -0.27000
C 	C 	0.30190 0.02310 0.30810 -0.05500
C 	C 	0.82970 0.46970 0.39460 -0.11900
C 	C 	0.36140 0.95010 0.89430 -0.12900
C 	C 	0.98520 0.60610 0.63030 -0.27800
C 	C 	0.45600 0.14550 0.13030 -0.28500
C 	C 	0.38770 0.60220 0.32280 0.36700
C 	C 	0.22190 0.57090 0.36710 -0.06100
C 	C 	0.44930 0.89050 0.91230 0.10800
C 	C 	0.34940 0.18670 0.92330 -0.14400
C 	C 	0.58560 0.73850 0.17130 0.29100
C 	C 	0.26950 0.45490 0.20260 -0.07600
C 	C 	0.65060 0.81330 0.07670 -0.14400
C 	C 	0.54680 0.88330 0.80910 0.11000
C 	C 	0.60260 0.75230 0.10400 0.01100
C 	C 	0.15440 0.33790 0.51490 0.11600
C 	C 	0.82990 0.49450 0.61820 0.05700
C 	C 	0.26870 0.04840 0.81860 0.30700
C 	C 	0.33130 0.17560 0.98520 0.12300
C 	C 	0.55070 0.10950 0.08770 0.10800
C 	C 	0.17030 0.53030 0.60540 -0.11900
C 	C 	0.14020 0.17130 0.14610 0.07800
C 	C 	0.29570 0.14610 0.36980 0.08000
C 	C 	0.07200 0.94980 0.16790 0.31300
N 	N 	0.08470 0.94120 0.36130 0.04400
N 	N 	0.91530 0.05880 0.63870 0.04400
O 	O 	0.52820 0.69190 0.19748 -0.44100
O 	O 	0.18980 0.07840 0.86074 -0.47800
O 	O 	0.34270 0.68700 0.31238 -0.57700
O 	O 	0.06580 0.95660 0.31265 -0.30800
O 	O 	0.51500 0.42710 0.68316 -0.47100
O 	O 	0.84640 0.13780 0.62512 -0.31500
O 	O 	0.01510 0.78680 0.30981 -0.54400
O 	O 	0.15360 0.86220 0.37488 -0.31500
O 	O 	0.73030 0.92990 0.23488 -0.44200
O 	O 	0.19440 0.64860 0.23134 -0.54200
O 	O 	0.56910 0.12760 0.69817 -0.54500
O 	O 	0.12780 0.23750 0.69516 -0.46700
O 	O 	0.62550 0.77320 0.20214 -0.42900
O 	O 	0.87220 0.76250 0.30484 -0.46700
O 	O 	0.80560 0.35140 0.76866 -0.54200
O 	O 	0.93420 0.04340 0.68735 -0.30800
O 	O 	0.30000 0.88990 0.25894 -0.54000
O 	O 	0.47180 0.30810 0.80252 -0.44100
O 	O 	0.01740 0.02380 0.84520 -0.43300
O 	O 	0.34480 0.39950 0.63491 -0.47500
O 	O 	0.05310 0.67140 0.19911 -0.54900
O 	O 	0.26730 0.40020 0.73041 -0.43700
O 	O 	0.95530 0.99720 0.58660 -0.11000
O 	O 	0.89460 0.13220 0.80822 -0.63500
O 	O 	0.10540 0.86780 0.19178 -0.63500
O 	O 	0.04470 0.00280 0.41340 -0.11000
O 	O 	0.98490 0.21320 0.69019 -0.54400
O 	O 	0.26970 0.07010 0.76512 -0.44200
O 	O 	0.94690 0.32860 0.80089 -0.54900
O 	O 	0.65520 0.60050 0.36509 -0.47500
O 	O 	0.43090 0.87240 0.30183 -0.54500
O 	O 	0.73270 0.59980 0.26959 -0.43700
O 	O 	0.48500 0.57290 0.31684 -0.47100
O 	O 	0.65730 0.31300 0.68762 -0.57700
O 	O 	0.70000 0.11010 0.74106 -0.54000
O 	O 	0.37450 0.22680 0.79786 -0.42900
O 	O 	0.98260 0.97620 0.15480 -0.43300
O 	O 	0.81020 0.92160 0.13926 -0.47800
