data_crystal

_cell_length_a 24.27420
_cell_length_b 16.12500
_cell_length_c 22.03310
_cell_angle_alpha 90.00000
_cell_angle_beta  100.22000
_cell_angle_gamma 90.00000

_symmetry_space_group_name_	'P 1'
_symmetry_space_group_name_H-M	'P 1'

loop_
_symmetry_equiv_pos_as_xyz
  x,y,z

loop_
_atom_site_label
_atom_site_type_symbol
_atom_site_fract_x
_atom_site_fract_y
_atom_site_fract_z
_atom_site_charge
Pr	Pr	0.25877 0.21054 0.59563 2.06000
Si	Si	0.37955 0.27381 0.00670 0.87400
C 	C 	0.35720 0.25880 0.92220 -0.34000
C 	C 	0.39290 0.23390 0.88190 0.16300
H 	H 	0.43000 0.22180 0.89830 -0.03500
C 	C 	0.30150 0.26970 0.89430 0.16400
H 	H 	0.27540 0.28290 0.91910 -0.03300
C 	C 	0.28330 0.26160 0.83140 -0.17000
H 	H 	0.24600 0.27130 0.81440 0.11400
C 	C 	0.37540 0.22660 0.81920 -0.16900
H 	H 	0.40080 0.21300 0.79380 0.10600
C 	C 	0.32000 0.23980 0.79470 0.06300
C 	C 	0.29940 0.23070 0.72570 0.27500
C 	C 	0.45760 0.27570 0.02800 -0.34700
C 	C 	0.48710 0.34440 0.05000 0.16900
H 	H 	0.46770 0.39350 0.05310 -0.03600
C 	C 	0.48810 0.20380 0.02500 0.15800
H 	H 	0.46920 0.15500 0.01210 -0.03800
C 	C 	0.54520 0.34410 0.06800 -0.17100
H 	H 	0.56380 0.39200 0.08380 0.10500
C 	C 	0.54630 0.20230 0.04060 -0.16800
H 	H 	0.56570 0.15350 0.03640 0.09600
C 	C 	0.57510 0.27260 0.06220 0.04900
C 	C 	0.63790 0.27430 0.07930 0.24600
C 	C 	0.35100 0.37560 0.02610 -0.31100
C 	C 	0.36020 0.44350 0.98800 0.10100
H 	H 	0.38000 0.43580 0.95600 -0.01300
C 	C 	0.32270 0.39030 0.07330 0.12400
H 	H 	0.31570 0.34650 0.09830 -0.02000
C 	C 	0.30370 0.47150 0.08510 -0.11300
H 	H 	0.28630 0.48090 0.11880 0.09100
C 	C 	0.33910 0.52270 0.99900 -0.10600
H 	H 	0.34450 0.56670 0.97340 0.07000
C 	C 	0.31110 0.53540 0.04660 -0.02800
C 	C 	0.28980 0.61870 0.05870 0.32200
C 	C 	0.35280 0.18840 0.05000 -0.33900
C 	C 	0.32220 0.12310 0.02210 0.14400
H 	H 	0.31390 0.12190 0.97920 -0.02900
C 	C 	0.36620 0.18570 0.11310 0.13800
H 	H 	0.38790 0.22800 0.13390 -0.02800
C 	C 	0.34810 0.12090 0.14670 -0.12900
H 	H 	0.35740 0.12080 0.18950 0.09100
C 	C 	0.30290 0.05880 0.05460 -0.13800
H 	H 	0.28080 0.01740 0.03340 0.07600
C 	C 	0.31600 0.05610 0.11630 -0.01000
C 	C 	0.29240 0.98680 0.15030 0.34900
O 	O 	0.33420 0.21660 0.69060 -0.41600
O 	O 	0.24810 0.23790 0.70470 -0.39100
O 	O 	0.66516 0.21130 0.06530 -0.40500
O 	O 	0.66138 0.33620 0.10670 -0.38700
O 	O 	0.28300 0.63900 0.11210 -0.42500
O 	O 	0.27710 0.67030 0.01380 -0.59300
O 	O 	0.30020 0.99490 0.20950 -0.24500
O 	O 	0.26720 0.92920 0.12300 -0.50600
Pr	Pr	0.75877 0.71054 0.59563 2.05900
Si	Si	0.87955 0.77381 0.00670 0.87000
C 	C 	0.85720 0.75880 0.92220 -0.33900
C 	C 	0.89290 0.73390 0.88190 0.16100
H 	H 	0.93000 0.72180 0.89830 -0.03500
C 	C 	0.80150 0.76970 0.89430 0.16100
H 	H 	0.77540 0.78290 0.91910 -0.03400
C 	C 	0.78330 0.76160 0.83140 -0.17000
H 	H 	0.74600 0.77130 0.81440 0.11300
C 	C 	0.87540 0.72660 0.81920 -0.16900
H 	H 	0.90080 0.71300 0.79380 0.10600
C 	C 	0.82000 0.73980 0.79470 0.06300
C 	C 	0.79940 0.73070 0.72570 0.27500
C 	C 	0.95760 0.77570 0.02800 -0.34500
C 	C 	0.98710 0.84440 0.05000 0.16600
H 	H 	0.96770 0.89350 0.05310 -0.03500
C 	C 	0.98810 0.70380 0.02500 0.15500
H 	H 	0.96920 0.65500 0.01210 -0.03700
C 	C 	0.04520 0.84410 0.06800 -0.16800
H 	H 	0.06380 0.89200 0.08380 0.10400
C 	C 	0.04630 0.70230 0.04060 -0.16500
H 	H 	0.06570 0.65350 0.03640 0.09600
C 	C 	0.07510 0.77260 0.06220 0.04800
C 	C 	0.13790 0.77430 0.07930 0.24700
C 	C 	0.85100 0.87560 0.02610 -0.31100
C 	C 	0.86020 0.94350 0.98800 0.10200
H 	H 	0.88000 0.93580 0.95600 -0.01300
C 	C 	0.82270 0.89030 0.07330 0.12400
H 	H 	0.81570 0.84650 0.09830 -0.02000
C 	C 	0.80370 0.97150 0.08510 -0.11300
H 	H 	0.78630 0.98090 0.11880 0.09000
C 	C 	0.83910 0.02270 0.99900 -0.10500
H 	H 	0.84450 0.06670 0.97340 0.07000
C 	C 	0.81110 0.03540 0.04660 -0.02800
C 	C 	0.78980 0.11870 0.05870 0.32200
C 	C 	0.85280 0.68840 0.05000 -0.33700
C 	C 	0.82220 0.62310 0.02210 0.14100
H 	H 	0.81390 0.62190 0.97920 -0.02700
C 	C 	0.86620 0.68570 0.11310 0.13600
H 	H 	0.88790 0.72800 0.13390 -0.02700
C 	C 	0.84810 0.62090 0.14670 -0.12800
H 	H 	0.85740 0.62080 0.18950 0.09100
C 	C 	0.80290 0.55880 0.05460 -0.13500
H 	H 	0.78080 0.51740 0.03340 0.07500
C 	C 	0.81600 0.55610 0.11630 -0.01100
C 	C 	0.79240 0.48680 0.15030 0.35000
O 	O 	0.83420 0.71660 0.69060 -0.41600
O 	O 	0.74810 0.73790 0.70470 -0.39100
O 	O 	0.16516 0.71130 0.06530 -0.40500
O 	O 	0.16138 0.83620 0.10670 -0.38700
O 	O 	0.78300 0.13900 0.11210 -0.42500
O 	O 	0.77710 0.17030 0.01380 -0.59300
O 	O 	0.80020 0.49490 0.20950 -0.24500
O 	O 	0.76720 0.42920 0.12300 -0.50600
Pr	Pr	0.74123 0.21054 0.90437 2.05900
Si	Si	0.62045 0.27381 0.49330 0.87100
C 	C 	0.64280 0.25880 0.57780 -0.34100
C 	C 	0.60710 0.23390 0.61810 0.16100
H 	H 	0.57000 0.22180 0.60170 -0.03500
C 	C 	0.69850 0.26970 0.60570 0.16200
H 	H 	0.72460 0.28290 0.58090 -0.03400
C 	C 	0.71670 0.26160 0.66860 -0.17000
H 	H 	0.75400 0.27130 0.68560 0.11300
C 	C 	0.62460 0.22660 0.68080 -0.17000
H 	H 	0.59920 0.21300 0.70620 0.10600
C 	C 	0.68000 0.23980 0.70530 0.06300
C 	C 	0.70060 0.23070 0.77430 0.27500
C 	C 	0.54240 0.27570 0.47200 -0.34700
C 	C 	0.51290 0.34440 0.45000 0.16800
H 	H 	0.53230 0.39350 0.44690 -0.03600
C 	C 	0.51190 0.20380 0.47500 0.15800
H 	H 	0.53080 0.15500 0.48790 -0.03800
C 	C 	0.45480 0.34410 0.43200 -0.17100
H 	H 	0.43620 0.39200 0.41620 0.10500
C 	C 	0.45370 0.20230 0.45940 -0.16800
H 	H 	0.43430 0.15350 0.46360 0.09600
C 	C 	0.42490 0.27260 0.43780 0.04900
C 	C 	0.36210 0.27430 0.42070 0.24600
C 	C 	0.64900 0.37560 0.47390 -0.31100
C 	C 	0.63980 0.44350 0.51200 0.10100
H 	H 	0.62000 0.43580 0.54400 -0.01300
C 	C 	0.67730 0.39030 0.42670 0.12400
H 	H 	0.68430 0.34650 0.40170 -0.02000
C 	C 	0.69630 0.47150 0.41490 -0.11300
H 	H 	0.71370 0.48090 0.38120 0.09000
C 	C 	0.66090 0.52270 0.50100 -0.10500
H 	H 	0.65550 0.56670 0.52660 0.07000
C 	C 	0.68890 0.53540 0.45340 -0.02800
C 	C 	0.71020 0.61870 0.44130 0.32200
C 	C 	0.64720 0.18840 0.45000 -0.33800
C 	C 	0.67780 0.12310 0.47790 0.14200
H 	H 	0.68610 0.12190 0.52080 -0.02800
C 	C 	0.63380 0.18570 0.38690 0.13700
H 	H 	0.61210 0.22800 0.36610 -0.02700
C 	C 	0.65190 0.12090 0.35330 -0.12900
H 	H 	0.64260 0.12080 0.31050 0.09100
C 	C 	0.69710 0.05880 0.44540 -0.13700
H 	H 	0.71920 0.01740 0.46660 0.07500
C 	C 	0.68400 0.05610 0.38370 -0.01100
C 	C 	0.70760 0.98680 0.34970 0.34900
O 	O 	0.66580 0.21660 0.80940 -0.41600
O 	O 	0.75190 0.23790 0.79530 -0.39100
O 	O 	0.33484 0.21130 0.43470 -0.40500
O 	O 	0.33862 0.33620 0.39330 -0.38700
O 	O 	0.71700 0.63900 0.38790 -0.42500
O 	O 	0.72290 0.67030 0.48620 -0.59300
O 	O 	0.69980 0.99490 0.29050 -0.24500
O 	O 	0.73280 0.92920 0.37700 -0.50600
Pr	Pr	0.24123 0.71054 0.90437 2.05900
Si	Si	0.12045 0.77381 0.49330 0.87200
C 	C 	0.14280 0.75880 0.57780 -0.34100
C 	C 	0.10710 0.73390 0.61810 0.16100
H 	H 	0.07000 0.72180 0.60170 -0.03500
C 	C 	0.19850 0.76970 0.60570 0.16200
H 	H 	0.22460 0.78290 0.58090 -0.03400
C 	C 	0.21670 0.76160 0.66860 -0.17000
H 	H 	0.25400 0.77130 0.68560 0.11300
C 	C 	0.12460 0.72660 0.68080 -0.17000
H 	H 	0.09920 0.71300 0.70620 0.10600
C 	C 	0.18000 0.73980 0.70530 0.06300
C 	C 	0.20060 0.73070 0.77430 0.27500
C 	C 	0.04240 0.77570 0.47200 -0.34700
C 	C 	0.01290 0.84440 0.45000 0.16900
H 	H 	0.03230 0.89350 0.44690 -0.03600
C 	C 	0.01190 0.70380 0.47500 0.15800
H 	H 	0.03080 0.65500 0.48790 -0.03800
C 	C 	0.95480 0.84410 0.43200 -0.17100
H 	H 	0.93620 0.89200 0.41620 0.10500
C 	C 	0.95370 0.70230 0.45940 -0.16800
H 	H 	0.93430 0.65350 0.46360 0.09600
C 	C 	0.92490 0.77260 0.43780 0.04900
C 	C 	0.86210 0.77430 0.42070 0.24600
C 	C 	0.14900 0.87560 0.47390 -0.31100
C 	C 	0.13980 0.94350 0.51200 0.10100
H 	H 	0.12000 0.93580 0.54400 -0.01300
C 	C 	0.17730 0.89030 0.42670 0.12400
H 	H 	0.18430 0.84650 0.40170 -0.02000
C 	C 	0.19630 0.97150 0.41490 -0.11300
H 	H 	0.21370 0.98090 0.38120 0.09000
C 	C 	0.16090 0.02270 0.50100 -0.10600
H 	H 	0.15550 0.06670 0.52660 0.07000
C 	C 	0.18890 0.03540 0.45340 -0.02800
C 	C 	0.21020 0.11870 0.44130 0.32200
C 	C 	0.14720 0.68840 0.45000 -0.33800
C 	C 	0.17780 0.62310 0.47790 0.14200
H 	H 	0.18610 0.62190 0.52080 -0.02800
C 	C 	0.13380 0.68570 0.38690 0.13700
H 	H 	0.11210 0.72800 0.36610 -0.02700
C 	C 	0.15190 0.62090 0.35330 -0.12900
H 	H 	0.14260 0.62080 0.31050 0.09100
C 	C 	0.19710 0.55880 0.44540 -0.13700
H 	H 	0.21920 0.51740 0.46660 0.07500
C 	C 	0.18400 0.55610 0.38370 -0.01100
C 	C 	0.20760 0.48680 0.34970 0.34900
O 	O 	0.16580 0.71660 0.80940 -0.41600
O 	O 	0.25190 0.73790 0.79530 -0.39100
O 	O 	0.83484 0.71130 0.43470 -0.40500
O 	O 	0.83862 0.83620 0.39330 -0.38700
O 	O 	0.21700 0.13900 0.38790 -0.42500
O 	O 	0.22290 0.17030 0.48620 -0.59300
O 	O 	0.19980 0.49490 0.29050 -0.24500
O 	O 	0.23280 0.42920 0.37700 -0.50600
Pr	Pr	0.74123 0.78946 0.40437 2.05900
Si	Si	0.62045 0.72619 0.99330 0.87300
C 	C 	0.64280 0.74120 0.07780 -0.34100
C 	C 	0.60710 0.76610 0.11810 0.16200
H 	H 	0.57000 0.77820 0.10170 -0.03600
C 	C 	0.69850 0.73030 0.10570 0.16300
H 	H 	0.72460 0.71710 0.08090 -0.03400
C 	C 	0.71670 0.73840 0.16860 -0.17100
H 	H 	0.75400 0.72870 0.18560 0.11300
C 	C 	0.62460 0.77340 0.18080 -0.17000
H 	H 	0.59920 0.78700 0.20620 0.10600
C 	C 	0.68000 0.76020 0.20530 0.06300
C 	C 	0.70060 0.76930 0.27430 0.27500
C 	C 	0.54240 0.72430 0.97200 -0.34700
C 	C 	0.51290 0.65560 0.95000 0.16900
H 	H 	0.53230 0.60650 0.94690 -0.03600
C 	C 	0.51190 0.79620 0.97500 0.15800
H 	H 	0.53080 0.84500 0.98790 -0.03800
C 	C 	0.45480 0.65590 0.93200 -0.17100
H 	H 	0.43620 0.60800 0.91620 0.10500
C 	C 	0.45370 0.79770 0.95940 -0.16800
H 	H 	0.43430 0.84650 0.96360 0.09600
C 	C 	0.42490 0.72740 0.93780 0.04900
C 	C 	0.36210 0.72570 0.92070 0.24600
C 	C 	0.64900 0.62440 0.97390 -0.31100
C 	C 	0.63980 0.55650 0.01200 0.10100
H 	H 	0.62000 0.56420 0.04400 -0.01300
C 	C 	0.67730 0.60970 0.92670 0.12400
H 	H 	0.68430 0.65350 0.90170 -0.02000
C 	C 	0.69630 0.52850 0.91490 -0.11300
H 	H 	0.71370 0.51910 0.88120 0.09100
C 	C 	0.66090 0.47730 0.00100 -0.10600
H 	H 	0.65550 0.43330 0.02660 0.07000
C 	C 	0.68890 0.46460 0.95340 -0.02800
C 	C 	0.71020 0.38130 0.94130 0.32200
C 	C 	0.64720 0.81160 0.95000 -0.33900
C 	C 	0.67780 0.87690 0.97790 0.14400
H 	H 	0.68610 0.87810 0.02080 -0.02900
C 	C 	0.63380 0.81430 0.88690 0.13800
H 	H 	0.61210 0.77200 0.86610 -0.02800
C 	C 	0.65190 0.87910 0.85330 -0.12900
H 	H 	0.64260 0.87920 0.81050 0.09100
C 	C 	0.69710 0.94120 0.94540 -0.13800
H 	H 	0.71920 0.98260 0.96660 0.07600
C 	C 	0.68400 0.94390 0.88370 -0.01000
C 	C 	0.70760 0.01320 0.84970 0.34900
O 	O 	0.66580 0.78340 0.30940 -0.41600
O 	O 	0.75190 0.76210 0.29530 -0.39100
O 	O 	0.33484 0.78870 0.93470 -0.40500
O 	O 	0.33862 0.66380 0.89330 -0.38700
O 	O 	0.71700 0.36100 0.88790 -0.42500
O 	O 	0.72290 0.32970 0.98620 -0.59300
O 	O 	0.69980 0.00510 0.79050 -0.24500
O 	O 	0.73280 0.07080 0.87700 -0.50600
Pr	Pr	0.24123 0.28946 0.40437 2.05900
Si	Si	0.12045 0.22619 0.99330 0.87000
C 	C 	0.14280 0.24120 0.07780 -0.33900
C 	C 	0.10710 0.26610 0.11810 0.16100
H 	H 	0.07000 0.27820 0.10170 -0.03500
C 	C 	0.19850 0.23030 0.10570 0.16100
H 	H 	0.22460 0.21710 0.08090 -0.03400
C 	C 	0.21670 0.23840 0.16860 -0.17000
H 	H 	0.25400 0.22870 0.18560 0.11300
C 	C 	0.12460 0.27340 0.18080 -0.16900
H 	H 	0.09920 0.28700 0.20620 0.10600
C 	C 	0.18000 0.26020 0.20530 0.06300
C 	C 	0.20060 0.26930 0.27430 0.27500
C 	C 	0.04240 0.22430 0.97200 -0.34500
C 	C 	0.01290 0.15560 0.95000 0.16600
H 	H 	0.03230 0.10650 0.94690 -0.03500
C 	C 	0.01190 0.29620 0.97500 0.15500
H 	H 	0.03080 0.34500 0.98790 -0.03700
C 	C 	0.95480 0.15590 0.93200 -0.16800
H 	H 	0.93620 0.10800 0.91620 0.10400
C 	C 	0.95370 0.29770 0.95940 -0.16500
H 	H 	0.93430 0.34650 0.96360 0.09600
C 	C 	0.92490 0.22740 0.93780 0.04800
C 	C 	0.86210 0.22570 0.92070 0.24700
C 	C 	0.14900 0.12440 0.97390 -0.31100
C 	C 	0.13980 0.05650 0.01200 0.10200
H 	H 	0.12000 0.06420 0.04400 -0.01300
C 	C 	0.17730 0.10970 0.92670 0.12400
H 	H 	0.18430 0.15350 0.90170 -0.02000
C 	C 	0.19630 0.02850 0.91490 -0.11300
H 	H 	0.21370 0.01910 0.88120 0.09000
C 	C 	0.16090 0.97730 0.00100 -0.10500
H 	H 	0.15550 0.93330 0.02660 0.07000
C 	C 	0.18890 0.96460 0.95340 -0.02800
C 	C 	0.21020 0.88130 0.94130 0.32200
C 	C 	0.14720 0.31160 0.95000 -0.33700
C 	C 	0.17780 0.37690 0.97790 0.14100
H 	H 	0.18610 0.37810 0.02080 -0.02700
C 	C 	0.13380 0.31430 0.88690 0.13600
H 	H 	0.11210 0.27200 0.86610 -0.02700
C 	C 	0.15190 0.37910 0.85330 -0.12800
H 	H 	0.14260 0.37920 0.81050 0.09100
C 	C 	0.19710 0.44120 0.94540 -0.13500
H 	H 	0.21920 0.48260 0.96660 0.07500
C 	C 	0.18400 0.44390 0.88370 -0.01100
C 	C 	0.20760 0.51320 0.84970 0.35000
O 	O 	0.16580 0.28340 0.30940 -0.41600
O 	O 	0.25190 0.26210 0.29530 -0.39100
O 	O 	0.83484 0.28870 0.93470 -0.40500
O 	O 	0.83862 0.16380 0.89330 -0.38700
O 	O 	0.21700 0.86100 0.88790 -0.42500
O 	O 	0.22290 0.82970 0.98620 -0.59300
O 	O 	0.19980 0.50510 0.79050 -0.24500
O 	O 	0.23280 0.57080 0.87700 -0.50600
Pr	Pr	0.25877 0.78946 0.09563 2.05900
Si	Si	0.37955 0.72619 0.50670 0.87100
C 	C 	0.35720 0.74120 0.42220 -0.34100
C 	C 	0.39290 0.76610 0.38190 0.16100
H 	H 	0.43000 0.77820 0.39830 -0.03500
C 	C 	0.30150 0.73030 0.39430 0.16200
H 	H 	0.27540 0.71710 0.41910 -0.03400
C 	C 	0.28330 0.73840 0.33140 -0.17000
H 	H 	0.24600 0.72870 0.31440 0.11300
C 	C 	0.37540 0.77340 0.31920 -0.17000
H 	H 	0.40080 0.78700 0.29380 0.10600
C 	C 	0.32000 0.76020 0.29470 0.06300
C 	C 	0.29940 0.76930 0.22570 0.27500
C 	C 	0.45760 0.72430 0.52800 -0.34700
C 	C 	0.48710 0.65560 0.55000 0.16800
H 	H 	0.46770 0.60650 0.55310 -0.03600
C 	C 	0.48810 0.79620 0.52500 0.15800
H 	H 	0.46920 0.84500 0.51210 -0.03800
C 	C 	0.54520 0.65590 0.56800 -0.17100
H 	H 	0.56380 0.60800 0.58380 0.10500
C 	C 	0.54630 0.79770 0.54060 -0.16800
H 	H 	0.56570 0.84650 0.53640 0.09600
C 	C 	0.57510 0.72740 0.56220 0.04900
C 	C 	0.63790 0.72570 0.57930 0.24600
C 	C 	0.35100 0.62440 0.52610 -0.31100
C 	C 	0.36020 0.55650 0.48800 0.10100
H 	H 	0.38000 0.56420 0.45600 -0.01300
C 	C 	0.32270 0.60970 0.57330 0.12400
H 	H 	0.31570 0.65350 0.59830 -0.02000
C 	C 	0.30370 0.52850 0.58510 -0.11300
H 	H 	0.28630 0.51910 0.61880 0.09000
C 	C 	0.33910 0.47730 0.49900 -0.10500
H 	H 	0.34450 0.43330 0.47340 0.07000
C 	C 	0.31110 0.46460 0.54660 -0.02800
C 	C 	0.28980 0.38130 0.55870 0.32200
C 	C 	0.35280 0.81160 0.55000 -0.33800
C 	C 	0.32220 0.87690 0.52210 0.14200
H 	H 	0.31390 0.87810 0.47920 -0.02800
C 	C 	0.36620 0.81430 0.61310 0.13700
H 	H 	0.38790 0.77200 0.63390 -0.02700
C 	C 	0.34810 0.87910 0.64670 -0.12900
H 	H 	0.35740 0.87920 0.68950 0.09100
C 	C 	0.30290 0.94120 0.55460 -0.13700
H 	H 	0.28080 0.98260 0.53340 0.07500
C 	C 	0.31600 0.94390 0.61630 -0.01100
C 	C 	0.29240 0.01320 0.65030 0.34900
O 	O 	0.33420 0.78340 0.19060 -0.41600
O 	O 	0.24810 0.76210 0.20470 -0.39100
O 	O 	0.66516 0.78870 0.56530 -0.40500
O 	O 	0.66138 0.66380 0.60670 -0.38700
O 	O 	0.28300 0.36100 0.61210 -0.42500
O 	O 	0.27710 0.32970 0.51380 -0.59300
O 	O 	0.30020 0.00510 0.70950 -0.24500
O 	O 	0.26720 0.07080 0.62300 -0.50600
Pr	Pr	0.75877 0.28946 0.09563 2.05900
Si	Si	0.87955 0.22619 0.50670 0.87200
C 	C 	0.85720 0.24120 0.42220 -0.34100
C 	C 	0.89290 0.26610 0.38190 0.16100
H 	H 	0.93000 0.27820 0.39830 -0.03500
C 	C 	0.80150 0.23030 0.39430 0.16200
H 	H 	0.77540 0.21710 0.41910 -0.03400
C 	C 	0.78330 0.23840 0.33140 -0.17000
H 	H 	0.74600 0.22870 0.31440 0.11300
C 	C 	0.87540 0.27340 0.31920 -0.17000
H 	H 	0.90080 0.28700 0.29380 0.10600
C 	C 	0.82000 0.26020 0.29470 0.06300
C 	C 	0.79940 0.26930 0.22570 0.27500
C 	C 	0.95760 0.22430 0.52800 -0.34700
C 	C 	0.98710 0.15560 0.55000 0.16900
H 	H 	0.96770 0.10650 0.55310 -0.03600
C 	C 	0.98810 0.29620 0.52500 0.15800
H 	H 	0.96920 0.34500 0.51210 -0.03800
C 	C 	0.04520 0.15590 0.56800 -0.17100
H 	H 	0.06380 0.10800 0.58380 0.10500
C 	C 	0.04630 0.29770 0.54060 -0.16800
H 	H 	0.06570 0.34650 0.53640 0.09600
C 	C 	0.07510 0.22740 0.56220 0.04900
C 	C 	0.13790 0.22570 0.57930 0.24600
C 	C 	0.85100 0.12440 0.52610 -0.31100
C 	C 	0.86020 0.05650 0.48800 0.10100
H 	H 	0.88000 0.06420 0.45600 -0.01300
C 	C 	0.82270 0.10970 0.57330 0.12400
H 	H 	0.81570 0.15350 0.59830 -0.02000
C 	C 	0.80370 0.02850 0.58510 -0.11300
H 	H 	0.78630 0.01910 0.61880 0.09000
C 	C 	0.83910 0.97730 0.49900 -0.10600
H 	H 	0.84450 0.93330 0.47340 0.07000
C 	C 	0.81110 0.96460 0.54660 -0.02800
C 	C 	0.78980 0.88130 0.55870 0.32200
C 	C 	0.85280 0.31160 0.55000 -0.33800
C 	C 	0.82220 0.37690 0.52210 0.14200
H 	H 	0.81390 0.37810 0.47920 -0.02800
C 	C 	0.86620 0.31430 0.61310 0.13700
H 	H 	0.88790 0.27200 0.63390 -0.02700
C 	C 	0.84810 0.37910 0.64670 -0.12900
H 	H 	0.85740 0.37920 0.68950 0.09100
C 	C 	0.80290 0.44120 0.55460 -0.13700
H 	H 	0.78080 0.48260 0.53340 0.07500
C 	C 	0.81600 0.44390 0.61630 -0.01100
C 	C 	0.79240 0.51320 0.65030 0.34900
O 	O 	0.83420 0.28340 0.19060 -0.41600
O 	O 	0.74810 0.26210 0.20470 -0.39100
O 	O 	0.16516 0.28870 0.56530 -0.40500
O 	O 	0.16138 0.16380 0.60670 -0.38700
O 	O 	0.78300 0.86100 0.61210 -0.42500
O 	O 	0.77710 0.82970 0.51380 -0.59300
O 	O 	0.80020 0.50510 0.70950 -0.24500
O 	O 	0.76720 0.57080 0.62300 -0.50600
