data_crystal

_cell_length_a 26.48420
_cell_length_b 5.89100
_cell_length_c 21.47120
_cell_angle_alpha 90.00000
_cell_angle_beta  111.53800
_cell_angle_gamma 90.00000

_symmetry_space_group_name_	'P 1'
_symmetry_space_group_name_H-M	'P 1'

loop_
_symmetry_equiv_pos_as_xyz
  x,y,z

loop_
_atom_site_label
_atom_site_type_symbol
_atom_site_fract_x
_atom_site_fract_y
_atom_site_fract_z
_atom_site_charge
O 	O 	0.05920 0.87730 0.30285 -0.50100
O 	O 	0.11910 0.66120 0.28800 -0.33200
N 	N 	0.99425 0.47210 0.32211 -0.24400
C 	C 	0.10690 0.81740 0.31520 0.40400
C 	C 	0.14950 0.94500 0.37000 -0.14300
C 	C 	0.13650 0.11430 0.40320 0.06500
H 	H 	0.10030 0.15580 0.39150 0.02000
C 	C 	0.17610 0.22830 0.45460 -0.11700
H 	H 	0.16520 0.33940 0.47780 0.07700
C 	C 	0.22890 0.18700 0.47250 0.04000
C 	C 	0.24320 0.07700 0.42510 -0.02100
C 	C 	0.20440 0.95400 0.37370 0.04500
C 	C 	0.96380 0.28320 0.30580 0.12300
H 	H 	0.94350 0.25640 0.26080 -0.00900
C 	C 	0.96110 0.12910 0.35180 -0.19100
H 	H 	0.93980 0.99990 0.33790 0.09800
C 	C 	0.99040 0.16520 0.41930 0.16500
C 	C 	0.02120 0.36110 0.43660 -0.22700
H 	H 	0.04090 0.39290 0.48140 0.10000
C 	C 	0.02290 0.51060 0.38750 0.06300
H 	H 	0.04430 0.64020 0.39990 -0.01100
C 	C 	0.98640 0.99620 0.46820 -0.02100
H 	H 	0.96250 0.87560 0.45190 0.04800
C 	C 	0.23850 0.94800 0.45830 -0.01900
C 	C 	0.19940 0.83400 0.40760 0.02800
O 	O 	0.55920 0.37730 0.30285 -0.48800
O 	O 	0.61910 0.16120 0.28800 -0.32900
N 	N 	0.49425 0.97210 0.32211 -0.26900
C 	C 	0.60690 0.31740 0.31520 0.40000
C 	C 	0.64950 0.44500 0.37000 -0.13700
C 	C 	0.63650 0.61430 0.40320 0.06000
H 	H 	0.60030 0.65580 0.39150 0.02700
C 	C 	0.67610 0.72830 0.45460 -0.11300
H 	H 	0.66520 0.83940 0.47780 0.07700
C 	C 	0.72890 0.68700 0.47250 0.03800
C 	C 	0.74320 0.57700 0.42510 -0.02200
C 	C 	0.70440 0.45400 0.37370 0.04600
C 	C 	0.46380 0.78320 0.30580 0.10500
H 	H 	0.44350 0.75640 0.26080 -0.00900
C 	C 	0.46110 0.62910 0.35180 -0.18300
H 	H 	0.43980 0.49990 0.33790 0.09100
C 	C 	0.49040 0.66520 0.41930 0.12500
C 	C 	0.52120 0.86110 0.43660 -0.17200
H 	H 	0.54090 0.89290 0.48140 0.09100
C 	C 	0.52290 0.01060 0.38750 0.08600
H 	H 	0.54430 0.14020 0.39990 -0.01000
C 	C 	0.48640 0.49620 0.46820 -0.09000
H 	H 	0.46250 0.37560 0.45190 0.06200
C 	C 	0.73850 0.44800 0.45830 -0.01500
C 	C 	0.69940 0.33400 0.40760 0.02600
O 	O 	0.94080 0.87730 0.19715 -0.46800
O 	O 	0.88090 0.66120 0.21200 -0.32300
N 	N 	0.00575 0.47210 0.17789 -0.29800
C 	C 	0.89310 0.81740 0.18480 0.39500
C 	C 	0.85050 0.94500 0.13000 -0.13400
C 	C 	0.86350 0.11430 0.09680 0.05800
H 	H 	0.89970 0.15580 0.10850 0.03200
C 	C 	0.82390 0.22830 0.04540 -0.11300
H 	H 	0.83480 0.33940 0.02220 0.07900
C 	C 	0.77110 0.18700 0.02750 0.04300
C 	C 	0.75680 0.07700 0.07490 -0.02200
C 	C 	0.79560 0.95400 0.12630 0.04400
C 	C 	0.03620 0.28320 0.19420 0.09100
H 	H 	0.05650 0.25640 0.23920 -0.01100
C 	C 	0.03890 0.12910 0.14820 -0.18000
H 	H 	0.06020 0.99990 0.16210 0.08700
C 	C 	0.00960 0.16520 0.08070 0.09000
C 	C 	0.97880 0.36110 0.06340 -0.13000
H 	H 	0.95910 0.39290 0.01860 0.08900
C 	C 	0.97710 0.51060 0.11250 0.12600
H 	H 	0.95570 0.64020 0.10010 -0.01300
C 	C 	0.01360 0.99620 0.03180 -0.14700
H 	H 	0.03750 0.87560 0.04810 0.07300
C 	C 	0.76150 0.94800 0.04170 -0.01500
C 	C 	0.80060 0.83400 0.09240 0.02700
O 	O 	0.44080 0.37730 0.19715 -0.48800
O 	O 	0.38090 0.16120 0.21200 -0.33000
N 	N 	0.50575 0.97210 0.17789 -0.26800
C 	C 	0.39310 0.31740 0.18480 0.40000
C 	C 	0.35050 0.44500 0.13000 -0.13900
C 	C 	0.36350 0.61430 0.09680 0.06200
H 	H 	0.39970 0.65580 0.10850 0.02600
C 	C 	0.32390 0.72830 0.04540 -0.11700
H 	H 	0.33480 0.83940 0.02220 0.07900
C 	C 	0.27110 0.68700 0.02750 0.04400
C 	C 	0.25680 0.57700 0.07490 -0.02400
C 	C 	0.29560 0.45400 0.12630 0.04600
C 	C 	0.53620 0.78320 0.19420 0.10300
H 	H 	0.55650 0.75640 0.23920 -0.00900
C 	C 	0.53890 0.62910 0.14820 -0.18000
H 	H 	0.56020 0.49990 0.16210 0.09000
C 	C 	0.50960 0.66520 0.08070 0.12000
C 	C 	0.47880 0.86110 0.06340 -0.16700
H 	H 	0.45910 0.89290 0.01860 0.09100
C 	C 	0.47710 0.01060 0.11250 0.08400
H 	H 	0.45570 0.14020 0.10010 -0.00900
C 	C 	0.51360 0.49620 0.03180 -0.07700
H 	H 	0.53750 0.37560 0.04810 0.05900
C 	C 	0.26150 0.44800 0.04170 -0.01400
C 	C 	0.30060 0.33400 0.09240 0.02600
O 	O 	0.94080 0.12270 0.69715 -0.46800
O 	O 	0.88090 0.33880 0.71200 -0.32300
N 	N 	0.00575 0.52790 0.67789 -0.29900
C 	C 	0.89310 0.18260 0.68480 0.39400
C 	C 	0.85050 0.05500 0.63000 -0.13200
C 	C 	0.86350 0.88570 0.59680 0.05500
H 	H 	0.89970 0.84420 0.60850 0.03300
C 	C 	0.82390 0.77170 0.54540 -0.10900
H 	H 	0.83480 0.66060 0.52220 0.07600
C 	C 	0.77110 0.81300 0.52750 0.03600
C 	C 	0.75680 0.92300 0.57490 -0.02100
C 	C 	0.79560 0.04600 0.62630 0.04400
C 	C 	0.03620 0.71680 0.69420 0.09300
H 	H 	0.05650 0.74360 0.73920 -0.01100
C 	C 	0.03890 0.87090 0.64820 -0.18400
H 	H 	0.06020 0.00010 0.66210 0.08800
C 	C 	0.00960 0.83480 0.58070 0.09400
C 	C 	0.97880 0.63890 0.56340 -0.13300
H 	H 	0.95910 0.60710 0.51860 0.08900
C 	C 	0.97710 0.48940 0.61250 0.12800
H 	H 	0.95570 0.35980 0.60010 -0.01400
C 	C 	0.01360 0.00380 0.53180 -0.16000
H 	H 	0.03750 0.12440 0.54810 0.07600
C 	C 	0.76150 0.05200 0.54170 -0.01600
C 	C 	0.80060 0.16600 0.59240 0.02600
O 	O 	0.44080 0.62270 0.69715 -0.48800
O 	O 	0.38090 0.83880 0.71200 -0.33000
N 	N 	0.50575 0.02790 0.67789 -0.26900
C 	C 	0.39310 0.68260 0.68480 0.40000
C 	C 	0.35050 0.55500 0.63000 -0.13700
C 	C 	0.36350 0.38570 0.59680 0.05900
H 	H 	0.39970 0.34420 0.60850 0.02700
C 	C 	0.32390 0.27170 0.54540 -0.11200
H 	H 	0.33480 0.16060 0.52220 0.07700
C 	C 	0.27110 0.31300 0.52750 0.03600
C 	C 	0.25680 0.42300 0.57490 -0.02300
C 	C 	0.29560 0.54600 0.62630 0.04500
C 	C 	0.53620 0.21680 0.69420 0.10500
H 	H 	0.55650 0.24360 0.73920 -0.00900
C 	C 	0.53890 0.37090 0.64820 -0.18200
H 	H 	0.56020 0.50010 0.66210 0.09100
C 	C 	0.50960 0.33480 0.58070 0.12400
C 	C 	0.47880 0.13890 0.56340 -0.17000
H 	H 	0.45910 0.10710 0.51860 0.09100
C 	C 	0.47710 0.98940 0.61250 0.08400
H 	H 	0.45570 0.85980 0.60010 -0.01000
C 	C 	0.51360 0.50380 0.53180 -0.08900
H 	H 	0.53750 0.62440 0.54810 0.06100
C 	C 	0.26150 0.55200 0.54170 -0.01500
C 	C 	0.30060 0.66600 0.59240 0.02500
O 	O 	0.05920 0.12270 0.80285 -0.50000
O 	O 	0.11910 0.33880 0.78800 -0.33200
N 	N 	0.99425 0.52790 0.82211 -0.24500
C 	C 	0.10690 0.18260 0.81520 0.40300
C 	C 	0.14950 0.05500 0.87000 -0.14000
C 	C 	0.13650 0.88570 0.90320 0.06000
H 	H 	0.10030 0.84420 0.89150 0.02200
C 	C 	0.17610 0.77170 0.95460 -0.11200
H 	H 	0.16520 0.66060 0.97780 0.07400
C 	C 	0.22890 0.81300 0.97250 0.03200
C 	C 	0.24320 0.92300 0.92510 -0.02200
C 	C 	0.20440 0.04600 0.87370 0.04600
C 	C 	0.96380 0.71680 0.80580 0.12400
H 	H 	0.94350 0.74360 0.76080 -0.01000
C 	C 	0.96110 0.87090 0.85180 -0.19500
H 	H 	0.93980 0.00010 0.83790 0.10000
C 	C 	0.99040 0.83480 0.91930 0.16800
C 	C 	0.02120 0.63890 0.93660 -0.22900
H 	H 	0.04090 0.60710 0.98140 0.09900
C 	C 	0.02290 0.48940 0.88750 0.06500
H 	H 	0.04430 0.35980 0.89990 -0.01200
C 	C 	0.98640 0.00380 0.96820 -0.03300
H 	H 	0.96250 0.12440 0.95190 0.05100
C 	C 	0.23850 0.05200 0.95830 -0.01700
C 	C 	0.19940 0.16600 0.90760 0.02600
O 	O 	0.55920 0.62270 0.80285 -0.48800
O 	O 	0.61910 0.83880 0.78800 -0.32900
N 	N 	0.49425 0.02790 0.82211 -0.26900
C 	C 	0.60690 0.68260 0.81520 0.39900
C 	C 	0.64950 0.55500 0.87000 -0.13600
C 	C 	0.63650 0.38570 0.90320 0.05700
H 	H 	0.60030 0.34420 0.89150 0.02800
C 	C 	0.67610 0.27170 0.95460 -0.10900
H 	H 	0.66520 0.16060 0.97780 0.07500
C 	C 	0.72890 0.31300 0.97250 0.03200
C 	C 	0.74320 0.42300 0.92510 -0.02000
C 	C 	0.70440 0.54600 0.87370 0.04500
C 	C 	0.46380 0.21680 0.80580 0.10600
H 	H 	0.44350 0.24360 0.76080 -0.01000
C 	C 	0.46110 0.37090 0.85180 -0.18500
H 	H 	0.43980 0.50010 0.83790 0.09200
C 	C 	0.49040 0.33480 0.91930 0.12900
C 	C 	0.52120 0.13890 0.93660 -0.17300
H 	H 	0.54090 0.10710 0.98140 0.09100
C 	C 	0.52290 0.98940 0.88750 0.08500
H 	H 	0.54430 0.85980 0.89990 -0.01000
C 	C 	0.48640 0.50380 0.96820 -0.10100
H 	H 	0.46250 0.62440 0.95190 0.06400
C 	C 	0.73850 0.55200 0.95830 -0.01700
C 	C 	0.69940 0.66600 0.90760 0.02500
Zn	Zn	0.00000 0.68393 0.25000 1.19800
Zn	Zn	0.50000 0.18393 0.25000 1.21100
Zn	Zn	-0.00000 0.31607 0.75000 1.19800
Zn	Zn	0.50000 0.81607 0.75000 1.21100
