data_crystal

_cell_length_a 8.77800
_cell_length_b 8.77800
_cell_length_c 30.64000
_cell_angle_alpha 90.00000
_cell_angle_beta  90.00000
_cell_angle_gamma 120.00000

_symmetry_space_group_name_	'P 1'
_symmetry_space_group_name_H-M	'P 1'

loop_
_symmetry_equiv_pos_as_xyz
  x,y,z

loop_
_atom_site_label
_atom_site_type_symbol
_atom_site_fract_x
_atom_site_fract_y
_atom_site_fract_z
_atom_site_charge
Cd	Cd	-0.00000 0.00000 -0.00000 1.09400
Cd	Cd	0.66667 0.33333 0.33333 1.16100
Cd	Cd	0.33333 0.66667 0.66667 1.16200
Cd	Cd	0.33333 0.66667 0.07489 1.14900
C 	C 	0.33333 0.66667 0.14870 -0.25800
Cd	Cd	-0.00000 -0.00000 0.40822 1.10200
C 	C 	-0.00000 0.00000 0.48203 -0.31600
Cd	Cd	0.66667 0.33333 0.74156 1.15000
C 	C 	0.66667 0.33333 0.81537 -0.25800
Cd	Cd	0.66667 0.33333 0.92511 1.15100
C 	C 	0.66667 0.33333 0.85130 -0.25600
Cd	Cd	0.33333 0.66667 0.25844 1.15000
C 	C 	0.33333 0.66667 0.18463 -0.25800
Cd	Cd	-0.00000 -0.00000 0.59178 1.10100
C 	C 	-0.00000 0.00000 0.51797 -0.31600
N 	N 	0.12710 0.87290 0.04360 -0.19300
C 	C 	0.19340 0.80660 0.05500 -0.29500
N 	N 	0.79377 0.20623 0.37693 -0.20200
C 	C 	0.86007 0.13993 0.38833 -0.25500
N 	N 	0.46043 0.53957 0.71027 -0.19800
C 	C 	0.52673 0.47327 0.72167 -0.28800
N 	N 	0.12710 0.25420 0.04360 -0.23300
C 	C 	0.19340 0.38680 0.05500 -0.32400
N 	N 	0.79377 0.58753 0.37693 -0.21000
C 	C 	0.86007 0.72013 0.38833 -0.17300
N 	N 	0.46043 0.92087 0.71027 -0.10400
C 	C 	0.52673 0.05347 0.72167 -0.42000
N 	N 	0.74580 0.87290 0.04360 -0.15700
C 	C 	0.61320 0.80660 0.05500 -0.26700
N 	N 	0.41247 0.20623 0.37693 -0.19400
C 	C 	0.27987 0.13993 0.38833 -0.34500
N 	N 	0.07913 0.53957 0.71027 -0.28600
C 	C 	0.94653 0.47327 0.72167 -0.16300
N 	N 	0.87290 0.12710 0.95640 -0.18600
C 	C 	0.80660 0.19340 0.94500 -0.28400
N 	N 	0.53957 0.46043 0.28973 -0.19800
C 	C 	0.47327 0.52673 0.27833 -0.28900
N 	N 	0.20623 0.79377 0.62307 -0.20200
C 	C 	0.13993 0.86007 0.61167 -0.25300
N 	N 	0.25420 0.12710 0.95640 -0.22500
C 	C 	0.38680 0.19340 0.94500 -0.31300
N 	N 	0.92087 0.46043 0.28973 -0.10700
C 	C 	0.05347 0.52673 0.27833 -0.41800
N 	N 	0.58753 0.79377 0.62307 -0.20900
C 	C 	0.72013 0.86007 0.61167 -0.17300
N 	N 	0.87290 0.74580 0.95640 -0.15000
C 	C 	0.80660 0.61320 0.94500 -0.25600
N 	N 	0.53957 0.07913 0.28973 -0.28900
C 	C 	0.47327 0.94653 0.27833 -0.16000
N 	N 	0.20623 0.41247 0.62307 -0.19400
C 	C 	0.13993 0.27987 0.61167 -0.34500
