data_crystal

_cell_length_a 11.11500
_cell_length_b 13.28700
_cell_length_c 8.66400
_cell_angle_alpha 90.00000
_cell_angle_beta  90.00000
_cell_angle_gamma 90.00000

_symmetry_space_group_name_	'P 1'
_symmetry_space_group_name_H-M	'P 1'

loop_
_symmetry_equiv_pos_as_xyz
  x,y,z

loop_
_atom_site_label
_atom_site_type_symbol
_atom_site_fract_x
_atom_site_fract_y
_atom_site_fract_z
_atom_site_charge
N 	N 	0.09600 0.95190 0.19100 -0.20200
N 	N 	0.36100 0.05800 0.19000 -0.22900
C 	C 	0.03500 0.93720 0.29300 -0.25700
C 	C 	0.41300 0.08900 0.28900 -0.32200
N 	N 	0.90400 0.45190 0.30900 -0.20800
N 	N 	0.63900 0.55800 0.31000 -0.19700
C 	C 	0.96500 0.43720 0.20700 -0.32700
C 	C 	0.58700 0.58900 0.21100 -0.32000
N 	N 	0.90400 0.45190 0.69100 -0.21500
N 	N 	0.63900 0.55800 0.69000 -0.20600
C 	C 	0.96500 0.43720 0.79300 -0.18900
C 	C 	0.58700 0.58900 0.78900 -0.18000
N 	N 	0.09600 0.95190 0.80900 -0.13900
N 	N 	0.36100 0.05800 0.81000 -0.16400
C 	C 	0.03500 0.93720 0.70700 -0.21100
C 	C 	0.41300 0.08900 0.71100 -0.27200
Cd	Cd	0.22899 0.00000 -0.00000 1.10500
N 	N 	0.13900 0.16100 -0.00000 -0.23200
N 	N 	0.33300 0.84900 -0.00000 -0.21200
C 	C 	0.11700 0.24000 -0.00000 -0.34600
C 	C 	0.39000 0.77600 -0.00000 -0.33300
Cd	Cd	0.77101 0.50000 0.50000 1.16900
N 	N 	0.86100 0.66100 0.50000 -0.19200
N 	N 	0.66700 0.34900 0.50000 -0.20700
C 	C 	0.88300 0.74000 0.50000 -0.26900
C 	C 	0.61000 0.27600 0.50000 -0.28500
Cd	Cd	0.92600 0.90320 0.50000 1.15200
Cd	Cd	0.50670 0.13500 0.50000 1.15600
C 	C 	0.75700 0.98600 0.50000 -0.15100
C 	C 	0.67200 0.03500 0.50000 -0.36600
Cd	Cd	0.07400 0.40320 -0.00000 1.12900
Cd	Cd	0.49330 0.63500 -0.00000 1.12500
C 	C 	0.24300 0.48600 -0.00000 -0.33000
C 	C 	0.32800 0.53500 -0.00000 -0.27500
