data_crystal

_cell_length_a 22.33000
_cell_length_b 13.29700
_cell_length_c 8.84600
_cell_angle_alpha 90.00000
_cell_angle_beta  90.00000
_cell_angle_gamma 90.00000

_symmetry_space_group_name_	'P 1'
_symmetry_space_group_name_H-M	'P 1'

loop_
_symmetry_equiv_pos_as_xyz
  x,y,z

loop_
_atom_site_label
_atom_site_type_symbol
_atom_site_fract_x
_atom_site_fract_y
_atom_site_fract_z
_atom_site_charge
N 	N 	0.07760 0.30230 0.06170 -0.20300
N 	N 	0.21450 0.37830 0.06140 -0.20800
C 	C 	0.04830 0.30000 0.95790 -0.29400
C 	C 	0.24190 0.39310 0.95760 -0.28500
N 	N 	0.42240 0.80230 0.93830 -0.20000
N 	N 	0.28550 0.87830 0.93860 -0.20600
C 	C 	0.45170 0.80000 0.04210 -0.29800
C 	C 	0.25810 0.89310 0.04240 -0.28800
N 	N 	0.92240 0.69770 0.56170 -0.20100
N 	N 	0.78550 0.62170 0.56140 -0.20700
C 	C 	0.95170 0.70000 0.45790 -0.29500
C 	C 	0.75810 0.60690 0.45760 -0.28500
N 	N 	0.57760 0.19770 0.43830 -0.20100
N 	N 	0.71450 0.12170 0.43860 -0.20700
C 	C 	0.54830 0.20000 0.54210 -0.29600
C 	C 	0.74190 0.10690 0.54240 -0.28500
N 	N 	0.92240 0.69770 0.93830 -0.20200
N 	N 	0.78550 0.62170 0.93860 -0.20700
C 	C 	0.95170 0.70000 0.04210 -0.29400
C 	C 	0.75810 0.60690 0.04240 -0.28500
N 	N 	0.57760 0.19770 0.06170 -0.20000
N 	N 	0.71450 0.12170 0.06140 -0.20600
C 	C 	0.54830 0.20000 0.95790 -0.29800
C 	C 	0.74190 0.10690 0.95760 -0.28800
N 	N 	0.07760 0.30230 0.43830 -0.20100
N 	N 	0.21450 0.37830 0.43860 -0.20700
C 	C 	0.04830 0.30000 0.54210 -0.29500
C 	C 	0.24190 0.39310 0.54240 -0.28500
N 	N 	0.42240 0.80230 0.56170 -0.20100
N 	N 	0.28550 0.87830 0.56140 -0.20700
C 	C 	0.45170 0.80000 0.45790 -0.29600
C 	C 	0.25810 0.89310 0.45760 -0.28500
Cd	Cd	0.14605 0.34057 0.25000 1.16700
N 	N 	0.09940 0.49920 0.25000 -0.20200
N 	N 	0.17890 0.17570 0.25000 -0.20500
C 	C 	0.06640 0.56020 0.25000 -0.27100
C 	C 	0.18770 0.09340 0.25000 -0.27500
Cd	Cd	0.35395 0.84057 0.75000 1.16700
N 	N 	0.40060 0.99920 0.75000 -0.20200
N 	N 	0.32110 0.67570 0.75000 -0.20500
C 	C 	0.43360 0.06020 0.75000 -0.27000
C 	C 	0.31230 0.59340 0.75000 -0.27700
Cd	Cd	0.85395 0.65943 0.75000 1.16700
N 	N 	0.90060 0.50080 0.75000 -0.20200
N 	N 	0.82110 0.82430 0.75000 -0.20500
C 	C 	0.93360 0.43980 0.75000 -0.27100
C 	C 	0.81230 0.90660 0.75000 -0.27500
Cd	Cd	0.64605 0.15943 0.25000 1.16700
N 	N 	0.59940 0.00080 0.25000 -0.20200
N 	N 	0.67890 0.32430 0.25000 -0.20500
C 	C 	0.56640 0.93980 0.25000 -0.27000
C 	C 	0.68770 0.40660 0.25000 -0.27700
Cd	Cd	0.29318 0.42918 0.75000 1.15300
Cd	Cd	0.99563 0.30661 0.75000 1.15400
C 	C 	0.92410 0.19250 0.75000 -0.26600
C 	C 	0.37960 0.34940 0.75000 -0.27600
Cd	Cd	0.20682 0.92918 0.25000 1.15300
Cd	Cd	0.50437 0.80661 0.25000 1.15400
C 	C 	0.57590 0.69250 0.25000 -0.26500
C 	C 	0.12040 0.84940 0.25000 -0.27600
Cd	Cd	0.70682 0.57082 0.25000 1.15300
Cd	Cd	0.00437 0.69339 0.25000 1.15400
C 	C 	0.07590 0.80750 0.25000 -0.26600
C 	C 	0.62040 0.65060 0.25000 -0.27600
Cd	Cd	0.79318 0.07082 0.75000 1.15300
Cd	Cd	0.49563 0.19339 0.75000 1.15400
C 	C 	0.42410 0.30750 0.75000 -0.26500
C 	C 	0.87960 0.15060 0.75000 -0.27600
