data_crystal

_cell_length_a 8.69400
_cell_length_b 11.21200
_cell_length_c 13.48300
_cell_angle_alpha 90.00000
_cell_angle_beta  90.00000
_cell_angle_gamma 90.00000

_symmetry_space_group_name_	'P 1'
_symmetry_space_group_name_H-M	'P 1'

loop_
_symmetry_equiv_pos_as_xyz
  x,y,z

loop_
_atom_site_label
_atom_site_type_symbol
_atom_site_fract_x
_atom_site_fract_y
_atom_site_fract_z
_atom_site_charge
Cd	Cd	-0.00000 0.76624 -0.00000 1.10700
Cd	Cd	0.50000 0.23376 0.50000 1.16900
Cd	Cd	0.50000 0.06788 0.10077 1.14900
Cd	Cd	0.50000 0.48572 0.86754 1.15500
Cd	Cd	0.00000 0.93212 0.60077 1.13000
Cd	Cd	-0.00000 0.51428 0.36754 1.12000
C 	C 	0.70730 0.96080 0.06120 -0.25100
C 	C 	0.70670 0.58000 0.91830 -0.23400
C 	C 	0.79270 0.03920 0.56120 -0.18400
C 	C 	0.79330 0.42000 0.41830 -0.18900
C 	C 	0.20730 0.03920 0.56120 -0.31800
C 	C 	0.20670 0.42000 0.41830 -0.33000
C 	C 	0.29270 0.96080 0.06120 -0.30100
C 	C 	0.29330 0.58000 0.91830 -0.28100
C 	C 	0.00000 0.87650 0.75800 -0.32700
C 	C 	-0.00000 0.62350 0.23090 -0.36000
C 	C 	0.50000 0.12350 0.25800 -0.28900
C 	C 	0.50000 0.37650 0.73090 -0.27200
C 	C 	0.50000 0.23910 0.01730 -0.42800
C 	C 	0.50000 0.32720 0.97570 -0.07300
C 	C 	0.00000 0.76090 0.51730 -0.31200
C 	C 	0.00000 0.67280 0.47570 -0.27300
N 	N 	0.80770 0.89920 0.04190 -0.17400
N 	N 	0.80750 0.63210 0.94930 -0.13000
N 	N 	0.69230 0.10080 0.54190 -0.21300
N 	N 	0.69250 0.36790 0.44930 -0.20500
N 	N 	0.30770 0.10080 0.54190 -0.20800
N 	N 	0.30750 0.36790 0.44930 -0.19800
N 	N 	0.19230 0.89920 0.04190 -0.23900
N 	N 	0.19250 0.63210 0.94930 -0.19300
N 	N 	0.00000 0.84210 0.83830 -0.20800
N 	N 	-0.00000 0.67750 0.15830 -0.24000
N 	N 	0.50000 0.15790 0.33830 -0.20100
N 	N 	0.50000 0.32250 0.65830 -0.19900
