data_crystal

_cell_length_a 21.62800
_cell_length_b 13.99800
_cell_length_c 8.94500
_cell_angle_alpha 90.00000
_cell_angle_beta  90.00000
_cell_angle_gamma 90.00000

_symmetry_space_group_name_	'P 1'
_symmetry_space_group_name_H-M	'P 1'

loop_
_symmetry_equiv_pos_as_xyz
  x,y,z

loop_
_atom_site_label
_atom_site_type_symbol
_atom_site_fract_x
_atom_site_fract_y
_atom_site_fract_z
_atom_site_charge
N 	N 	0.06320 0.28460 0.05300 -0.20700
N 	N 	0.20180 0.35810 0.06280 -0.19800
C 	C 	0.03260 0.29460 0.95260 -0.28400
C 	C 	0.22520 0.38710 0.95680 -0.29100
N 	N 	0.43680 0.78460 0.94700 -0.20700
N 	N 	0.29820 0.85810 0.93720 -0.19700
C 	C 	0.46740 0.79460 0.04740 -0.28700
C 	C 	0.27480 0.88710 0.04320 -0.29400
N 	N 	0.93680 0.71540 0.55300 -0.20800
N 	N 	0.79820 0.64190 0.56280 -0.19800
C 	C 	0.96740 0.70540 0.45260 -0.28500
C 	C 	0.77480 0.61290 0.45680 -0.29100
N 	N 	0.56320 0.21540 0.44700 -0.20800
N 	N 	0.70180 0.14190 0.43720 -0.19800
C 	C 	0.53260 0.20540 0.54740 -0.28600
C 	C 	0.72520 0.11290 0.54320 -0.29200
N 	N 	0.93680 0.71540 0.94700 -0.20800
N 	N 	0.79820 0.64190 0.93720 -0.19900
C 	C 	0.96740 0.70540 0.04740 -0.28400
C 	C 	0.77480 0.61290 0.04320 -0.29100
N 	N 	0.56320 0.21540 0.05300 -0.20700
N 	N 	0.70180 0.14190 0.06280 -0.19700
C 	C 	0.53260 0.20540 0.95260 -0.28700
C 	C 	0.72520 0.11290 0.95680 -0.29400
N 	N 	0.06320 0.28460 0.44700 -0.20800
N 	N 	0.20180 0.35810 0.43720 -0.19800
C 	C 	0.03260 0.29460 0.54740 -0.28500
C 	C 	0.22520 0.38710 0.54320 -0.29100
N 	N 	0.43680 0.78460 0.55300 -0.20800
N 	N 	0.29820 0.85810 0.56280 -0.19800
C 	C 	0.46740 0.79460 0.45260 -0.28600
C 	C 	0.27480 0.88710 0.45680 -0.29200
Cd	Cd	0.13000 0.31264 0.25000 1.16500
N 	N 	0.09490 0.46910 0.25000 -0.20200
N 	N 	0.16780 0.15420 0.25000 -0.20400
C 	C 	0.06950 0.53850 0.25000 -0.29200
C 	C 	0.18770 0.07850 0.25000 -0.29000
Cd	Cd	0.37000 0.81264 0.75000 1.16400
N 	N 	0.40510 0.96910 0.75000 -0.20100
N 	N 	0.33220 0.65420 0.75000 -0.20400
C 	C 	0.43050 0.03850 0.75000 -0.29200
C 	C 	0.31230 0.57850 0.75000 -0.29100
Cd	Cd	0.87000 0.68736 0.75000 1.16500
N 	N 	0.90510 0.53090 0.75000 -0.20200
N 	N 	0.83220 0.84580 0.75000 -0.20400
C 	C 	0.93050 0.46150 0.75000 -0.29200
C 	C 	0.81230 0.92150 0.75000 -0.29000
Cd	Cd	0.63000 0.18736 0.25000 1.16400
N 	N 	0.59490 0.03090 0.25000 -0.20100
N 	N 	0.66780 0.34580 0.25000 -0.20400
C 	C 	0.56950 0.96150 0.25000 -0.29200
C 	C 	0.68770 0.42150 0.25000 -0.29100
Cd	Cd	0.27139 0.43390 0.75000 1.15300
Cd	Cd	0.97510 0.31989 0.75000 1.15100
C 	C 	0.89430 0.21910 0.75000 -0.27000
C 	C 	0.35310 0.33210 0.75000 -0.24400
Cd	Cd	0.22861 0.93390 0.25000 1.15200
Cd	Cd	0.52490 0.81989 0.25000 1.15100
C 	C 	0.60570 0.71910 0.25000 -0.26900
C 	C 	0.14690 0.83210 0.25000 -0.24500
Cd	Cd	0.72861 0.56610 0.25000 1.15300
Cd	Cd	0.02490 0.68011 0.25000 1.15100
C 	C 	0.10570 0.78090 0.25000 -0.27000
C 	C 	0.64690 0.66790 0.25000 -0.24400
Cd	Cd	0.77139 0.06610 0.75000 1.15200
Cd	Cd	0.47510 0.18011 0.75000 1.15100
C 	C 	0.39430 0.28090 0.75000 -0.26900
C 	C 	0.85310 0.16790 0.75000 -0.24500
