data_crystal

_cell_length_a 8.71400
_cell_length_b 8.71400
_cell_length_c 20.43700
_cell_angle_alpha 90.00000
_cell_angle_beta  90.00000
_cell_angle_gamma 120.00000

_symmetry_space_group_name_	'P 1'
_symmetry_space_group_name_H-M	'P 1'

loop_
_symmetry_equiv_pos_as_xyz
  x,y,z

loop_
_atom_site_label
_atom_site_type_symbol
_atom_site_fract_x
_atom_site_fract_y
_atom_site_fract_z
_atom_site_charge
Cd	Cd	-0.00000 0.00000 -0.00000 1.07200
Cd	Cd	-0.00000 0.00000 0.50000 1.09300
Cd	Cd	0.33333 0.66667 0.11958 1.15600
C 	C 	0.33333 0.66667 0.22340 -0.28000
Cd	Cd	0.66667 0.33333 0.61958 1.16000
C 	C 	0.66667 0.33333 0.72340 -0.27700
Cd	Cd	0.66667 0.33333 0.88042 1.16300
C 	C 	0.66667 0.33333 0.77660 -0.27400
Cd	Cd	0.33333 0.66667 0.38042 1.15900
C 	C 	0.33333 0.66667 0.27660 -0.27800
N 	N 	0.12750 0.25500 0.06180 -0.25800
C 	C 	0.19500 0.39000 0.08540 -0.33700
N 	N 	0.74500 0.87250 0.06180 -0.15600
C 	C 	0.61000 0.80500 0.08540 -0.25700
N 	N 	0.12750 0.87250 0.06180 -0.20100
C 	C 	0.19500 0.80500 0.08540 -0.29400
N 	N 	0.87250 0.74500 0.56180 -0.14500
C 	C 	0.80500 0.61000 0.58540 -0.24100
N 	N 	0.25500 0.12750 0.56180 -0.24700
C 	C 	0.39000 0.19500 0.58540 -0.32100
N 	N 	0.87250 0.12750 0.56180 -0.19600
C 	C 	0.80500 0.19500 0.58540 -0.28200
N 	N 	0.25500 0.12750 0.93820 -0.23000
C 	C 	0.39000 0.19500 0.91460 -0.30400
N 	N 	0.87250 0.74500 0.93820 -0.13000
C 	C 	0.80500 0.61000 0.91460 -0.22500
N 	N 	0.87250 0.12750 0.93820 -0.18000
C 	C 	0.80500 0.19500 0.91460 -0.26600
N 	N 	0.74500 0.87250 0.43820 -0.14500
C 	C 	0.61000 0.80500 0.41460 -0.24100
N 	N 	0.12750 0.25500 0.43820 -0.24700
C 	C 	0.19500 0.39000 0.41460 -0.32200
N 	N 	0.12750 0.87250 0.43820 -0.19100
C 	C 	0.19500 0.80500 0.41460 -0.27800
