data_crystal

_cell_length_a 8.78700
_cell_length_b 8.78700
_cell_length_c 20.97000
_cell_angle_alpha 90.00000
_cell_angle_beta  90.00000
_cell_angle_gamma 120.00000

_symmetry_space_group_name_	'P 1'
_symmetry_space_group_name_H-M	'P 1'

loop_
_symmetry_equiv_pos_as_xyz
  x,y,z

loop_
_atom_site_label
_atom_site_type_symbol
_atom_site_fract_x
_atom_site_fract_y
_atom_site_fract_z
_atom_site_charge
Cd	Cd	-0.00000 0.00000 -0.00000 1.07200
Cd	Cd	-0.00000 0.00000 0.50000 1.09100
Cd	Cd	0.33333 0.66667 0.11610 1.15000
C 	C 	0.33333 0.66667 0.22230 -0.27300
Cd	Cd	0.66667 0.33333 0.61610 1.15300
C 	C 	0.66667 0.33333 0.72230 -0.27000
Cd	Cd	0.66667 0.33333 0.88390 1.15600
C 	C 	0.66667 0.33333 0.77770 -0.26700
Cd	Cd	0.33333 0.66667 0.38390 1.15300
C 	C 	0.33333 0.66667 0.27770 -0.27100
N 	N 	0.12840 0.25680 0.06040 -0.25400
C 	C 	0.19590 0.39180 0.08100 -0.33700
N 	N 	0.74320 0.87160 0.06040 -0.15500
C 	C 	0.60820 0.80410 0.08100 -0.26000
N 	N 	0.12840 0.87160 0.06040 -0.19900
C 	C 	0.19590 0.80410 0.08100 -0.29500
N 	N 	0.87160 0.74320 0.56040 -0.14500
C 	C 	0.80410 0.60820 0.58100 -0.24400
N 	N 	0.25680 0.12840 0.56040 -0.24400
C 	C 	0.39180 0.19590 0.58100 -0.32000
N 	N 	0.87160 0.12840 0.56040 -0.19500
C 	C 	0.80410 0.19590 0.58100 -0.28300
N 	N 	0.25680 0.12840 0.93960 -0.22800
C 	C 	0.39180 0.19590 0.91900 -0.30400
N 	N 	0.87160 0.74320 0.93960 -0.13100
C 	C 	0.80410 0.60820 0.91900 -0.22800
N 	N 	0.87160 0.12840 0.93960 -0.18000
C 	C 	0.80410 0.19590 0.91900 -0.26700
N 	N 	0.74320 0.87160 0.43960 -0.14500
C 	C 	0.60820 0.80410 0.41900 -0.24500
N 	N 	0.12840 0.25680 0.43960 -0.24400
C 	C 	0.19590 0.39180 0.41900 -0.32100
N 	N 	0.12840 0.87160 0.43960 -0.19000
C 	C 	0.19590 0.80410 0.41900 -0.28000
