data_crystal

_cell_length_a 43.39000
_cell_length_b 13.60200
_cell_length_c 8.77300
_cell_angle_alpha 90.00000
_cell_angle_beta  90.00000
_cell_angle_gamma 90.00000

_symmetry_space_group_name_	'P 1'
_symmetry_space_group_name_H-M	'P 1'

loop_
_symmetry_equiv_pos_as_xyz
  x,y,z

loop_
_atom_site_label
_atom_site_type_symbol
_atom_site_fract_x
_atom_site_fract_y
_atom_site_fract_z
_atom_site_charge
N 	N 	0.03100 0.27500 0.44200 -0.20400
N 	N 	0.09860 0.37500 0.43900 -0.19500
N 	N 	0.15910 0.88200 0.56000 -0.20600
N 	N 	0.22700 0.79400 0.55800 -0.20700
C 	C 	0.01500 0.28000 0.54300 -0.25900
C 	C 	0.10760 0.41700 0.53900 -0.24900
C 	C 	0.14450 0.90100 0.45700 -0.27300
C 	C 	0.24150 0.77200 0.45700 -0.28200
C 	C 	0.07600 0.66100 0.89500 -0.10800
N 	N 	0.46900 0.77500 0.55800 -0.20400
N 	N 	0.40140 0.87500 0.56100 -0.19500
N 	N 	0.34090 0.38200 0.44000 -0.20400
N 	N 	0.27300 0.29400 0.44200 -0.20500
C 	C 	0.48500 0.78000 0.45700 -0.26200
C 	C 	0.39240 0.91700 0.46100 -0.25500
C 	C 	0.35550 0.40100 0.54300 -0.26700
C 	C 	0.25850 0.27200 0.54300 -0.27800
C 	C 	0.42400 0.16100 0.10500 -0.10400
N 	N 	0.96900 0.72500 0.94200 -0.20400
N 	N 	0.90140 0.62500 0.93900 -0.19500
N 	N 	0.84090 0.11800 0.06000 -0.20300
N 	N 	0.77300 0.20600 0.05800 -0.20400
C 	C 	0.98500 0.72000 0.04300 -0.26300
C 	C 	0.89240 0.58300 0.03900 -0.25000
C 	C 	0.85550 0.09900 0.95700 -0.26900
C 	C 	0.75850 0.22800 0.95700 -0.28100
C 	C 	0.92400 0.33900 0.39500 -0.10700
N 	N 	0.53100 0.22500 0.05800 -0.20200
N 	N 	0.59860 0.12500 0.06100 -0.19300
N 	N 	0.65910 0.61800 0.94000 -0.20400
N 	N 	0.72700 0.70600 0.94200 -0.20500
C 	C 	0.51500 0.22000 0.95700 -0.26200
C 	C 	0.60760 0.08300 0.96100 -0.25000
C 	C 	0.64450 0.59900 0.04300 -0.26900
C 	C 	0.74150 0.72800 0.04300 -0.28100
C 	C 	0.57600 0.83900 0.60500 -0.10900
N 	N 	0.96900 0.72500 0.55800 -0.20400
N 	N 	0.90140 0.62500 0.56100 -0.19500
N 	N 	0.84090 0.11800 0.44000 -0.20400
N 	N 	0.77300 0.20600 0.44200 -0.20500
C 	C 	0.98500 0.72000 0.45700 -0.26200
C 	C 	0.89240 0.58300 0.46100 -0.25000
C 	C 	0.85550 0.09900 0.54300 -0.26600
C 	C 	0.75850 0.22800 0.54300 -0.27900
C 	C 	0.92400 0.33900 0.10500 -0.10700
N 	N 	0.53100 0.22500 0.44200 -0.20400
N 	N 	0.59860 0.12500 0.43900 -0.19500
N 	N 	0.65910 0.61800 0.56000 -0.20500
N 	N 	0.72700 0.70600 0.55800 -0.20500
C 	C 	0.51500 0.22000 0.54300 -0.26000
C 	C 	0.60760 0.08300 0.53900 -0.24700
C 	C 	0.64450 0.59900 0.45700 -0.26800
C 	C 	0.74150 0.72800 0.45700 -0.28000
C 	C 	0.57600 0.83900 0.89500 -0.10800
N 	N 	0.03100 0.27500 0.05800 -0.20200
N 	N 	0.09860 0.37500 0.06100 -0.19400
N 	N 	0.15910 0.88200 0.94000 -0.20500
N 	N 	0.22700 0.79400 0.94200 -0.20600
C 	C 	0.01500 0.28000 0.95700 -0.26100
C 	C 	0.10760 0.41700 0.96100 -0.25000
C 	C 	0.14450 0.90100 0.04300 -0.27500
C 	C 	0.24150 0.77200 0.04300 -0.28300
C 	C 	0.07600 0.66100 0.60500 -0.10800
N 	N 	0.46900 0.77500 0.94200 -0.20300
N 	N 	0.40140 0.87500 0.93900 -0.19400
N 	N 	0.34090 0.38200 0.06000 -0.20400
N 	N 	0.27300 0.29400 0.05800 -0.20400
C 	C 	0.48500 0.78000 0.04300 -0.26300
C 	C 	0.39240 0.91700 0.03900 -0.25700
C 	C 	0.35550 0.40100 0.95700 -0.26900
C 	C 	0.25850 0.27200 0.95700 -0.28000
C 	C 	0.42400 0.16100 0.39500 -0.10500
Cd	Cd	0.06455 0.31460 0.25000 1.17300
Cd	Cd	0.01291 0.69480 0.25000 1.16000
Cd	Cd	0.11654 0.93470 0.25000 1.15300
N 	N 	0.08730 0.15800 0.25000 -0.20000
N 	N 	0.04500 0.47100 0.25000 -0.19800
C 	C 	0.09720 0.08200 0.25000 -0.27600
C 	C 	0.03350 0.54500 0.25000 -0.23600
C 	C 	0.05480 0.79100 0.25000 -0.23700
C 	C 	0.07620 0.83200 0.25000 -0.24900
Cd	Cd	0.43545 0.81460 0.75000 1.17200
Cd	Cd	0.48709 0.19480 0.75000 1.16000
Cd	Cd	0.38346 0.43470 0.75000 1.15600
N 	N 	0.41270 0.65800 0.75000 -0.19900
N 	N 	0.45500 0.97100 0.75000 -0.20700
C 	C 	0.40280 0.58200 0.75000 -0.28800
C 	C 	0.46650 0.04500 0.75000 -0.22400
C 	C 	0.44520 0.29100 0.75000 -0.23700
C 	C 	0.42380 0.33200 0.75000 -0.24500
Cd	Cd	0.93545 0.68540 0.75000 1.17200
Cd	Cd	0.98709 0.30520 0.75000 1.16000
Cd	Cd	0.88346 0.06530 0.75000 1.15700
N 	N 	0.91270 0.84200 0.75000 -0.19900
N 	N 	0.95500 0.52900 0.75000 -0.19800
C 	C 	0.90280 0.91800 0.75000 -0.29000
C 	C 	0.96650 0.45500 0.75000 -0.23600
C 	C 	0.94520 0.20900 0.75000 -0.23600
C 	C 	0.92380 0.16800 0.75000 -0.24400
Cd	Cd	0.56455 0.18540 0.25000 1.17300
Cd	Cd	0.51291 0.80520 0.25000 1.16000
Cd	Cd	0.61654 0.56530 0.25000 1.15600
N 	N 	0.58730 0.34200 0.25000 -0.19900
N 	N 	0.54500 0.02900 0.25000 -0.19000
C 	C 	0.59720 0.41800 0.25000 -0.28700
C 	C 	0.53350 0.95500 0.25000 -0.24700
C 	C 	0.55480 0.70900 0.25000 -0.23700
C 	C 	0.57620 0.66800 0.25000 -0.24600
Cd	Cd	0.19273 0.83630 0.75000 1.16700
Cd	Cd	0.23129 0.23800 0.75000 1.15300
Cd	Cd	0.11966 0.49670 0.75000 1.16600
N 	N 	0.16820 0.68100 0.75000 -0.19500
N 	N 	0.21170 0.00000 0.75000 -0.19100
N 	N 	0.16680 0.36000 0.75000 -0.14800
C 	C 	0.15350 0.61600 0.75000 -0.26000
C 	C 	0.22000 0.07900 0.75000 -0.27300
C 	C 	0.18530 0.31900 0.75000 -0.26200
N 	N 	0.07520 0.59900 0.75000 -0.18200
C 	C 	0.04950 0.53800 0.75000 -0.10200
Cd	Cd	0.30727 0.33630 0.25000 1.16900
Cd	Cd	0.26871 0.73800 0.25000 1.15200
Cd	Cd	0.38034 0.99670 0.25000 1.16200
N 	N 	0.33180 0.18100 0.25000 -0.19600
N 	N 	0.28830 0.50000 0.25000 -0.19700
N 	N 	0.33320 0.86000 0.25000 -0.14900
C 	C 	0.34650 0.11600 0.25000 -0.25000
C 	C 	0.28000 0.57900 0.25000 -0.27800
C 	C 	0.31470 0.81900 0.25000 -0.26600
N 	N 	0.42480 0.09900 0.25000 -0.18100
C 	C 	0.45050 0.03800 0.25000 -0.09400
Cd	Cd	0.80727 0.16370 0.25000 1.16900
Cd	Cd	0.76871 0.76200 0.25000 1.15300
Cd	Cd	0.88034 0.50330 0.25000 1.16600
N 	N 	0.83180 0.31900 0.25000 -0.19500
N 	N 	0.78830 -0.00000 0.25000 -0.19300
N 	N 	0.83320 0.64000 0.25000 -0.14800
C 	C 	0.84650 0.38400 0.25000 -0.26000
C 	C 	0.78000 0.92100 0.25000 -0.28200
C 	C 	0.81470 0.68100 0.25000 -0.26400
N 	N 	0.92480 0.40100 0.25000 -0.18200
C 	C 	0.95050 0.46200 0.25000 -0.10200
Cd	Cd	0.69273 0.66370 0.75000 1.16900
Cd	Cd	0.73129 0.26200 0.75000 1.15300
Cd	Cd	0.61966 0.00330 0.75000 1.16700
N 	N 	0.66820 0.81900 0.75000 -0.19500
N 	N 	0.71170 0.50000 0.75000 -0.19700
N 	N 	0.66680 0.14000 0.75000 -0.14700
C 	C 	0.65350 0.88400 0.75000 -0.26100
C 	C 	0.72000 0.42100 0.75000 -0.27800
C 	C 	0.68530 0.18100 0.75000 -0.26300
N 	N 	0.57520 0.90100 0.75000 -0.18200
C 	C 	0.54950 0.96200 0.75000 -0.10500
