data_crystal

_cell_length_a 22.25600
_cell_length_b 13.48900
_cell_length_c 8.86800
_cell_angle_alpha 90.00000
_cell_angle_beta  90.00000
_cell_angle_gamma 90.00000

_symmetry_space_group_name_	'P 1'
_symmetry_space_group_name_H-M	'P 1'

loop_
_symmetry_equiv_pos_as_xyz
  x,y,z

loop_
_atom_site_label
_atom_site_type_symbol
_atom_site_fract_x
_atom_site_fract_y
_atom_site_fract_z
_atom_site_charge
N 	N 	0.07220 0.29710 0.06300 -0.20000
N 	N 	0.20940 0.37960 0.06100 -0.20900
C 	C 	0.04430 0.29800 0.95800 -0.29800
C 	C 	0.23710 0.39920 0.95700 -0.28600
N 	N 	0.42780 0.79710 0.93700 -0.19700
N 	N 	0.29060 0.87960 0.93900 -0.20700
C 	C 	0.45570 0.79800 0.04200 -0.30200
C 	C 	0.26290 0.89920 0.04300 -0.28900
N 	N 	0.92780 0.70290 0.56300 -0.19800
N 	N 	0.79060 0.62040 0.56100 -0.20800
C 	C 	0.95570 0.70200 0.45800 -0.29900
C 	C 	0.76290 0.60080 0.45700 -0.28600
N 	N 	0.57220 0.20290 0.43700 -0.19800
N 	N 	0.70940 0.12040 0.43900 -0.20800
C 	C 	0.54430 0.20200 0.54200 -0.30000
C 	C 	0.73710 0.10080 0.54300 -0.28700
N 	N 	0.92780 0.70290 0.93700 -0.19900
N 	N 	0.79060 0.62040 0.93900 -0.20800
C 	C 	0.95570 0.70200 0.04200 -0.29800
C 	C 	0.76290 0.60080 0.04300 -0.28600
N 	N 	0.57220 0.20290 0.06300 -0.19700
N 	N 	0.70940 0.12040 0.06100 -0.20700
C 	C 	0.54430 0.20200 0.95800 -0.30200
C 	C 	0.73710 0.10080 0.95700 -0.28900
N 	N 	0.07220 0.29710 0.43700 -0.19800
N 	N 	0.20940 0.37960 0.43900 -0.20800
C 	C 	0.04430 0.29800 0.54200 -0.29900
C 	C 	0.23710 0.39920 0.54300 -0.28600
N 	N 	0.42780 0.79710 0.56300 -0.19800
N 	N 	0.29060 0.87960 0.56100 -0.20800
C 	C 	0.45570 0.79800 0.45800 -0.30000
C 	C 	0.26290 0.89920 0.45700 -0.28700
Cd	Cd	0.14225 0.33690 0.25000 1.16600
N 	N 	0.09790 0.49400 0.25000 -0.20300
N 	N 	0.17740 0.17500 0.25000 -0.20700
C 	C 	0.06700 0.55600 0.25000 -0.26600
C 	C 	0.18970 0.09500 0.25000 -0.27500
Cd	Cd	0.35775 0.83690 0.75000 1.16600
N 	N 	0.40210 0.99400 0.75000 -0.20300
N 	N 	0.32260 0.67500 0.75000 -0.20700
C 	C 	0.43300 0.05600 0.75000 -0.26600
C 	C 	0.31030 0.59500 0.75000 -0.27700
Cd	Cd	0.85775 0.66310 0.75000 1.16600
N 	N 	0.90210 0.50600 0.75000 -0.20300
N 	N 	0.82260 0.82500 0.75000 -0.20700
C 	C 	0.93300 0.44400 0.75000 -0.26600
C 	C 	0.81030 0.90500 0.75000 -0.27500
Cd	Cd	0.64225 0.16310 0.25000 1.16600
N 	N 	0.59790 0.00600 0.25000 -0.20300
N 	N 	0.67740 0.32500 0.25000 -0.20700
C 	C 	0.56700 0.94400 0.25000 -0.26600
C 	C 	0.68970 0.40500 0.25000 -0.27700
Cd	Cd	0.28819 0.43381 0.75000 1.15600
Cd	Cd	0.99165 0.30630 0.75000 1.14800
C 	C 	0.91290 0.19600 0.75000 -0.23900
C 	C 	0.37020 0.34800 0.75000 -0.29400
Cd	Cd	0.21181 0.93381 0.25000 1.15500
Cd	Cd	0.50835 0.80630 0.25000 1.14900
C 	C 	0.58710 0.69600 0.25000 -0.23800
C 	C 	0.12980 0.84800 0.25000 -0.29400
Cd	Cd	0.71181 0.56619 0.25000 1.15600
Cd	Cd	0.00835 0.69370 0.25000 1.14800
C 	C 	0.08710 0.80400 0.25000 -0.23900
C 	C 	0.62980 0.65200 0.25000 -0.29400
Cd	Cd	0.78819 0.06619 0.75000 1.15500
Cd	Cd	0.49165 0.19370 0.75000 1.14900
C 	C 	0.41290 0.30400 0.75000 -0.23800
C 	C 	0.87020 0.15200 0.75000 -0.29400
