data_crystal

_cell_length_a 8.81400
_cell_length_b 8.81400
_cell_length_c 20.56700
_cell_angle_alpha 90.00000
_cell_angle_beta  90.00000
_cell_angle_gamma 120.00000

_symmetry_space_group_name_	'P 1'
_symmetry_space_group_name_H-M	'P 1'

loop_
_symmetry_equiv_pos_as_xyz
  x,y,z

loop_
_atom_site_label
_atom_site_type_symbol
_atom_site_fract_x
_atom_site_fract_y
_atom_site_fract_z
_atom_site_charge
Cd	Cd	-0.00000 0.00000 -0.00000 1.07200
Cd	Cd	0.00000 0.00000 0.50000 1.09200
Cd	Cd	0.33333 0.66667 0.11370 1.14700
C 	C 	0.33333 0.66667 0.22200 -0.27200
Cd	Cd	0.66667 0.33333 0.61370 1.15000
C 	C 	0.66667 0.33333 0.72200 -0.26800
Cd	Cd	0.66667 0.33333 0.88630 1.15300
C 	C 	0.66667 0.33333 0.77800 -0.26500
Cd	Cd	0.33333 0.66667 0.38630 1.15000
C 	C 	0.33333 0.66667 0.27800 -0.27000
N 	N 	0.12600 0.25200 0.06150 -0.25700
C 	C 	0.19400 0.38800 0.07980 -0.33600
N 	N 	0.74800 0.87400 0.06150 -0.15600
C 	C 	0.61200 0.80600 0.07980 -0.25900
N 	N 	0.12600 0.87400 0.06150 -0.20100
C 	C 	0.19400 0.80600 0.07980 -0.29400
N 	N 	0.87400 0.74800 0.56150 -0.14600
C 	C 	0.80600 0.61200 0.57980 -0.24200
N 	N 	0.25200 0.12600 0.56150 -0.24700
C 	C 	0.38800 0.19400 0.57980 -0.31800
N 	N 	0.87400 0.12600 0.56150 -0.19700
C 	C 	0.80600 0.19400 0.57980 -0.28100
N 	N 	0.25200 0.12600 0.93850 -0.23100
C 	C 	0.38800 0.19400 0.92020 -0.30000
N 	N 	0.87400 0.74800 0.93850 -0.13100
C 	C 	0.80600 0.61200 0.92020 -0.22400
N 	N 	0.87400 0.12600 0.93850 -0.18200
C 	C 	0.80600 0.19400 0.92020 -0.26400
N 	N 	0.74800 0.87400 0.43850 -0.14600
C 	C 	0.61200 0.80600 0.42020 -0.24200
N 	N 	0.12600 0.25200 0.43850 -0.24700
C 	C 	0.19400 0.38800 0.42020 -0.31900
N 	N 	0.12600 0.87400 0.43850 -0.19200
C 	C 	0.19400 0.80600 0.42020 -0.27700
