data_crystal

_cell_length_a 10.81700
_cell_length_b 27.55300
_cell_length_c 9.04800
_cell_angle_alpha 90.00000
_cell_angle_beta  90.00000
_cell_angle_gamma 90.00000

_symmetry_space_group_name_	'P 1'
_symmetry_space_group_name_H-M	'P 1'

loop_
_symmetry_equiv_pos_as_xyz
  x,y,z

loop_
_atom_site_label
_atom_site_type_symbol
_atom_site_fract_x
_atom_site_fract_y
_atom_site_fract_z
_atom_site_charge
N 	N 	0.21000 0.97800 0.19900 -0.20600
N 	N 	0.47500 0.02400 0.19700 -0.22100
N 	N 	0.00600 0.21600 0.31900 -0.20600
N 	N 	0.72500 0.26200 0.34200 -0.21800
C 	C 	0.16000 0.96400 0.29900 -0.29400
C 	C 	0.52600 0.03400 0.29800 -0.31500
C 	C 	0.06000 0.21100 0.21100 -0.31900
C 	C 	0.30900 0.77200 0.22800 -0.28500
N 	N 	0.79000 0.47800 0.80100 -0.15100
N 	N 	0.52500 0.52400 0.80300 -0.14600
N 	N 	0.99400 0.71600 0.68100 -0.21400
N 	N 	0.27500 0.76200 0.65800 -0.23100
C 	C 	0.84000 0.46400 0.70100 -0.25900
C 	C 	0.47400 0.53400 0.70200 -0.25200
C 	C 	0.94000 0.71100 0.78900 -0.17300
C 	C 	0.69100 0.27200 0.77200 -0.15100
N 	N 	0.79000 0.47800 0.19900 -0.21600
N 	N 	0.52500 0.52400 0.19700 -0.21300
N 	N 	0.99400 0.71600 0.31900 -0.20400
N 	N 	0.27500 0.76200 0.34200 -0.21700
C 	C 	0.84000 0.46400 0.29900 -0.30500
C 	C 	0.47400 0.53400 0.29800 -0.29800
C 	C 	0.94000 0.71100 0.21100 -0.31500
C 	C 	0.69100 0.27200 0.22800 -0.28800
N 	N 	0.21000 0.97800 0.80100 -0.14000
N 	N 	0.47500 0.02400 0.80300 -0.15300
N 	N 	0.00600 0.21600 0.68100 -0.21500
N 	N 	0.72500 0.26200 0.65800 -0.23200
C 	C 	0.16000 0.96400 0.70100 -0.24800
C 	C 	0.52600 0.03400 0.70200 -0.26900
C 	C 	0.06000 0.21100 0.78900 -0.17600
C 	C 	0.30900 0.77200 0.77200 -0.14900
Cd	Cd	0.34050 0.00000 -0.00000 1.10800
Cd	Cd	0.16210 0.19410 -0.00000 1.11700
Cd	Cd	0.39670 0.80110 -0.00000 1.10500
N 	N 	0.25800 0.08000 -0.00000 -0.22900
N 	N 	0.41000 0.92000 -0.00000 -0.22000
C 	C 	0.23200 0.11800 -0.00000 -0.35000
C 	C 	0.42600 0.88100 -0.00000 -0.34900
C 	C 	0.58100 0.76100 -0.00000 -0.29900
C 	C 	0.32700 0.24200 -0.00000 -0.31700
Cd	Cd	0.65950 0.50000 -0.00000 1.12200
Cd	Cd	0.83790 0.69410 -0.00000 1.11800
Cd	Cd	0.60330 0.30110 -0.00000 1.10500
N 	N 	0.74200 0.58000 -0.00000 -0.22300
N 	N 	0.59000 0.42000 -0.00000 -0.22900
C 	C 	0.76800 0.61800 -0.00000 -0.34400
C 	C 	0.57400 0.38100 -0.00000 -0.35400
C 	C 	0.41900 0.26100 -0.00000 -0.30200
C 	C 	0.67300 0.74200 -0.00000 -0.31500
Cd	Cd	0.86470 0.23700 0.50000 1.17800
Cd	Cd	0.63190 0.05160 0.50000 1.14600
Cd	Cd	0.06670 0.93970 0.50000 1.15700
N 	N 	0.78200 0.15900 0.50000 -0.20200
N 	N 	0.94000 0.31700 0.50000 -0.19500
C 	C 	0.73300 0.12300 0.50000 -0.27900
C 	C 	0.05800 0.85800 0.50000 -0.26600
C 	C 	0.79100 0.99800 0.50000 -0.21400
C 	C 	0.88000 0.97800 0.50000 -0.24800
Cd	Cd	0.13530 0.73700 0.50000 1.17800
Cd	Cd	0.36810 0.55160 0.50000 1.15300
Cd	Cd	0.93330 0.43970 0.50000 1.15500
N 	N 	0.21800 0.65900 0.50000 -0.20100
N 	N 	0.06000 0.81700 0.50000 -0.19500
C 	C 	0.26700 0.62300 0.50000 -0.26800
C 	C 	0.94200 0.35800 0.50000 -0.26900
C 	C 	0.20900 0.49800 0.50000 -0.24500
C 	C 	0.12000 0.47800 0.50000 -0.25000
