data_crystal

_cell_length_a 8.77500
_cell_length_b 8.77500
_cell_length_c 20.54600
_cell_angle_alpha 90.00000
_cell_angle_beta  90.00000
_cell_angle_gamma 120.00000

_symmetry_space_group_name_	'P 1'
_symmetry_space_group_name_H-M	'P 1'

loop_
_symmetry_equiv_pos_as_xyz
  x,y,z

loop_
_atom_site_label
_atom_site_type_symbol
_atom_site_fract_x
_atom_site_fract_y
_atom_site_fract_z
_atom_site_charge
Cd	Cd	-0.00000 0.00000 -0.00000 1.07600
Cd	Cd	-0.00000 0.00000 0.50000 1.09600
Cd	Cd	0.66667 0.33334 0.88640 1.15600
Cd	Cd	0.33333 0.66666 0.38640 1.15300
Cd	Cd	0.33333 0.66666 0.11360 1.14900
Cd	Cd	0.66667 0.33334 0.61360 1.15200
C 	C 	0.66667 0.33334 0.77500 -0.25000
C 	C 	0.33333 0.66666 0.27500 -0.25500
N 	N 	0.33333 0.66666 0.22500 -0.22700
N 	N 	0.66667 0.33334 0.72500 -0.22600
C 	C 	0.80500 0.19500 0.91860 -0.27400
C 	C 	0.39000 0.19500 0.91860 -0.31000
C 	C 	0.80500 0.61000 0.91860 -0.23500
C 	C 	0.19500 0.80500 0.41860 -0.28800
C 	C 	0.61000 0.80500 0.41860 -0.25300
C 	C 	0.19500 0.39000 0.41860 -0.32900
C 	C 	0.61000 0.80500 0.08140 -0.27100
C 	C 	0.19500 0.80500 0.08140 -0.30600
C 	C 	0.19500 0.39000 0.08140 -0.34700
C 	C 	0.39000 0.19500 0.58140 -0.33000
C 	C 	0.80500 0.19500 0.58140 -0.29200
C 	C 	0.80500 0.61000 0.58140 -0.25300
N 	N 	0.87740 0.12260 0.93490 -0.18200
N 	N 	0.24520 0.12260 0.93490 -0.23400
N 	N 	0.87740 0.75480 0.93490 -0.13000
N 	N 	0.12260 0.87740 0.43490 -0.19200
N 	N 	0.75480 0.87740 0.43490 -0.14400
N 	N 	0.12260 0.24520 0.43490 -0.25000
N 	N 	0.75480 0.87740 0.06510 -0.15300
N 	N 	0.12260 0.87740 0.06510 -0.20100
N 	N 	0.12260 0.24520 0.06510 -0.26000
N 	N 	0.24520 0.12260 0.56510 -0.25000
N 	N 	0.87740 0.12260 0.56510 -0.19700
N 	N 	0.87740 0.75480 0.56510 -0.14300
