data_crystal

_cell_length_a 21.60700
_cell_length_b 21.60700
_cell_length_c 21.60700
_cell_angle_alpha 90.00000
_cell_angle_beta  90.00000
_cell_angle_gamma 90.00000

_symmetry_space_group_name_	'P 1'
_symmetry_space_group_name_H-M	'P 1'

loop_
_symmetry_equiv_pos_as_xyz
  x,y,z

loop_
_atom_site_label
_atom_site_type_symbol
_atom_site_fract_x
_atom_site_fract_y
_atom_site_fract_z
_atom_site_charge
Cu	Cu	0.00000 0.00000 0.43841 0.90000
Cu	Cu	0.50000 0.50000 0.93841 0.92200
Cu	Cu	-0.00000 -0.00000 0.56159 0.90200
Cu	Cu	0.50000 0.50000 0.06159 0.91200
Cu	Cu	0.43841 0.00000 -0.00000 0.90000
Cu	Cu	0.93841 0.50000 0.50000 0.92200
Cu	Cu	0.56159 0.00000 -0.00000 0.90200
Cu	Cu	0.06159 0.50000 0.50000 0.91200
Cu	Cu	-0.00000 0.43841 -0.00000 0.90000
Cu	Cu	0.50000 0.93841 0.50000 0.92200
Cu	Cu	-0.00000 0.56159 -0.00000 0.90200
Cu	Cu	0.50000 0.06159 0.50000 0.91200
O 	O 	0.08990 0.00000 0.44800 -0.40800
C 	C 	0.21450 0.00000 0.44660 0.03600
O 	O 	0.58990 0.50000 0.94800 -0.35200
C 	C 	0.71450 0.50000 0.94660 0.09700
O 	O 	0.91010 0.00000 0.44800 -0.38300
C 	C 	0.78550 0.00000 0.44660 0.04200
O 	O 	0.41010 0.50000 0.94800 -0.35200
C 	C 	0.28550 0.50000 0.94660 0.09600
O 	O 	0.91010 0.00000 0.55200 -0.38100
C 	C 	0.78550 -0.00000 0.55340 0.04500
O 	O 	0.41010 0.50000 0.05200 -0.38300
C 	C 	0.28550 0.50000 0.05340 0.06100
O 	O 	0.08990 0.00000 0.55200 -0.40600
C 	C 	0.21450 -0.00000 0.55340 0.03900
O 	O 	0.58990 0.50000 0.05200 -0.38300
C 	C 	0.71450 0.50000 0.05340 0.06300
O 	O 	0.44800 0.08990 -0.00000 -0.40800
C 	C 	0.44660 0.21450 -0.00000 0.03600
O 	O 	0.94800 0.58990 0.50000 -0.35200
C 	C 	0.94660 0.71450 0.50000 0.09700
O 	O 	0.44800 0.91010 -0.00000 -0.38300
C 	C 	0.44660 0.78550 -0.00000 0.04200
O 	O 	0.94800 0.41010 0.50000 -0.35200
C 	C 	0.94660 0.28550 0.50000 0.09600
O 	O 	0.55200 0.91010 -0.00000 -0.38100
C 	C 	0.55340 0.78550 -0.00000 0.04500
O 	O 	0.05200 0.41010 0.50000 -0.38300
C 	C 	0.05340 0.28550 0.50000 0.06100
O 	O 	0.55200 0.08990 -0.00000 -0.40600
C 	C 	0.55340 0.21450 -0.00000 0.03900
O 	O 	0.05200 0.58990 0.50000 -0.38300
C 	C 	0.05340 0.71450 0.50000 0.06300
O 	O 	-0.00000 0.44800 0.08990 -0.40800
C 	C 	0.00000 0.44660 0.21450 0.03600
O 	O 	0.50000 0.94800 0.58990 -0.35200
C 	C 	0.50000 0.94660 0.71450 0.09700
O 	O 	0.00000 0.44800 0.91010 -0.38300
C 	C 	0.00000 0.44660 0.78550 0.04200
O 	O 	0.50000 0.94800 0.41010 -0.35200
C 	C 	0.50000 0.94660 0.28550 0.09600
O 	O 	-0.00000 0.55200 0.91010 -0.38100
C 	C 	0.00000 0.55340 0.78550 0.04500
O 	O 	0.50000 0.05200 0.41010 -0.38300
C 	C 	0.50000 0.05340 0.28550 0.06100
O 	O 	-0.00000 0.55200 0.08990 -0.40600
C 	C 	0.00000 0.55340 0.21450 0.03900
O 	O 	0.50000 0.05200 0.58990 -0.38300
C 	C 	0.50000 0.05340 0.71450 0.06300
O 	O 	-0.00000 0.08990 0.55200 -0.40600
C 	C 	0.00000 0.21450 0.55340 0.03900
O 	O 	0.50000 0.58990 0.05200 -0.38300
C 	C 	0.50000 0.71450 0.05340 0.06300
O 	O 	-0.00000 0.91010 0.55200 -0.38100
C 	C 	0.00000 0.78550 0.55340 0.04500
O 	O 	0.50000 0.41010 0.05200 -0.38300
C 	C 	0.50000 0.28550 0.05340 0.06100
O 	O 	0.00000 0.91010 0.44800 -0.38300
C 	C 	0.00000 0.78550 0.44660 0.04200
O 	O 	0.50000 0.41010 0.94800 -0.35200
C 	C 	0.50000 0.28550 0.94660 0.09600
O 	O 	-0.00000 0.08990 0.44800 -0.40800
C 	C 	0.00000 0.21450 0.44660 0.03600
O 	O 	0.50000 0.58990 0.94800 -0.35200
C 	C 	0.50000 0.71450 0.94660 0.09700
O 	O 	0.08990 0.44800 -0.00000 -0.40800
C 	C 	0.21450 0.44660 -0.00000 0.03600
O 	O 	0.58990 0.94800 0.50000 -0.35200
C 	C 	0.71450 0.94660 0.50000 0.09700
O 	O 	0.91010 0.44800 -0.00000 -0.38300
C 	C 	0.78550 0.44660 -0.00000 0.04200
O 	O 	0.41010 0.94800 0.50000 -0.35200
C 	C 	0.28550 0.94660 0.50000 0.09600
O 	O 	0.91010 0.55200 -0.00000 -0.38100
C 	C 	0.78550 0.55340 -0.00000 0.04500
O 	O 	0.41010 0.05200 0.50000 -0.38300
C 	C 	0.28550 0.05340 0.50000 0.06100
O 	O 	0.08990 0.55200 -0.00000 -0.40600
C 	C 	0.21450 0.55340 -0.00000 0.03900
O 	O 	0.58990 0.05200 0.50000 -0.38300
C 	C 	0.71450 0.05340 0.50000 0.06300
O 	O 	0.44800 0.00000 0.91010 -0.38300
C 	C 	0.44660 0.00000 0.78550 0.04200
O 	O 	0.94800 0.50000 0.41010 -0.35200
C 	C 	0.94660 0.50000 0.28550 0.09600
O 	O 	0.44800 0.00000 0.08990 -0.40800
C 	C 	0.44660 0.00000 0.21450 0.03600
O 	O 	0.94800 0.50000 0.58990 -0.35200
C 	C 	0.94660 0.50000 0.71450 0.09700
O 	O 	0.55200 0.00000 0.08990 -0.40600
C 	C 	0.55340 0.00000 0.21450 0.03900
O 	O 	0.05200 0.50000 0.58990 -0.38300
C 	C 	0.05340 0.50000 0.71450 0.06300
O 	O 	0.55200 0.00000 0.91010 -0.38100
C 	C 	0.55340 0.00000 0.78550 0.04500
O 	O 	0.05200 0.50000 0.41010 -0.38300
C 	C 	0.05340 0.50000 0.28550 0.06100
C 	C 	0.11470 -0.00000 0.50000 0.43600
C 	C 	0.18440 -0.00000 0.50000 -0.22700
C 	C 	0.61470 0.50000 -0.00000 0.38300
C 	C 	0.68440 0.50000 -0.00000 -0.19700
C 	C 	0.88530 -0.00000 0.50000 0.43200
C 	C 	0.81560 -0.00000 0.50000 -0.22400
C 	C 	0.38530 0.50000 -0.00000 0.38300
C 	C 	0.31560 0.50000 -0.00000 -0.19700
C 	C 	0.50000 0.11470 -0.00000 0.43600
C 	C 	0.50000 0.18440 -0.00000 -0.22700
C 	C 	-0.00000 0.61470 0.50000 0.38300
C 	C 	0.00000 0.68440 0.50000 -0.19700
C 	C 	0.50000 0.88530 -0.00000 0.43200
C 	C 	0.50000 0.81560 -0.00000 -0.22400
C 	C 	-0.00000 0.38530 0.50000 0.38300
C 	C 	-0.00000 0.31560 0.50000 -0.19700
C 	C 	-0.00000 0.50000 0.11470 0.43600
C 	C 	-0.00000 0.50000 0.18440 -0.22700
C 	C 	0.50000 -0.00000 0.61470 0.38300
C 	C 	0.50000 0.00000 0.68440 -0.19700
C 	C 	-0.00000 0.50000 0.88530 0.43200
C 	C 	-0.00000 0.50000 0.81560 -0.22400
C 	C 	0.50000 0.00000 0.38530 0.38300
C 	C 	0.50000 0.00000 0.31560 -0.19700
C 	C 	-0.00000 0.11470 0.50000 0.43600
C 	C 	-0.00000 0.18440 0.50000 -0.22700
C 	C 	0.50000 0.61470 -0.00000 0.38300
C 	C 	0.50000 0.68440 -0.00000 -0.19700
C 	C 	0.00000 0.88530 0.50000 0.43200
C 	C 	-0.00000 0.81560 0.50000 -0.22400
C 	C 	0.50000 0.38530 -0.00000 0.38300
C 	C 	0.50000 0.31560 -0.00000 -0.19700
C 	C 	0.11470 0.50000 -0.00000 0.43600
C 	C 	0.18440 0.50000 -0.00000 -0.22700
C 	C 	0.61470 -0.00000 0.50000 0.38300
C 	C 	0.68440 -0.00000 0.50000 -0.19700
C 	C 	0.88530 0.50000 -0.00000 0.43200
C 	C 	0.81560 0.50000 -0.00000 -0.22400
C 	C 	0.38530 -0.00000 0.50000 0.38300
C 	C 	0.31560 -0.00000 0.50000 -0.19700
C 	C 	0.50000 0.00000 0.88530 0.43200
C 	C 	0.50000 -0.00000 0.81560 -0.22400
C 	C 	-0.00000 0.50000 0.38530 0.38300
C 	C 	-0.00000 0.50000 0.31560 -0.19700
C 	C 	0.50000 0.00000 0.11470 0.43600
C 	C 	0.50000 0.00000 0.18440 -0.22700
C 	C 	-0.00000 0.50000 0.61470 0.38300
C 	C 	-0.00000 0.50000 0.68440 -0.19700
C 	C 	0.21620 0.05110 0.50000 0.12000
Br	Br	0.17700 0.13090 0.50000 -0.11500
C 	C 	0.71620 0.55110 -0.00000 0.07900
Br	Br	0.67700 0.63090 -0.00000 -0.11600
C 	C 	0.78380 0.94890 0.50000 0.15400
Br	Br	0.82300 0.86910 0.50000 -0.09700
C 	C 	0.28380 0.44890 -0.00000 0.07900
Br	Br	0.32300 0.36910 -0.00000 -0.12400
C 	C 	0.78380 0.05110 0.50000 0.11800
Br	Br	0.82300 0.13090 0.50000 -0.10700
C 	C 	0.28380 0.55110 -0.00000 0.07900
Br	Br	0.32300 0.63090 -0.00000 -0.12100
C 	C 	0.21620 0.94890 0.50000 0.15700
Br	Br	0.17700 0.86910 0.50000 -0.10500
C 	C 	0.71620 0.44890 -0.00000 0.07900
Br	Br	0.67700 0.36910 -0.00000 -0.11800
C 	C 	0.50000 0.21620 0.05110 0.12000
Br	Br	0.50000 0.17700 0.13090 -0.11500
C 	C 	0.00000 0.71620 0.55110 0.07900
Br	Br	-0.00000 0.67700 0.63090 -0.11600
C 	C 	0.50000 0.78380 0.94890 0.15400
Br	Br	0.50000 0.82300 0.86910 -0.09700
C 	C 	-0.00000 0.28380 0.44890 0.07900
Br	Br	-0.00000 0.32300 0.36910 -0.12400
C 	C 	0.50000 0.78380 0.05110 0.11800
Br	Br	0.50000 0.82300 0.13090 -0.10700
C 	C 	-0.00000 0.28380 0.55110 0.07900
Br	Br	0.00000 0.32300 0.63090 -0.12100
C 	C 	0.50000 0.21620 0.94890 0.15700
Br	Br	0.50000 0.17700 0.86910 -0.10500
C 	C 	0.00000 0.71620 0.44890 0.07900
Br	Br	-0.00000 0.67700 0.36910 -0.11800
C 	C 	0.05110 0.50000 0.21620 0.12000
Br	Br	0.13090 0.50000 0.17700 -0.11500
C 	C 	0.55110 0.00000 0.71620 0.07900
Br	Br	0.63090 -0.00000 0.67700 -0.11600
C 	C 	0.94890 0.50000 0.78380 0.15400
Br	Br	0.86910 0.50000 0.82300 -0.09700
C 	C 	0.44890 -0.00000 0.28380 0.07900
Br	Br	0.36910 0.00000 0.32300 -0.12400
C 	C 	0.05110 0.50000 0.78380 0.11800
Br	Br	0.13090 0.50000 0.82300 -0.10700
C 	C 	0.55110 -0.00000 0.28380 0.07900
Br	Br	0.63090 0.00000 0.32300 -0.12100
C 	C 	0.94890 0.50000 0.21620 0.15700
Br	Br	0.86910 0.50000 0.17700 -0.10500
C 	C 	0.44890 0.00000 0.71620 0.07900
Br	Br	0.36910 -0.00000 0.67700 -0.11800
C 	C 	0.05110 0.21620 0.50000 0.12000
Br	Br	0.13090 0.17700 0.50000 -0.11500
C 	C 	0.55110 0.71620 -0.00000 0.07900
Br	Br	0.63090 0.67700 -0.00000 -0.11600
C 	C 	0.94890 0.78380 0.50000 0.15400
Br	Br	0.86910 0.82300 0.50000 -0.09700
C 	C 	0.44890 0.28380 -0.00000 0.07900
Br	Br	0.36910 0.32300 -0.00000 -0.12400
C 	C 	0.05110 0.78380 0.50000 0.11800
Br	Br	0.13090 0.82300 0.50000 -0.10700
C 	C 	0.55110 0.28380 -0.00000 0.07900
Br	Br	0.63090 0.32300 -0.00000 -0.12100
C 	C 	0.94890 0.21620 0.50000 0.15700
Br	Br	0.86910 0.17700 0.50000 -0.10500
C 	C 	0.44890 0.71620 -0.00000 0.07900
Br	Br	0.36910 0.67700 -0.00000 -0.11800
C 	C 	0.21620 0.50000 0.94890 0.15700
Br	Br	0.17700 0.50000 0.86910 -0.10500
C 	C 	0.71620 0.00000 0.44890 0.07900
Br	Br	0.67700 0.00000 0.36910 -0.11800
C 	C 	0.78380 0.50000 0.05110 0.11800
Br	Br	0.82300 0.50000 0.13090 -0.10700
C 	C 	0.28380 -0.00000 0.55110 0.07900
Br	Br	0.32300 0.00000 0.63090 -0.12100
C 	C 	0.78380 0.50000 0.94890 0.15400
Br	Br	0.82300 0.50000 0.86910 -0.09700
C 	C 	0.28380 0.00000 0.44890 0.07900
Br	Br	0.32300 0.00000 0.36910 -0.12400
C 	C 	0.21620 0.50000 0.05110 0.12000
Br	Br	0.17700 0.50000 0.13090 -0.11500
C 	C 	0.71620 -0.00000 0.55110 0.07900
Br	Br	0.67700 0.00000 0.63090 -0.11600
C 	C 	0.50000 0.05110 0.78380 0.11800
Br	Br	0.50000 0.13090 0.82300 -0.10700
C 	C 	-0.00000 0.55110 0.28380 0.07900
Br	Br	0.00000 0.63090 0.32300 -0.12100
C 	C 	0.50000 0.94890 0.21620 0.15700
Br	Br	0.50000 0.86910 0.17700 -0.10500
C 	C 	-0.00000 0.44890 0.71620 0.07900
Br	Br	-0.00000 0.36910 0.67700 -0.11800
C 	C 	0.50000 0.05110 0.21620 0.12000
Br	Br	0.50000 0.13090 0.17700 -0.11500
C 	C 	-0.00000 0.55110 0.71620 0.07900
Br	Br	-0.00000 0.63090 0.67700 -0.11600
C 	C 	0.50000 0.94890 0.78380 0.15400
Br	Br	0.50000 0.86910 0.82300 -0.09700
C 	C 	-0.00000 0.44890 0.28380 0.07900
Br	Br	-0.00000 0.36910 0.32300 -0.12400
