data_crystal

_cell_length_a 8.04510
_cell_length_b 21.37850
_cell_length_c 18.33260
_cell_angle_alpha 90.00000
_cell_angle_beta  90.03500
_cell_angle_gamma 90.00000

_symmetry_space_group_name_	'P 1'
_symmetry_space_group_name_H-M	'P 1'

loop_
_symmetry_equiv_pos_as_xyz
  x,y,z

loop_
_atom_site_label
_atom_site_type_symbol
_atom_site_fract_x
_atom_site_fract_y
_atom_site_fract_z
_atom_site_charge
Eu	Eu	0.14450 0.58122 0.25030 2.14800
Eu	Eu	0.65187 0.63167 0.27537 2.12200
Cl	Cl	0.93330 0.59870 0.36720 -0.64700
C 	C 	0.28600 0.79290 0.25890 -0.13500
C 	C 	0.13250 0.81320 0.26580 0.01800
H 	H 	0.04560 0.78470 0.26940 0.04700
C 	C 	0.09800 0.87820 0.26760 -0.01800
H 	H 	0.99020 0.89280 0.27330 0.05100
C 	C 	0.22760 0.91890 0.26090 -0.10400
C 	C 	0.39200 0.89700 0.25350 -0.01700
H 	H 	0.47900 0.92530 0.24950 0.05500
C 	C 	0.42210 0.83520 0.25210 0.01000
H 	H 	0.53000 0.82020 0.24690 0.04100
C 	C 	0.32600 0.72350 0.25190 0.52400
C 	C 	0.19520 0.98730 0.25830 0.45800
O 	O 	0.20540 0.68630 0.26160 -0.55000
O 	O 	0.46460 0.70570 0.23630 -0.56700
O 	O 	0.04900 0.00660 0.27450 -0.53700
O 	O 	0.30950 0.02250 0.23510 -0.50700
C 	C 	0.87920 0.67520 0.07040 -0.16500
C 	C 	0.77800 0.73020 0.07770 0.06900
H 	H 	0.74850 0.74510 0.12350 0.00900
C 	C 	0.72700 0.75950 0.01730 -0.09100
H 	H 	0.66390 0.79570 0.02210 0.08200
C 	C 	0.76450 0.73760 0.94620 0.00500
C 	C 	0.86280 0.68640 0.93980 -0.08400
H 	H 	0.89430 0.67270 0.89370 0.07500
C 	C 	0.91690 0.65410 0.00050 0.05400
H 	H 	0.97930 0.61780 0.99470 0.02500
C 	C 	0.95100 0.64300 0.13440 0.48300
C 	C 	0.71070 0.77370 0.87960 0.28700
O 	O 	0.88040 0.64760 0.19610 -0.60000
O 	O 	0.07990 0.61430 0.12840 -0.50200
O 	O 	0.59370 0.81430 0.88880 -0.40800
O 	O 	0.77730 0.76550 0.81990 -0.38600
C 	C 	0.47400 0.52510 0.06880 -0.12300
C 	C 	0.35600 0.49000 0.03530 0.00600
H 	H 	0.25770 0.48200 0.06020 0.04000
C 	C 	0.62500 0.53390 0.03320 -0.00100
H 	H 	0.71150 0.55560 0.05570 0.03800
C 	C 	0.44400 0.55050 0.14230 0.47600
O 	O 	0.33410 0.53090 0.17950 -0.56300
O 	O 	0.54400 0.59700 0.15900 -0.46900
C 	C 	0.43850 0.51750 0.43100 -0.09200
C 	C 	0.54000 0.55730 0.46840 0.00400
H 	H 	0.56790 0.59600 0.44840 0.04100
C 	C 	0.39600 0.45990 0.46260 -0.01300
H 	H 	0.32470 0.43280 0.43790 0.06100
C 	C 	0.35820 0.53270 0.36130 0.38000
O 	O 	0.40280 0.58520 0.32870 -0.57700
O 	O 	0.24730 0.50080 0.33480 -0.43500
H 	H 	0.60640 0.58630 0.19220 -0.01600
Eu	Eu	0.85550 0.08122 0.24970 2.14400
Eu	Eu	0.34813 0.13167 0.22463 2.12300
Cl	Cl	0.06670 0.09870 0.13280 -0.64400
C 	C 	0.71400 0.29290 0.24110 -0.13300
C 	C 	0.86750 0.31320 0.23420 0.01500
H 	H 	0.95440 0.28470 0.23060 0.04800
C 	C 	0.90200 0.37820 0.23240 -0.01300
H 	H 	0.00980 0.39280 0.22670 0.04900
C 	C 	0.77240 0.41890 0.23910 -0.10800
C 	C 	0.60800 0.39700 0.24650 -0.01400
H 	H 	0.52100 0.42530 0.25050 0.05400
C 	C 	0.57790 0.33520 0.24790 0.00700
H 	H 	0.47000 0.32020 0.25310 0.04100
C 	C 	0.67400 0.22350 0.24810 0.52300
C 	C 	0.80480 0.48730 0.24170 0.46600
O 	O 	0.79460 0.18630 0.23840 -0.54900
O 	O 	0.53540 0.20570 0.26370 -0.56600
O 	O 	0.95100 0.50660 0.22550 -0.54300
O 	O 	0.69050 0.52250 0.26490 -0.51100
C 	C 	0.12080 0.17520 0.42960 -0.16900
C 	C 	0.22200 0.23020 0.42230 0.07100
H 	H 	0.25150 0.24510 0.37650 0.00800
C 	C 	0.27300 0.25950 0.48270 -0.09100
H 	H 	0.33610 0.29570 0.47790 0.08200
C 	C 	0.23550 0.23760 0.55380 0.00600
C 	C 	0.13720 0.18640 0.56020 -0.09000
H 	H 	0.10570 0.17270 0.60630 0.07600
C 	C 	0.08310 0.15410 0.49950 0.06200
H 	H 	0.02070 0.11780 0.50530 0.02200
C 	C 	0.04900 0.14300 0.36560 0.48700
C 	C 	0.28930 0.27370 0.62040 0.28700
O 	O 	0.11960 0.14760 0.30390 -0.60100
O 	O 	0.92010 0.11430 0.37160 -0.50500
O 	O 	0.40630 0.31430 0.61120 -0.40800
O 	O 	0.22270 0.26550 0.68010 -0.38600
C 	C 	0.52600 0.02510 0.43120 -0.12300
C 	C 	0.64400 0.99000 0.46470 0.00500
H 	H 	0.74230 0.98200 0.43980 0.04000
C 	C 	0.37500 0.03390 0.46680 -0.00000
H 	H 	0.28850 0.05560 0.44430 0.03800
C 	C 	0.55600 0.05050 0.35770 0.47600
O 	O 	0.66590 0.03090 0.32050 -0.56300
O 	O 	0.45600 0.09700 0.34100 -0.46900
C 	C 	0.56150 0.01750 0.06900 -0.09100
C 	C 	0.46000 0.05730 0.03160 0.00700
H 	H 	0.43210 0.09600 0.05160 0.04100
C 	C 	0.60400 0.95990 0.03740 -0.01800
H 	H 	0.67530 0.93280 0.06210 0.06200
C 	C 	0.64180 0.03270 0.13870 0.37900
O 	O 	0.59720 0.08520 0.17130 -0.57600
O 	O 	0.75270 0.00080 0.16520 -0.43500
H 	H 	0.39360 0.08630 0.30780 -0.01600
Eu	Eu	0.85550 0.41878 0.74970 2.14900
Eu	Eu	0.34813 0.36833 0.72463 2.12300
Cl	Cl	0.06670 0.40130 0.63280 -0.64700
C 	C 	0.71400 0.20710 0.74110 -0.13500
C 	C 	0.86750 0.18680 0.73420 0.01800
H 	H 	0.95440 0.21530 0.73060 0.04700
C 	C 	0.90200 0.12180 0.73240 -0.01800
H 	H 	0.00980 0.10720 0.72670 0.05100
C 	C 	0.77240 0.08110 0.73910 -0.10400
C 	C 	0.60800 0.10300 0.74650 -0.01700
H 	H 	0.52100 0.07470 0.75050 0.05500
C 	C 	0.57790 0.16480 0.74790 0.01000
H 	H 	0.47000 0.17980 0.75310 0.04100
C 	C 	0.67400 0.27650 0.74810 0.52400
C 	C 	0.80480 0.01270 0.74170 0.45800
O 	O 	0.79460 0.31370 0.73840 -0.55000
O 	O 	0.53540 0.29430 0.76370 -0.56700
O 	O 	0.95100 0.99340 0.72550 -0.53700
O 	O 	0.69050 0.97750 0.76490 -0.50700
C 	C 	0.12080 0.32480 0.92960 -0.16500
C 	C 	0.22200 0.26980 0.92230 0.06900
H 	H 	0.25150 0.25490 0.87650 0.00900
C 	C 	0.27300 0.24050 0.98270 -0.09100
H 	H 	0.33610 0.20430 0.97790 0.08200
C 	C 	0.23550 0.26240 0.05380 0.00500
C 	C 	0.13720 0.31360 0.06020 -0.08400
H 	H 	0.10570 0.32730 0.10630 0.07500
C 	C 	0.08310 0.34590 0.99950 0.05400
H 	H 	0.02070 0.38220 0.00530 0.02500
C 	C 	0.04900 0.35700 0.86560 0.48300
C 	C 	0.28930 0.22630 0.12040 0.28700
O 	O 	0.11960 0.35240 0.80390 -0.60000
O 	O 	0.92010 0.38570 0.87160 -0.50200
O 	O 	0.40630 0.18570 0.11120 -0.40800
O 	O 	0.22270 0.23450 0.18010 -0.38600
C 	C 	0.52600 0.47490 0.93120 -0.12300
C 	C 	0.64400 0.51000 0.96470 0.00600
H 	H 	0.74230 0.51800 0.93980 0.04000
C 	C 	0.37500 0.46610 0.96680 -0.00100
H 	H 	0.28850 0.44440 0.94430 0.03800
C 	C 	0.55600 0.44950 0.85770 0.47600
O 	O 	0.66590 0.46910 0.82050 -0.56300
O 	O 	0.45600 0.40300 0.84100 -0.46900
C 	C 	0.56150 0.48250 0.56900 -0.09200
C 	C 	0.46000 0.44270 0.53160 0.00400
H 	H 	0.43210 0.40400 0.55160 0.04100
C 	C 	0.60400 0.54010 0.53740 -0.01300
H 	H 	0.67530 0.56720 0.56210 0.06100
C 	C 	0.64180 0.46730 0.63870 0.38000
O 	O 	0.59720 0.41480 0.67130 -0.57700
O 	O 	0.75270 0.49920 0.66520 -0.43500
H 	H 	0.39360 0.41370 0.80780 -0.01600
Eu	Eu	0.14450 0.91878 0.75030 2.14400
Eu	Eu	0.65187 0.86833 0.77537 2.12300
Cl	Cl	0.93330 0.90130 0.86720 -0.64400
C 	C 	0.28600 0.70710 0.75890 -0.13300
C 	C 	0.13250 0.68680 0.76580 0.01500
H 	H 	0.04560 0.71530 0.76940 0.04800
C 	C 	0.09800 0.62180 0.76760 -0.01300
H 	H 	0.99020 0.60720 0.77330 0.04900
C 	C 	0.22760 0.58110 0.76090 -0.10800
C 	C 	0.39200 0.60300 0.75350 -0.01400
H 	H 	0.47900 0.57470 0.74950 0.05400
C 	C 	0.42210 0.66480 0.75210 0.00700
H 	H 	0.53000 0.67980 0.74690 0.04100
C 	C 	0.32600 0.77650 0.75190 0.52300
C 	C 	0.19520 0.51270 0.75830 0.46600
O 	O 	0.20540 0.81370 0.76160 -0.54900
O 	O 	0.46460 0.79430 0.73630 -0.56600
O 	O 	0.04900 0.49340 0.77450 -0.54300
O 	O 	0.30950 0.47750 0.73510 -0.51100
C 	C 	0.87920 0.82480 0.57040 -0.16900
C 	C 	0.77800 0.76980 0.57770 0.07100
H 	H 	0.74850 0.75490 0.62350 0.00800
C 	C 	0.72700 0.74050 0.51730 -0.09100
H 	H 	0.66390 0.70430 0.52210 0.08200
C 	C 	0.76450 0.76240 0.44620 0.00600
C 	C 	0.86280 0.81360 0.43980 -0.09000
H 	H 	0.89430 0.82730 0.39370 0.07600
C 	C 	0.91690 0.84590 0.50050 0.06200
H 	H 	0.97930 0.88220 0.49470 0.02200
C 	C 	0.95100 0.85700 0.63440 0.48700
C 	C 	0.71070 0.72630 0.37960 0.28700
O 	O 	0.88040 0.85240 0.69610 -0.60100
O 	O 	0.07990 0.88570 0.62840 -0.50500
O 	O 	0.59370 0.68570 0.38880 -0.40800
O 	O 	0.77730 0.73450 0.31990 -0.38600
C 	C 	0.47400 0.97490 0.56880 -0.12300
C 	C 	0.35600 0.01000 0.53530 0.00500
H 	H 	0.25770 0.01800 0.56020 0.04000
C 	C 	0.62500 0.96610 0.53320 -0.00000
H 	H 	0.71150 0.94440 0.55570 0.03800
C 	C 	0.44400 0.94950 0.64230 0.47600
O 	O 	0.33410 0.96910 0.67950 -0.56300
O 	O 	0.54400 0.90300 0.65900 -0.46900
C 	C 	0.43850 0.98250 0.93100 -0.09100
C 	C 	0.54000 0.94270 0.96840 0.00700
H 	H 	0.56790 0.90400 0.94840 0.04100
C 	C 	0.39600 0.04010 0.96260 -0.01800
H 	H 	0.32470 0.06720 0.93790 0.06200
C 	C 	0.35820 0.96730 0.86130 0.37900
O 	O 	0.40280 0.91480 0.82870 -0.57600
O 	O 	0.24730 0.99920 0.83480 -0.43500
H 	H 	0.60640 0.91370 0.69220 -0.01600
