data_crystal

_cell_length_a 13.01960
_cell_length_b 13.14880
_cell_length_c 14.04440
_cell_angle_alpha 90.00000
_cell_angle_beta  103.95500
_cell_angle_gamma 90.00000

_symmetry_space_group_name_	'P 1'
_symmetry_space_group_name_H-M	'P 1'

loop_
_symmetry_equiv_pos_as_xyz
  x,y,z

loop_
_atom_site_label
_atom_site_type_symbol
_atom_site_fract_x
_atom_site_fract_y
_atom_site_fract_z
_atom_site_charge
Sm	Sm	0.40887 0.44675 0.08817 2.20500
O 	O 	0.84950 0.11270 0.42330 -0.50800
O 	O 	0.47270 0.38770 0.25640 -0.42200
O 	O 	0.35850 0.51200 0.23990 -0.37600
O 	O 	0.57000 0.41460 0.04040 -0.60400
O 	O 	0.44120 0.25120 0.08620 -0.44200
C 	C 	0.88260 0.11420 0.34640 0.48000
C 	C 	0.46520 0.47950 0.40030 -0.04100
C 	C 	0.39250 0.17700 0.04780 0.45400
C 	C 	0.71380 0.30730 0.11570 -0.10300
C 	C 	0.79320 0.24330 0.09970 -0.01100
H 	H 	0.81100 0.24420 0.03940 0.06400
C 	C 	0.42910 0.45790 0.29190 0.31500
O 	O 	0.29010 0.17010 0.02350 -0.52300
H 	H 	0.26420 0.22300 0.03800 0.31700
C 	C 	0.84550 0.17830 0.17290 0.00200
H 	H 	0.89700 0.13420 0.16120 0.05000
C 	C 	0.54500 0.42170 0.45880 -0.02100
H 	H 	0.57530 0.36850 0.43150 0.07600
C 	C 	0.42020 0.55690 0.44210 -0.02400
H 	H 	0.36580 0.59520 0.40350 0.08300
O 	O 	0.96200 0.06950 0.33230 -0.50700
O 	O 	0.70410 0.40640 0.97310 -0.44200
C 	C 	0.74250 0.24230 0.27970 -0.00900
H 	H 	0.72540 0.24190 0.34030 0.06400
C 	C 	0.82110 0.17890 0.26410 -0.11100
C 	C 	0.65920 0.37930 0.03800 0.42800
C 	C 	0.68820 0.30710 0.20580 0.00900
H 	H 	0.63530 0.34970 0.21700 0.03300
C 	C 	0.44790 0.08400 0.02360 -0.09100
C 	C 	0.55620 0.07440 0.05970 -0.00500
H 	H 	0.59380 0.12500 0.09970 0.05200
C 	C 	0.39160 0.00960 0.96320 -0.00600
H 	H 	0.31890 0.01630 0.93840 0.06100
Cl	Cl	0.19673 0.36139 0.07667 -0.44700
Sm	Sm	0.09113 0.94675 0.41183 2.18800
O 	O 	0.65050 0.61270 0.07670 -0.51000
O 	O 	0.02730 0.88770 0.24360 -0.42300
O 	O 	0.14150 0.01200 0.26010 -0.36700
O 	O 	0.93000 0.91460 0.45960 -0.59600
O 	O 	0.05880 0.75120 0.41380 -0.44300
C 	C 	0.61740 0.61420 0.15360 0.48200
C 	C 	0.03480 0.97950 0.09970 -0.05700
C 	C 	0.10750 0.67700 0.45220 0.45500
C 	C 	0.78620 0.80730 0.38430 -0.09900
C 	C 	0.70680 0.74330 0.40030 -0.01300
H 	H 	0.68900 0.74420 0.46060 0.06500
C 	C 	0.07090 0.95790 0.20810 0.31000
O 	O 	0.20990 0.67010 0.47650 -0.52400
H 	H 	0.23580 0.72300 0.46200 0.31700
C 	C 	0.65450 0.67830 0.32710 0.00500
H 	H 	0.60300 0.63420 0.33880 0.05000
C 	C 	0.95500 0.92170 0.04120 -0.01500
H 	H 	0.92470 0.86850 0.06850 0.07500
C 	C 	0.07980 0.05690 0.05790 -0.01000
H 	H 	0.13420 0.09520 0.09650 0.07900
O 	O 	0.53800 0.56950 0.16770 -0.50600
O 	O 	0.79590 0.90640 0.52690 -0.43700
C 	C 	0.75750 0.74230 0.22030 -0.00600
H 	H 	0.77460 0.74190 0.15970 0.06300
C 	C 	0.67890 0.67890 0.23590 -0.11200
C 	C 	0.84080 0.87930 0.46200 0.42600
C 	C 	0.81180 0.80710 0.29420 0.00600
H 	H 	0.86470 0.84970 0.28300 0.03600
C 	C 	0.05210 0.58400 0.47640 -0.09500
C 	C 	0.94380 0.57440 0.44030 -0.00400
H 	H 	0.90620 0.62500 0.40030 0.05300
C 	C 	0.10840 0.50960 0.53680 -0.00300
H 	H 	0.18110 0.51630 0.56160 0.05900
Cl	Cl	0.30327 0.86139 0.42333 -0.44800
Sm	Sm	0.59113 0.55325 0.91183 2.20400
O 	O 	0.15050 0.88730 0.57670 -0.50900
O 	O 	0.52730 0.61230 0.74360 -0.42200
O 	O 	0.64150 0.48800 0.76010 -0.37600
O 	O 	0.43000 0.58540 0.95960 -0.60400
O 	O 	0.55880 0.74880 0.91380 -0.44200
C 	C 	0.11740 0.88580 0.65360 0.48000
C 	C 	0.53480 0.52050 0.59970 -0.04100
C 	C 	0.60750 0.82300 0.95220 0.45400
C 	C 	0.28620 0.69270 0.88430 -0.10300
C 	C 	0.20680 0.75670 0.90030 -0.01100
H 	H 	0.18900 0.75580 0.96060 0.06400
C 	C 	0.57090 0.54210 0.70810 0.31500
O 	O 	0.70990 0.82990 0.97650 -0.52300
H 	H 	0.73580 0.77700 0.96200 0.31700
C 	C 	0.15450 0.82170 0.82710 0.00200
H 	H 	0.10300 0.86580 0.83880 0.05000
C 	C 	0.45500 0.57830 0.54120 -0.02100
H 	H 	0.42470 0.63150 0.56850 0.07600
C 	C 	0.57980 0.44310 0.55790 -0.02400
H 	H 	0.63420 0.40480 0.59650 0.08300
O 	O 	0.03800 0.93050 0.66770 -0.50700
O 	O 	0.29590 0.59360 0.02690 -0.44200
C 	C 	0.25750 0.75770 0.72030 -0.00900
H 	H 	0.27460 0.75810 0.65970 0.06400
C 	C 	0.17890 0.82110 0.73590 -0.11100
C 	C 	0.34080 0.62070 0.96200 0.42800
C 	C 	0.31180 0.69290 0.79420 0.00900
H 	H 	0.36470 0.65030 0.78300 0.03300
C 	C 	0.55210 0.91600 0.97640 -0.09100
C 	C 	0.44380 0.92560 0.94030 -0.00500
H 	H 	0.40620 0.87500 0.90030 0.05200
C 	C 	0.60840 0.99040 0.03680 -0.00600
H 	H 	0.68110 0.98370 0.06160 0.06100
Cl	Cl	0.80327 0.63861 0.92333 -0.44700
Sm	Sm	0.90887 0.05325 0.58817 2.18800
O 	O 	0.34950 0.38730 0.92330 -0.51000
O 	O 	0.97270 0.11230 0.75640 -0.42300
O 	O 	0.85850 0.98800 0.73990 -0.36700
O 	O 	0.07000 0.08540 0.54040 -0.59600
O 	O 	0.94120 0.24880 0.58620 -0.44300
C 	C 	0.38260 0.38580 0.84640 0.48200
C 	C 	0.96520 0.02050 0.90030 -0.05700
C 	C 	0.89250 0.32300 0.54780 0.45500
C 	C 	0.21380 0.19270 0.61570 -0.09900
C 	C 	0.29320 0.25670 0.59970 -0.01300
H 	H 	0.31100 0.25580 0.53940 0.06500
C 	C 	0.92910 0.04210 0.79190 0.31000
O 	O 	0.79010 0.32990 0.52350 -0.52400
H 	H 	0.76420 0.27700 0.53800 0.31700
C 	C 	0.34550 0.32170 0.67290 0.00500
H 	H 	0.39700 0.36580 0.66120 0.05000
C 	C 	0.04500 0.07830 0.95880 -0.01500
H 	H 	0.07530 0.13150 0.93150 0.07500
C 	C 	0.92020 0.94310 0.94210 -0.01000
H 	H 	0.86580 0.90480 0.90350 0.07900
O 	O 	0.46200 0.43050 0.83230 -0.50600
O 	O 	0.20410 0.09360 0.47310 -0.43700
C 	C 	0.24250 0.25770 0.77970 -0.00600
H 	H 	0.22540 0.25810 0.84030 0.06300
C 	C 	0.32110 0.32110 0.76410 -0.11200
C 	C 	0.15920 0.12070 0.53800 0.42600
C 	C 	0.18820 0.19290 0.70580 0.00600
H 	H 	0.13530 0.15030 0.71700 0.03600
C 	C 	0.94790 0.41600 0.52360 -0.09500
C 	C 	0.05620 0.42560 0.55970 -0.00400
H 	H 	0.09380 0.37500 0.59970 0.05300
C 	C 	0.89160 0.49040 0.46320 -0.00300
H 	H 	0.81890 0.48370 0.43840 0.05900
Cl	Cl	0.69673 0.13861 0.57667 -0.44800
