data_crystal

_cell_length_a 5.88200
_cell_length_b 20.87200
_cell_length_c 20.87200
_cell_angle_alpha 90.00000
_cell_angle_beta  90.00000
_cell_angle_gamma 90.00000

_symmetry_space_group_name_	'P 1'
_symmetry_space_group_name_H-M	'P 1'

loop_
_symmetry_equiv_pos_as_xyz
  x,y,z

loop_
_atom_site_label
_atom_site_type_symbol
_atom_site_fract_x
_atom_site_fract_y
_atom_site_fract_z
_atom_site_charge
Cd	Cd	0.45997 0.76803 0.17012 1.20600
Cd	Cd	0.54003 0.23197 0.82988 1.20600
Cd	Cd	0.54003 0.26803 0.67012 1.20600
Cd	Cd	0.95997 0.67012 0.23197 1.20200
Cd	Cd	0.45997 0.73197 0.32988 1.20600
Cd	Cd	0.04003 0.17012 0.73197 1.20200
Cd	Cd	0.04003 0.32988 0.76803 1.20200
Cd	Cd	0.95997 0.82988 0.26803 1.20200
H 	H 	0.11010 0.14910 0.98540 -0.00300
H 	H 	0.64960 0.45030 0.72750 0.00200
H 	H 	0.98760 0.99220 0.42900 -0.02300
H 	H 	0.38240 0.50790 0.57730 0.13700
H 	H 	0.41100 0.84500 0.27700 0.29400
H 	H 	0.76120 0.93270 0.14490 -0.00200
H 	H 	0.14960 0.22750 0.54970 -0.00000
H 	H 	0.27410 0.07190 0.41450 0.14100
H 	H 	0.11760 0.92270 0.50790 0.14700
H 	H 	0.88240 0.07730 0.49210 0.14700
H 	H 	0.88240 0.42270 0.00790 0.14600
H 	H 	0.14960 0.27250 0.95030 -0.00100
H 	H 	0.61010 0.48540 0.85090 -0.01300
H 	H 	0.08900 0.27700 0.65500 0.29000
H 	H 	0.73880 0.35510 0.93270 -0.00700
H 	H 	0.11010 0.35090 0.51460 -0.00600
H 	H 	0.11760 0.57730 0.99210 0.14600
H 	H 	0.26120 0.85510 0.43270 -0.00700
H 	H 	0.38240 0.99210 0.92270 0.13200
H 	H 	0.98760 0.50780 0.07100 -0.02200
H 	H 	0.77410 0.58550 0.57190 0.13200
H 	H 	0.58900 0.34500 0.77700 0.29400
H 	H 	0.26120 0.64490 0.06730 -0.00700
H 	H 	0.61760 0.49210 0.42270 0.13700
H 	H 	0.51240 0.07100 0.99220 -0.00700
H 	H 	0.48760 0.57100 0.49220 -0.01300
H 	H 	0.35040 0.54970 0.27250 0.00200
H 	H 	0.22590 0.08550 0.07190 0.12900
H 	H 	0.91100 0.77700 0.15500 0.29000
H 	H 	0.88990 0.85090 0.01460 -0.00300
H 	H 	0.08900 0.22300 0.84500 0.29000
H 	H 	0.38990 0.98540 0.35090 -0.01200
H 	H 	0.01240 0.00780 0.57100 -0.02300
H 	H 	0.73880 0.14490 0.56730 -0.00700
H 	H 	0.85040 0.72750 0.04970 -0.00100
H 	H 	0.88990 0.64910 0.48540 -0.00600
H 	H 	0.61760 0.00790 0.07730 0.13200
H 	H 	0.61010 0.01460 0.64910 -0.01200
H 	H 	0.91100 0.72300 0.34500 0.29000
H 	H 	0.85040 0.77250 0.45030 -0.00000
H 	H 	0.38990 0.51460 0.14910 -0.01300
H 	H 	0.51240 0.42900 0.50780 -0.01300
H 	H 	0.64960 0.04970 0.77250 0.00200
H 	H 	0.72590 0.92810 0.58550 0.14100
H 	H 	0.01240 0.49220 0.92900 -0.02200
H 	H 	0.23880 0.43270 0.64490 -0.00300
H 	H 	0.72590 0.57190 0.91450 0.14100
H 	H 	0.48760 0.92900 0.00780 -0.00700
H 	H 	0.76120 0.56730 0.35510 -0.00300
H 	H 	0.22590 0.41450 0.42810 0.13200
H 	H 	0.35040 0.95030 0.22750 0.00200
H 	H 	0.27410 0.42810 0.08550 0.14100
H 	H 	0.41100 0.65500 0.22300 0.29400
H 	H 	0.23880 0.06730 0.85510 -0.00200
H 	H 	0.58900 0.15500 0.72300 0.29400
H 	H 	0.77410 0.91450 0.92810 0.12900
C 	C 	0.90490 0.94720 0.15670 0.08600
C 	C 	0.65950 0.42520 0.49190 0.16600
C 	C 	0.34050 0.92520 0.99190 0.15000
C 	C 	0.65950 0.07480 0.00810 0.15000
C 	C 	0.50730 0.50370 0.87940 0.17700
C 	C 	0.22680 0.54230 0.29930 0.08500
C 	C 	0.07860 0.08210 0.05610 -0.23400
C 	C 	0.22110 0.94060 0.53640 -0.29100
C 	C 	0.29910 0.01990 0.61700 -0.22600
C 	C 	0.56830 0.08230 0.45880 0.25400
C 	C 	0.34050 0.57480 0.50810 0.16600
C 	C 	0.27890 0.53640 0.55940 -0.26700
C 	C 	0.77320 0.45770 0.70070 0.08500
C 	C 	0.93170 0.04120 0.08230 0.22200
C 	C 	0.27890 0.96360 0.94060 -0.25600
C 	C 	0.15950 0.50810 0.92520 0.18800
C 	C 	0.27320 0.29930 0.95770 0.08400
C 	C 	0.99270 0.87940 0.99630 0.13800
C 	C 	0.79910 0.11700 0.98010 -0.18900
C 	C 	0.72060 0.34230 0.57490 0.36800
C 	C 	0.90490 0.55280 0.34330 0.08900
C 	C 	0.20090 0.61700 0.48010 -0.20100
C 	C 	0.72680 0.79930 0.45770 0.08400
C 	C 	0.07860 0.41790 0.44390 -0.24400
C 	C 	0.79910 0.38300 0.51990 -0.20100
C 	C 	0.70090 0.51990 0.11700 -0.22600
C 	C 	0.56830 0.41770 0.04120 0.25300
C 	C 	0.42140 0.44390 0.08210 -0.26900
C 	C 	0.09510 0.05280 0.84330 0.08600
C 	C 	0.72680 0.70070 0.04230 0.08400
C 	C 	0.93170 0.45880 0.41770 0.23100
C 	C 	0.43170 0.58230 0.95880 0.25300
C 	C 	0.15950 0.99190 0.57480 0.18900
C 	C 	0.57860 0.94390 0.58210 -0.26900
C 	C 	0.72110 0.46360 0.44060 -0.26700
C 	C 	0.72060 0.15770 0.92510 0.36400
C 	C 	0.06830 0.95880 0.91770 0.22200
C 	C 	0.06830 0.54120 0.58230 0.23100
C 	C 	0.27940 0.84230 0.07490 0.36400
C 	C 	0.00730 0.12060 0.00370 0.13800
C 	C 	0.40490 0.84330 0.44720 0.10900
C 	C 	0.50730 0.99630 0.62060 0.17600
C 	C 	0.77890 0.05940 0.46360 -0.29100
C 	C 	0.59510 0.15670 0.55280 0.10900
C 	C 	0.43170 0.91770 0.54120 0.25400
C 	C 	0.40490 0.65670 0.05280 0.10900
C 	C 	0.22060 0.42510 0.84230 0.37700
C 	C 	0.09510 0.44720 0.65670 0.08900
C 	C 	0.49270 0.49630 0.12060 0.17700
C 	C 	0.27320 0.20070 0.54230 0.08400
C 	C 	0.77940 0.92510 0.34230 0.37700
C 	C 	0.29910 0.48010 0.88300 -0.22600
C 	C 	0.20090 0.88300 0.01990 -0.18900
C 	C 	0.27940 0.65770 0.42510 0.36800
C 	C 	0.22110 0.55940 0.96360 -0.29000
C 	C 	0.42140 0.05610 0.41790 -0.26900
C 	C 	0.99270 0.62060 0.50370 0.14900
C 	C 	0.00730 0.37940 0.49630 0.14900
C 	C 	0.72110 0.03640 0.05940 -0.25600
C 	C 	0.77940 0.57490 0.15770 0.37700
C 	C 	0.77890 0.44060 0.03640 -0.29000
C 	C 	0.77320 0.04230 0.79930 0.08600
C 	C 	0.57860 0.55610 0.91790 -0.26900
C 	C 	0.92140 0.58210 0.55610 -0.24400
C 	C 	0.59510 0.34330 0.94720 0.10900
C 	C 	0.92140 0.91790 0.94390 -0.23400
C 	C 	0.22680 0.95770 0.20070 0.08600
C 	C 	0.22060 0.07490 0.65770 0.37700
C 	C 	0.70090 0.98010 0.38300 -0.22600
C 	C 	0.84050 0.00810 0.42520 0.18900
C 	C 	0.49270 0.00370 0.37940 0.17600
C 	C 	0.84050 0.49190 0.07480 0.18800
N 	N 	0.53600 0.70020 0.07990 -0.23400
N 	N 	0.96400 0.07990 0.79980 -0.22300
N 	N 	0.71760 0.65930 0.99430 -0.09000
N 	N 	0.28240 0.15930 0.49430 -0.09000
N 	N 	0.03600 0.57990 0.29980 -0.22400
N 	N 	0.03600 0.92010 0.20020 -0.22300
N 	N 	0.49110 0.13200 0.50160 -0.13400
N 	N 	0.71760 0.84070 0.50570 -0.09000
N 	N 	0.96400 0.42010 0.70020 -0.22400
N 	N 	0.21760 0.49430 0.34070 -0.08900
N 	N 	0.49110 0.36800 0.99840 -0.13400
N 	N 	0.78240 0.99430 0.84070 -0.09000
N 	N 	0.50890 0.63200 0.00160 -0.13400
N 	N 	0.00890 0.50160 0.36800 -0.12300
N 	N 	0.46400 0.20020 0.57990 -0.23400
N 	N 	0.21760 0.00570 0.15930 -0.09000
N 	N 	0.00890 0.99840 0.13200 -0.12000
N 	N 	0.28240 0.34070 0.00570 -0.09000
N 	N 	0.46400 0.29980 0.92010 -0.23400
N 	N 	0.78240 0.50570 0.65930 -0.08900
N 	N 	0.99110 0.49840 0.63200 -0.12300
N 	N 	0.50890 0.86800 0.49840 -0.13400
N 	N 	0.99110 0.00160 0.86800 -0.12000
N 	N 	0.53600 0.79980 0.42010 -0.23400
O 	O 	0.84560 0.29890 0.59560 -0.43100
O 	O 	0.83460 0.73340 0.31242 -0.83900
O 	O 	0.02980 0.40010 0.85520 -0.41700
O 	O 	0.33460 0.68758 0.23340 -0.83300
O 	O 	0.66540 0.18758 0.73340 -0.83300
O 	O 	0.47020 0.64480 0.40010 -0.41000
O 	O 	0.97020 0.59990 0.14480 -0.41700
O 	O 	0.65440 0.90440 0.29890 -0.44000
O 	O 	0.34560 0.09560 0.70110 -0.44000
O 	O 	0.16540 0.26660 0.68758 -0.83900
O 	O 	0.47020 0.85520 0.09990 -0.40900
O 	O 	0.97020 0.90010 0.35520 -0.41700
O 	O 	0.52980 0.14480 0.90010 -0.40900
O 	O 	0.65440 0.59560 0.20110 -0.44000
O 	O 	0.52980 0.35520 0.59990 -0.41000
O 	O 	0.02980 0.09990 0.64480 -0.41700
O 	O 	0.15440 0.70110 0.40440 -0.43100
O 	O 	0.16540 0.23340 0.81242 -0.83900
O 	O 	0.34560 0.40440 0.79890 -0.44000
O 	O 	0.66540 0.31242 0.76660 -0.83300
O 	O 	0.15440 0.79890 0.09560 -0.43000
O 	O 	0.84560 0.20110 0.90440 -0.43000
O 	O 	0.33460 0.81242 0.26660 -0.83300
O 	O 	0.83460 0.76660 0.18758 -0.83900
