data_crystal

_cell_length_a 14.51200
_cell_length_b 14.51200
_cell_length_c 8.91400
_cell_angle_alpha 90.00000
_cell_angle_beta  90.00000
_cell_angle_gamma 90.00000

_symmetry_space_group_name_	'P 1'
_symmetry_space_group_name_H-M	'P 1'

loop_
_symmetry_equiv_pos_as_xyz
  x,y,z

loop_
_atom_site_label
_atom_site_type_symbol
_atom_site_fract_x
_atom_site_fract_y
_atom_site_fract_z
_atom_site_charge
Zn	Zn	0.50381 0.63629 0.38993 1.22000
Zn	Zn	0.50293 0.87246 0.70778 1.24100
Zn	Zn	0.36657 0.01407 0.20939 1.21900
Zn	Zn	0.13088 0.02126 0.88721 1.21700
P 	P 	0.63883 0.49653 0.25792 0.54600
P 	P 	0.34801 0.99071 0.85690 0.69300
P 	P 	0.48947 0.85666 0.35490 0.56300
P 	P 	0.14069 0.02683 0.24212 0.49300
O 	O 	0.38010 0.91260 0.75390 -0.44500
O 	O 	0.53650 0.87400 0.50350 -0.49200
O 	O 	0.40690 0.07600 0.83850 -0.51700
O 	O 	0.34930 0.95690 0.01740 -0.50400
O 	O 	0.39930 0.91090 0.34210 -0.42100
O 	O 	0.25010 0.01300 0.80900 -0.49500
O 	O 	0.60740 0.59650 0.26780 -0.49600
O 	O 	0.74040 0.49020 0.23480 -0.43400
O 	O 	0.60910 0.44590 0.40540 -0.63100
O 	O 	0.59050 0.44500 0.13060 -0.48900
O 	O 	0.55420 0.88140 0.22560 -0.47400
O 	O 	0.46050 0.75540 0.33840 -0.45000
O 	O 	0.24120 0.04910 0.26660 -0.44300
O 	O 	0.08240 0.06830 0.36990 -0.49400
O 	O 	0.10330 0.07100 0.09340 -0.68000
O 	O 	0.12300 0.92310 0.22870 -0.46100
Zn	Zn	0.49619 0.36371 0.38993 1.22100
Zn	Zn	0.49707 0.12754 0.70778 1.23700
Zn	Zn	0.63343 0.98593 0.20939 1.24900
Zn	Zn	0.86912 0.97874 0.88721 1.24100
P 	P 	0.36117 0.50347 0.25792 0.54500
P 	P 	0.65199 0.00929 0.85690 0.55600
P 	P 	0.51053 0.14334 0.35490 0.56200
P 	P 	0.85931 0.97317 0.24212 0.56300
O 	O 	0.61990 0.08740 0.75390 -0.45100
O 	O 	0.46350 0.12600 0.50350 -0.51300
O 	O 	0.59310 0.92400 0.83850 -0.44500
O 	O 	0.65070 0.04310 0.01740 -0.53100
O 	O 	0.60070 0.08910 0.34210 -0.46100
O 	O 	0.74990 0.98700 0.80900 -0.40600
O 	O 	0.39260 0.40350 0.26780 -0.49800
O 	O 	0.25960 0.50980 0.23480 -0.43500
O 	O 	0.39090 0.55410 0.40540 -0.63100
O 	O 	0.40950 0.55500 0.13060 -0.48900
O 	O 	0.44580 0.11860 0.22560 -0.49400
O 	O 	0.53950 0.24460 0.33840 -0.45200
O 	O 	0.75880 0.95090 0.26660 -0.42100
O 	O 	0.91760 0.93170 0.36990 -0.43400
O 	O 	0.89670 0.92900 0.09340 -0.63500
O 	O 	0.87700 0.07690 0.22870 -0.51300
Zn	Zn	0.63629 0.49619 0.61007 1.22200
Zn	Zn	0.87246 0.49707 0.29222 1.23900
Zn	Zn	0.01407 0.63343 0.79061 1.22400
Zn	Zn	0.02126 0.86912 0.11279 1.20400
P 	P 	0.49653 0.36117 0.74208 0.54500
P 	P 	0.99071 0.65199 0.14310 0.61000
P 	P 	0.85666 0.51053 0.64510 0.56200
P 	P 	0.02683 0.85931 0.75788 0.49600
O 	O 	0.91260 0.61990 0.24610 -0.45000
O 	O 	0.87400 0.46350 0.49650 -0.49300
O 	O 	0.07600 0.59310 0.16150 -0.53400
O 	O 	0.95690 0.65070 0.98260 -0.41700
O 	O 	0.91090 0.60070 0.65790 -0.41700
O 	O 	0.01300 0.74990 0.19100 -0.50200
O 	O 	0.59650 0.39260 0.73220 -0.48000
O 	O 	0.49020 0.25960 0.76520 -0.41500
O 	O 	0.44590 0.39090 0.59460 -0.63100
O 	O 	0.44500 0.40950 0.86940 -0.44800
O 	O 	0.88140 0.44580 0.77440 -0.45300
O 	O 	0.75540 0.53950 0.66160 -0.44000
O 	O 	0.04910 0.75880 0.73340 -0.42900
O 	O 	0.06830 0.91760 0.63010 -0.44900
O 	O 	0.07100 0.89670 0.90660 -0.59600
O 	O 	0.92310 0.87700 0.77130 -0.43500
Zn	Zn	0.36371 0.50381 0.61007 1.22200
Zn	Zn	0.12754 0.50293 0.29222 1.23400
Zn	Zn	0.98593 0.36657 0.79061 1.25300
Zn	Zn	0.97874 0.13088 0.11279 1.21900
P 	P 	0.50347 0.63883 0.74208 0.54500
P 	P 	0.00929 0.34801 0.14310 0.47400
P 	P 	0.14334 0.48947 0.64510 0.56200
P 	P 	0.97317 0.14069 0.75788 0.56700
O 	O 	0.08740 0.38010 0.24610 -0.45700
O 	O 	0.12600 0.53650 0.49650 -0.51100
O 	O 	0.92400 0.40690 0.16150 -0.46400
O 	O 	0.04310 0.34930 0.98260 -0.44400
O 	O 	0.08910 0.39930 0.65790 -0.45800
O 	O 	0.98700 0.25010 0.19100 -0.41500
O 	O 	0.40350 0.60740 0.73220 -0.47900
O 	O 	0.50980 0.74040 0.76520 -0.41300
O 	O 	0.55410 0.60910 0.59460 -0.63000
O 	O 	0.55500 0.59050 0.86940 -0.44700
O 	O 	0.11860 0.55420 0.77440 -0.47100
O 	O 	0.24460 0.46050 0.66160 -0.44100
O 	O 	0.95090 0.24120 0.73340 -0.41100
O 	O 	0.93170 0.08240 0.63010 -0.47100
O 	O 	0.92900 0.10330 0.90660 -0.61500
O 	O 	0.07690 0.12300 0.77130 -0.51400
Zn	Zn	0.00000 0.00000 0.50000 1.20200
Zn	Zn	0.50000 0.50000 -0.00000 1.21900
