data_crystal

_cell_length_a 18.71190
_cell_length_b 18.71190
_cell_length_c 9.39910
_cell_angle_alpha 90.00000
_cell_angle_beta  90.00000
_cell_angle_gamma 90.00000

_symmetry_space_group_name_	'P 1'
_symmetry_space_group_name_H-M	'P 1'

loop_
_symmetry_equiv_pos_as_xyz
  x,y,z

loop_
_atom_site_label
_atom_site_type_symbol
_atom_site_fract_x
_atom_site_fract_y
_atom_site_fract_z
_atom_site_charge
Si	Si	0.66733 0.43493 0.59263 4.21600
Si	Si	0.83241 0.55072 0.34042 4.16000
P 	P 	0.05259 0.56170 0.16585 0.86000
Al	Al	0.66460 0.54488 0.33858 2.41300
Al	Al	0.83449 0.43375 0.59170 2.41100
Al	Al	0.93016 0.44186 0.15934 2.40600
O 	O 	0.65868 0.50071 0.50739 -1.76100
O 	O 	0.74802 0.42037 0.62086 -1.62600
O 	O 	0.63561 0.36951 0.52128 -1.68700
O 	O 	0.63462 0.44221 0.74275 -1.63800
O 	O 	0.75242 0.56204 0.30635 -1.59400
O 	O 	0.00651 0.62645 0.20640 -0.82400
O 	O 	0.87003 0.61837 0.34592 -1.68200
O 	O 	0.84068 0.51982 0.48882 -1.62000
O 	O 	0.85918 0.49824 0.22132 -1.60600
O 	O 	0.11797 0.56803 0.25217 -0.81500
O 	O 	0.07864 0.57980 0.00746 -0.79500
O 	O 	0.01487 0.49539 0.17445 -0.81200
Si	Si	0.83267 0.06507 0.59263 4.20100
Si	Si	0.66759 0.94928 0.34042 4.15100
P 	P 	0.44741 0.93830 0.16585 0.85500
Al	Al	0.83540 0.95512 0.33858 2.41300
Al	Al	0.66551 0.06625 0.59170 2.41000
Al	Al	0.56984 0.05814 0.15934 2.40600
O 	O 	0.84132 0.99929 0.50739 -1.75400
O 	O 	0.75198 0.07963 0.62086 -1.62400
O 	O 	0.86439 0.13049 0.52128 -1.68400
O 	O 	0.86538 0.05779 0.74275 -1.63900
O 	O 	0.74758 0.93796 0.30635 -1.59200
O 	O 	0.49349 0.87355 0.20640 -0.82500
O 	O 	0.62997 0.88163 0.34592 -1.68000
O 	O 	0.65932 0.98018 0.48882 -1.61700
O 	O 	0.64082 0.00176 0.22132 -1.60100
O 	O 	0.38203 0.93197 0.25217 -0.81600
O 	O 	0.42136 0.92020 0.00746 -0.80100
O 	O 	0.48513 0.00461 0.17445 -0.80900
Si	Si	0.06507 0.66733 0.59263 4.20900
Si	Si	0.94928 0.83241 0.34042 4.15900
P 	P 	0.93830 0.05259 0.16585 0.85000
Al	Al	0.95512 0.66460 0.33858 2.41300
Al	Al	0.06625 0.83449 0.59170 2.41000
Al	Al	0.05814 0.93016 0.15934 2.40600
O 	O 	0.99929 0.65868 0.50739 -1.75800
O 	O 	0.07963 0.74802 0.62086 -1.62600
O 	O 	0.13049 0.63561 0.52128 -1.68500
O 	O 	0.05779 0.63462 0.74275 -1.64000
O 	O 	0.93796 0.75242 0.30635 -1.59400
O 	O 	0.87355 0.00651 0.20640 -0.82500
O 	O 	0.88163 0.87003 0.34592 -1.68200
O 	O 	0.98018 0.84068 0.48882 -1.61700
O 	O 	0.00176 0.85918 0.22132 -1.60700
O 	O 	0.93197 0.11797 0.25217 -0.81600
O 	O 	0.92020 0.07864 0.00746 -0.79900
O 	O 	0.00461 0.01487 0.17445 -0.80000
Si	Si	0.43493 0.83267 0.59263 4.21500
Si	Si	0.55072 0.66759 0.34042 4.16000
P 	P 	0.56170 0.44741 0.16585 0.86000
Al	Al	0.54488 0.83540 0.33858 2.41300
Al	Al	0.43375 0.66551 0.59170 2.41100
Al	Al	0.44186 0.56984 0.15934 2.40600
O 	O 	0.50071 0.84132 0.50739 -1.76100
O 	O 	0.42037 0.75198 0.62086 -1.62500
O 	O 	0.36951 0.86439 0.52128 -1.68700
O 	O 	0.44221 0.86538 0.74275 -1.63700
O 	O 	0.56204 0.74758 0.30635 -1.59400
O 	O 	0.62645 0.49349 0.20640 -0.82500
O 	O 	0.61837 0.62997 0.34592 -1.68200
O 	O 	0.51982 0.65932 0.48882 -1.62000
O 	O 	0.49824 0.64082 0.22132 -1.60400
O 	O 	0.56803 0.38203 0.25217 -0.81600
O 	O 	0.57980 0.42136 0.00746 -0.79800
O 	O 	0.49539 0.48513 0.17445 -0.81400
Si	Si	0.33267 0.56507 0.40737 4.21600
Si	Si	0.16759 0.44928 0.65958 4.16000
P 	P 	0.94741 0.43830 0.83415 0.86000
Al	Al	0.33540 0.45512 0.66142 2.41300
Al	Al	0.16551 0.56625 0.40830 2.41100
Al	Al	0.06984 0.55814 0.84066 2.40600
O 	O 	0.34132 0.49929 0.49261 -1.76100
O 	O 	0.25198 0.57963 0.37914 -1.62600
O 	O 	0.36439 0.63049 0.47872 -1.68700
O 	O 	0.36538 0.55779 0.25725 -1.63800
O 	O 	0.24758 0.43796 0.69365 -1.59400
O 	O 	0.99349 0.37355 0.79360 -0.82400
O 	O 	0.12997 0.38163 0.65408 -1.68200
O 	O 	0.15932 0.48018 0.51118 -1.62000
O 	O 	0.14082 0.50176 0.77868 -1.60600
O 	O 	0.88203 0.43197 0.74783 -0.81500
O 	O 	0.92136 0.42020 0.99254 -0.79500
O 	O 	0.98513 0.50461 0.82555 -0.81200
Si	Si	0.16733 0.93493 0.40737 4.20100
Si	Si	0.33241 0.05072 0.65958 4.15100
P 	P 	0.55259 0.06170 0.83415 0.85500
Al	Al	0.16460 0.04488 0.66142 2.41300
Al	Al	0.33449 0.93375 0.40830 2.41000
Al	Al	0.43016 0.94186 0.84066 2.40600
O 	O 	0.15868 0.00071 0.49261 -1.75400
O 	O 	0.24802 0.92037 0.37914 -1.62400
O 	O 	0.13561 0.86951 0.47872 -1.68400
O 	O 	0.13462 0.94221 0.25725 -1.63900
O 	O 	0.25242 0.06204 0.69365 -1.59200
O 	O 	0.50651 0.12645 0.79360 -0.82500
O 	O 	0.37003 0.11837 0.65408 -1.68000
O 	O 	0.34068 0.01982 0.51118 -1.61700
O 	O 	0.35918 0.99824 0.77868 -1.60100
O 	O 	0.61797 0.06803 0.74783 -0.81600
O 	O 	0.57864 0.07980 0.99254 -0.80100
O 	O 	0.51487 0.99539 0.82555 -0.80900
Si	Si	0.93493 0.33267 0.40737 4.20900
Si	Si	0.05072 0.16759 0.65958 4.15900
P 	P 	0.06170 0.94741 0.83415 0.85000
Al	Al	0.04488 0.33540 0.66142 2.41300
Al	Al	0.93375 0.16551 0.40830 2.41000
Al	Al	0.94186 0.06984 0.84066 2.40600
O 	O 	0.00071 0.34132 0.49261 -1.75800
O 	O 	0.92037 0.25198 0.37914 -1.62600
O 	O 	0.86951 0.36439 0.47872 -1.68500
O 	O 	0.94221 0.36538 0.25725 -1.64000
O 	O 	0.06204 0.24758 0.69365 -1.59400
O 	O 	0.12645 0.99349 0.79360 -0.82500
O 	O 	0.11837 0.12997 0.65408 -1.68200
O 	O 	0.01982 0.15932 0.51118 -1.61700
O 	O 	0.99824 0.14082 0.77868 -1.60700
O 	O 	0.06803 0.88203 0.74783 -0.81600
O 	O 	0.07980 0.92136 0.99254 -0.79900
O 	O 	0.99539 0.98513 0.82555 -0.80000
Si	Si	0.56507 0.16733 0.40737 4.21500
Si	Si	0.44928 0.33241 0.65958 4.16000
P 	P 	0.43830 0.55259 0.83415 0.86000
Al	Al	0.45512 0.16460 0.66142 2.41300
Al	Al	0.56625 0.33449 0.40830 2.41100
Al	Al	0.55814 0.43016 0.84066 2.40600
O 	O 	0.49929 0.15868 0.49261 -1.76100
O 	O 	0.57963 0.24802 0.37914 -1.62500
O 	O 	0.63049 0.13561 0.47872 -1.68700
O 	O 	0.55779 0.13462 0.25725 -1.63700
O 	O 	0.43796 0.25242 0.69365 -1.59400
O 	O 	0.37355 0.50651 0.79360 -0.82500
O 	O 	0.38163 0.37003 0.65408 -1.68200
O 	O 	0.48018 0.34068 0.51118 -1.62000
O 	O 	0.50176 0.35918 0.77868 -1.60400
O 	O 	0.43197 0.61797 0.74783 -0.81600
O 	O 	0.42020 0.57864 0.99254 -0.79800
O 	O 	0.50461 0.51487 0.82555 -0.81400
