data_crystal

_cell_length_a 14.53800
_cell_length_b 14.53800
_cell_length_c 17.51500
_cell_angle_alpha 90.00000
_cell_angle_beta  90.00000
_cell_angle_gamma 120.00000

_symmetry_space_group_name_	'P 1'
_symmetry_space_group_name_H-M	'P 1'

loop_
_symmetry_equiv_pos_as_xyz
  x,y,z

loop_
_atom_site_label
_atom_site_type_symbol
_atom_site_fract_x
_atom_site_fract_y
_atom_site_fract_z
_atom_site_charge
C 	C 	0.60280 0.02090 0.07830 -0.85900
H 	H 	0.62210 0.09300 0.06730 0.25600
H 	H 	0.63680 0.01860 0.12470 0.27100
H 	H 	0.52720 0.97880 0.08420 0.25500
C 	C 	0.63710 0.97840 0.01515 0.31800
N 	N 	0.62400 0.88110 0.01027 -0.29200
N 	N 	0.66330 0.87310 0.94340 -0.07900
N 	N 	0.70070 0.96550 0.90700 -0.07000
N 	N 	0.68440 0.03050 0.95132 -0.29400
C 	C 	0.61540 0.15900 0.75020 -0.27300
H 	H 	0.58830 0.14610 0.80150 0.05800
H 	H 	0.57080 0.09930 0.71870 0.09400
H 	H 	0.61610 0.22140 0.73060 0.05500
C 	C 	0.72540 0.17670 0.75005 0.21800
N 	N 	0.78660 0.19710 0.81145 -0.27200
N 	N 	0.88520 0.23010 0.78788 -0.08300
N 	N 	0.88510 0.23010 0.71192 -0.08200
N 	N 	0.78630 0.19710 0.68854 -0.27600
C 	C 	0.60270 0.02060 0.42130 -0.88400
H 	H 	0.57120 0.96770 0.38210 0.25900
H 	H 	0.66300 0.08280 0.40090 0.27000
H 	H 	0.55150 0.03870 0.43960 0.26300
C 	C 	0.63720 0.97860 0.48475 0.32000
N 	N 	0.68450 0.03070 0.54872 -0.29300
N 	N 	0.70040 0.96540 0.59314 -0.07400
N 	N 	0.66300 0.87290 0.55660 -0.08500
N 	N 	0.62390 0.88110 0.48963 -0.29300
Zn	Zn	0.75232 0.18435 0.57680 1.19200
Zn	Zn	0.75236 0.18439 0.92317 1.19100
O 	O 	0.64860 0.22600 0.55760 -0.51500
O 	O 	0.64840 0.22610 0.94270 -0.51700
C 	C 	0.60910 0.11060 0.75030 -0.26500
H 	H 	0.58290 0.10790 0.80100 0.06700
H 	H 	0.58910 0.04000 0.73370 0.05400
H 	H 	0.57940 0.14060 0.71620 0.10400
C 	C 	0.97910 0.58190 0.07830 -0.85400
H 	H 	0.90700 0.52910 0.06730 0.25300
H 	H 	0.98140 0.61820 0.12470 0.26800
H 	H 	0.02120 0.54840 0.08420 0.25200
C 	C 	0.02160 0.65870 0.01515 0.31200
N 	N 	0.11890 0.74290 0.01027 -0.29500
N 	N 	0.12690 0.79020 0.94340 -0.07700
N 	N 	0.03450 0.73520 0.90700 -0.07000
N 	N 	0.96950 0.65390 0.95132 -0.29200
C 	C 	0.84100 0.45640 0.75020 -0.27400
H 	H 	0.85390 0.44220 0.80150 0.05800
H 	H 	0.90070 0.47150 0.71870 0.09400
H 	H 	0.77860 0.39470 0.73060 0.05500
C 	C 	0.82330 0.54870 0.75005 0.21800
N 	N 	0.80290 0.58950 0.81145 -0.27200
N 	N 	0.76990 0.65510 0.78788 -0.08200
N 	N 	0.76990 0.65500 0.71192 -0.08100
N 	N 	0.80290 0.58920 0.68854 -0.27600
C 	C 	0.97940 0.58210 0.42130 -0.88200
H 	H 	0.03230 0.60350 0.38210 0.25800
H 	H 	0.91720 0.58020 0.40090 0.27000
H 	H 	0.96130 0.51280 0.43960 0.26200
C 	C 	0.02140 0.65860 0.48475 0.31900
N 	N 	0.96930 0.65380 0.54872 -0.29300
N 	N 	0.03460 0.73500 0.59314 -0.07400
N 	N 	0.12710 0.79010 0.55660 -0.08400
N 	N 	0.11890 0.74280 0.48963 -0.29300
Zn	Zn	0.81565 0.56797 0.57680 1.19200
Zn	Zn	0.81561 0.56797 0.92317 1.19200
O 	O 	0.77400 0.42260 0.55760 -0.51500
O 	O 	0.77390 0.42230 0.94270 -0.51700
C 	C 	0.88940 0.49850 0.75030 -0.26500
H 	H 	0.89210 0.47500 0.80100 0.06700
H 	H 	0.96000 0.54910 0.73370 0.05400
H 	H 	0.85940 0.43880 0.71620 0.10400
C 	C 	0.41810 0.39720 0.07830 -0.90000
H 	H 	0.47090 0.37790 0.06730 0.26400
H 	H 	0.38180 0.36320 0.12470 0.28000
H 	H 	0.45160 0.47280 0.08420 0.26800
C 	C 	0.34130 0.36290 0.01515 0.33000
N 	N 	0.25710 0.37600 0.01027 -0.29500
N 	N 	0.20980 0.33670 0.94340 -0.08000
N 	N 	0.26480 0.29930 0.90700 -0.07300
N 	N 	0.34610 0.31560 0.95132 -0.29400
C 	C 	0.54360 0.38460 0.75020 -0.27400
H 	H 	0.55780 0.41170 0.80150 0.05800
H 	H 	0.52850 0.42920 0.71870 0.09400
H 	H 	0.60530 0.38390 0.73060 0.05500
C 	C 	0.45130 0.27460 0.75005 0.21900
N 	N 	0.41050 0.21340 0.81145 -0.27200
N 	N 	0.34490 0.11480 0.78788 -0.08200
N 	N 	0.34500 0.11490 0.71192 -0.08100
N 	N 	0.41080 0.21370 0.68854 -0.27600
C 	C 	0.41790 0.39730 0.42130 -0.88900
H 	H 	0.39650 0.42880 0.38210 0.26100
H 	H 	0.41980 0.33700 0.40090 0.27100
H 	H 	0.48720 0.44850 0.43960 0.26400
C 	C 	0.34140 0.36280 0.48475 0.32200
N 	N 	0.34620 0.31550 0.54872 -0.29300
N 	N 	0.26500 0.29960 0.59314 -0.07400
N 	N 	0.20990 0.33700 0.55660 -0.08400
N 	N 	0.25720 0.37610 0.48963 -0.29400
Zn	Zn	0.43203 0.24768 0.57680 1.19200
Zn	Zn	0.43203 0.24764 0.92317 1.19200
O 	O 	0.57740 0.35140 0.55760 -0.51500
O 	O 	0.57770 0.35160 0.94270 -0.51700
C 	C 	0.50150 0.39090 0.75030 -0.26500
H 	H 	0.52500 0.41710 0.80100 0.06700
H 	H 	0.45090 0.41090 0.73370 0.05500
H 	H 	0.56120 0.42060 0.71620 0.10400
C 	C 	0.39720 0.97910 0.92170 -0.86000
H 	H 	0.37790 0.90700 0.93270 0.25500
H 	H 	0.36320 0.98140 0.87530 0.27000
H 	H 	0.47280 0.02120 0.91580 0.25400
C 	C 	0.36290 0.02160 0.98485 0.31700
N 	N 	0.37600 0.11890 0.98973 -0.29300
N 	N 	0.33670 0.12690 0.05660 -0.08000
N 	N 	0.29930 0.03450 0.09300 -0.07100
N 	N 	0.31560 0.96950 0.04868 -0.29500
C 	C 	0.38460 0.84100 0.24980 -0.27400
H 	H 	0.41170 0.85390 0.19850 0.05800
H 	H 	0.42920 0.90070 0.28130 0.09400
H 	H 	0.38390 0.77860 0.26940 0.05500
C 	C 	0.27460 0.82330 0.24995 0.21800
N 	N 	0.21340 0.80290 0.18855 -0.27200
N 	N 	0.11480 0.76990 0.21212 -0.08300
N 	N 	0.11490 0.76990 0.28808 -0.08200
N 	N 	0.21370 0.80290 0.31146 -0.27600
C 	C 	0.39730 0.97940 0.57870 -0.88400
H 	H 	0.42880 0.03230 0.61790 0.25900
H 	H 	0.33700 0.91720 0.59910 0.27000
H 	H 	0.44850 0.96130 0.56040 0.26300
C 	C 	0.36280 0.02140 0.51525 0.32000
N 	N 	0.31550 0.96930 0.45128 -0.29300
N 	N 	0.29960 0.03460 0.40686 -0.07400
N 	N 	0.33700 0.12710 0.44340 -0.08500
N 	N 	0.37610 0.11890 0.51037 -0.29300
Zn	Zn	0.24768 0.81565 0.42320 1.19200
Zn	Zn	0.24764 0.81561 0.07683 1.19100
O 	O 	0.35140 0.77400 0.44240 -0.51500
O 	O 	0.35160 0.77390 0.05730 -0.51700
C 	C 	0.39090 0.88940 0.24970 -0.26500
H 	H 	0.41710 0.89210 0.19900 0.06700
H 	H 	0.41090 0.96000 0.26630 0.05400
H 	H 	0.42060 0.85940 0.28380 0.10400
C 	C 	0.02090 0.41810 0.92170 -0.85400
H 	H 	0.09300 0.47090 0.93270 0.25300
H 	H 	0.01860 0.38180 0.87530 0.26800
H 	H 	0.97880 0.45160 0.91580 0.25200
C 	C 	0.97840 0.34130 0.98485 0.31200
N 	N 	0.88110 0.25710 0.98973 -0.29500
N 	N 	0.87310 0.20980 0.05660 -0.07700
N 	N 	0.96550 0.26480 0.09300 -0.07000
N 	N 	0.03050 0.34610 0.04868 -0.29200
C 	C 	0.15900 0.54360 0.24980 -0.27400
H 	H 	0.14610 0.55780 0.19850 0.05800
H 	H 	0.09930 0.52850 0.28130 0.09400
H 	H 	0.22140 0.60530 0.26940 0.05500
C 	C 	0.17670 0.45130 0.24995 0.21800
N 	N 	0.19710 0.41050 0.18855 -0.27200
N 	N 	0.23010 0.34490 0.21212 -0.08200
N 	N 	0.23010 0.34500 0.28808 -0.08100
N 	N 	0.19710 0.41080 0.31146 -0.27600
C 	C 	0.02060 0.41790 0.57870 -0.88200
H 	H 	0.96770 0.39650 0.61790 0.25800
H 	H 	0.08280 0.41980 0.59910 0.27000
H 	H 	0.03870 0.48720 0.56040 0.26200
C 	C 	0.97860 0.34140 0.51525 0.31900
N 	N 	0.03070 0.34620 0.45128 -0.29300
N 	N 	0.96540 0.26500 0.40686 -0.07400
N 	N 	0.87290 0.20990 0.44340 -0.08400
N 	N 	0.88110 0.25720 0.51037 -0.29300
Zn	Zn	0.18435 0.43203 0.42320 1.19200
Zn	Zn	0.18439 0.43203 0.07683 1.19200
O 	O 	0.22600 0.57740 0.44240 -0.51500
O 	O 	0.22610 0.57770 0.05730 -0.51700
C 	C 	0.11060 0.50150 0.24970 -0.26500
H 	H 	0.10790 0.52500 0.19900 0.06700
H 	H 	0.04000 0.45090 0.26630 0.05400
H 	H 	0.14060 0.56120 0.28380 0.10400
C 	C 	0.58190 0.60280 0.92170 -0.90000
H 	H 	0.52910 0.62210 0.93270 0.26400
H 	H 	0.61820 0.63680 0.87530 0.28000
H 	H 	0.54840 0.52720 0.91580 0.26800
C 	C 	0.65870 0.63710 0.98485 0.33000
N 	N 	0.74290 0.62400 0.98973 -0.29500
N 	N 	0.79020 0.66330 0.05660 -0.08000
N 	N 	0.73520 0.70070 0.09300 -0.07300
N 	N 	0.65390 0.68440 0.04868 -0.29400
C 	C 	0.45640 0.61540 0.24980 -0.27400
H 	H 	0.44220 0.58830 0.19850 0.05800
H 	H 	0.47150 0.57080 0.28130 0.09400
H 	H 	0.39470 0.61610 0.26940 0.05500
C 	C 	0.54870 0.72540 0.24995 0.21900
N 	N 	0.58950 0.78660 0.18855 -0.27200
N 	N 	0.65510 0.88520 0.21212 -0.08200
N 	N 	0.65500 0.88510 0.28808 -0.08100
N 	N 	0.58920 0.78630 0.31146 -0.27600
C 	C 	0.58210 0.60270 0.57870 -0.88900
H 	H 	0.60350 0.57120 0.61790 0.26100
H 	H 	0.58020 0.66300 0.59910 0.27100
H 	H 	0.51280 0.55150 0.56040 0.26400
C 	C 	0.65860 0.63720 0.51525 0.32200
N 	N 	0.65380 0.68450 0.45128 -0.29300
N 	N 	0.73500 0.70040 0.40686 -0.07400
N 	N 	0.79010 0.66300 0.44340 -0.08400
N 	N 	0.74280 0.62390 0.51037 -0.29400
Zn	Zn	0.56797 0.75232 0.42320 1.19200
Zn	Zn	0.56797 0.75236 0.07683 1.19200
O 	O 	0.42260 0.64860 0.44240 -0.51500
O 	O 	0.42230 0.64840 0.05730 -0.51700
C 	C 	0.49850 0.60910 0.24970 -0.26500
H 	H 	0.47500 0.58290 0.19900 0.06700
H 	H 	0.54910 0.58910 0.26630 0.05500
H 	H 	0.43880 0.57940 0.28380 0.10400
P 	P 	0.66667 0.33333 0.96772 0.40000
P 	P 	0.66667 0.33333 0.53224 0.39600
P 	P 	0.33333 0.66667 0.03228 0.40000
P 	P 	0.33333 0.66667 0.46776 0.39600
