data_crystal

_cell_length_a 13.95000
_cell_length_b 26.71300
_cell_length_c 7.62800
_cell_angle_alpha 90.00000
_cell_angle_beta  90.00000
_cell_angle_gamma 90.00000

_symmetry_space_group_name_	'P 1'
_symmetry_space_group_name_H-M	'P 1'

loop_
_symmetry_equiv_pos_as_xyz
  x,y,z

loop_
_atom_site_label
_atom_site_type_symbol
_atom_site_fract_x
_atom_site_fract_y
_atom_site_fract_z
_atom_site_charge
Cd	Cd	0.69205 0.50000 0.62347 1.18300
Cd	Cd	0.73930 0.76917 0.62463 1.18400
Ni	Ni	0.74864 0.63379 0.11515 1.05100
Ni	Ni	0.47564 0.38378 0.99480 1.05700
N 	N 	0.71770 0.55680 0.83590 -0.19800
N 	N 	0.72430 0.55730 0.39950 -0.18100
N 	N 	0.64290 0.43760 0.83200 -0.16400
N 	N 	0.34520 0.46590 0.87580 -0.17900
N 	N 	0.65280 0.44260 0.39400 -0.20400
N 	N 	0.52820 0.51300 0.57130 -0.23100
N 	N 	0.76170 0.71180 0.83510 -0.19800
N 	N 	0.76520 0.71200 0.39570 -0.18000
N 	N 	0.30700 0.33240 0.15900 -0.15700
N 	N 	0.60720 0.30260 0.11630 -0.17900
N 	N 	0.69730 0.82730 0.40300 -0.20900
N 	N 	0.57240 0.75590 0.58690 -0.22400
C 	C 	0.72960 0.58560 0.94300 -0.24800
C 	C 	0.73370 0.58600 0.28880 -0.25400
C 	C 	0.58100 0.41640 0.89790 -0.23800
C 	C 	0.39490 0.43490 0.92030 -0.23800
C 	C 	0.76060 0.68180 0.94000 -0.24600
C 	C 	0.76110 0.68260 0.28730 -0.25400
C 	C 	0.37000 0.35160 0.09500 -0.22900
C 	C 	0.55570 0.33270 0.06900 -0.23200
C 	C 	0.55150 0.44600 0.36100 -0.06000
C 	C 	0.49630 0.48060 0.43300 0.02100
C 	C 	0.38990 0.48000 0.39100 -0.07100
C 	C 	0.58980 0.82840 0.39700 -0.06200
C 	C 	0.54150 0.78510 0.43400 0.00900
C 	C 	0.43290 0.78670 0.40900 -0.06700
Cd	Cd	0.30795 0.00000 0.37653 1.16400
Cd	Cd	0.26070 0.26917 0.37537 1.18300
Ni	Ni	0.25136 0.13379 0.88485 1.04700
Ni	Ni	0.52436 0.88378 0.00520 1.06000
N 	N 	0.28230 0.05680 0.16410 -0.20900
N 	N 	0.27570 0.05730 0.60050 -0.19300
N 	N 	0.35710 0.93760 0.16800 -0.15200
N 	N 	0.65480 0.96590 0.12420 -0.16200
N 	N 	0.34720 0.94260 0.60600 -0.19100
N 	N 	0.47180 0.01300 0.42870 -0.27200
N 	N 	0.23830 0.21180 0.16490 -0.19800
N 	N 	0.23480 0.21200 0.60430 -0.18000
N 	N 	0.69300 0.83240 0.84100 -0.15700
N 	N 	0.39280 0.80260 0.88370 -0.17900
N 	N 	0.30270 0.32730 0.59700 -0.21000
N 	N 	0.42760 0.25590 0.41310 -0.22400
C 	C 	0.27040 0.08560 0.05700 -0.25700
C 	C 	0.26630 0.08600 0.71120 -0.26900
C 	C 	0.41900 0.91640 0.10210 -0.22900
C 	C 	0.60510 0.93490 0.07970 -0.22800
C 	C 	0.23940 0.18180 0.06000 -0.24600
C 	C 	0.23890 0.18260 0.71270 -0.25800
C 	C 	0.63000 0.85160 0.90500 -0.23100
C 	C 	0.44430 0.83270 0.93100 -0.23400
C 	C 	0.44850 0.94600 0.63900 -0.06400
C 	C 	0.50370 0.98060 0.56700 0.06600
C 	C 	0.61010 0.98000 0.60900 -0.05200
C 	C 	0.41020 0.32840 0.60300 -0.06400
C 	C 	0.45850 0.28510 0.56600 0.00900
C 	C 	0.56710 0.28670 0.59100 -0.06900
Cd	Cd	0.19205 0.50000 0.87653 1.18200
Cd	Cd	0.23930 0.76917 0.87537 1.18300
Ni	Ni	0.24864 0.63379 0.38485 1.05100
Ni	Ni	0.97564 0.38378 0.50520 1.06100
N 	N 	0.21770 0.55680 0.66410 -0.19800
N 	N 	0.22430 0.55730 0.10050 -0.17900
N 	N 	0.14290 0.43760 0.66800 -0.16500
N 	N 	0.84520 0.46590 0.62420 -0.17800
N 	N 	0.15280 0.44260 0.10600 -0.20200
N 	N 	0.02820 0.51300 0.92870 -0.23600
N 	N 	0.26170 0.71180 0.66490 -0.19800
N 	N 	0.26520 0.71200 0.10430 -0.18000
N 	N 	0.80700 0.33240 0.34100 -0.15700
N 	N 	0.10720 0.30260 0.38370 -0.17800
N 	N 	0.19730 0.82730 0.09700 -0.20900
N 	N 	0.07240 0.75590 0.91310 -0.22600
C 	C 	0.22960 0.58560 0.55700 -0.24800
C 	C 	0.23370 0.58600 0.21120 -0.25400
C 	C 	0.08100 0.41640 0.60210 -0.23700
C 	C 	0.89490 0.43490 0.57970 -0.23300
C 	C 	0.26060 0.68180 0.56000 -0.24900
C 	C 	0.26110 0.68260 0.21270 -0.25300
C 	C 	0.87000 0.35160 0.40500 -0.23400
C 	C 	0.05570 0.33270 0.43100 -0.23700
C 	C 	0.05150 0.44600 0.13900 -0.05900
C 	C 	0.99630 0.48060 0.06700 0.02500
C 	C 	0.88990 0.48000 0.10900 -0.07100
C 	C 	0.08980 0.82840 0.10300 -0.06300
C 	C 	0.04150 0.78510 0.06600 0.01000
C 	C 	0.93290 0.78670 0.09100 -0.06800
Cd	Cd	0.80795 0.00000 0.12347 1.16400
Cd	Cd	0.76070 0.26917 0.12463 1.18400
Ni	Ni	0.75136 0.13379 0.61515 1.05000
Ni	Ni	0.02436 0.88378 0.49480 1.05900
N 	N 	0.78230 0.05680 0.33590 -0.20900
N 	N 	0.77570 0.05730 0.89950 -0.19200
N 	N 	0.85710 0.93760 0.33200 -0.15300
N 	N 	0.15480 0.96590 0.37580 -0.16200
N 	N 	0.84720 0.94260 0.89400 -0.19000
N 	N 	0.97180 0.01300 0.07130 -0.26900
N 	N 	0.73830 0.21180 0.33510 -0.19800
N 	N 	0.73480 0.21200 0.89570 -0.18100
N 	N 	0.19300 0.83240 0.65900 -0.15700
N 	N 	0.89280 0.80260 0.61630 -0.17800
N 	N 	0.80270 0.32730 0.90300 -0.21100
N 	N 	0.92760 0.25590 0.08690 -0.22300
C 	C 	0.77040 0.08560 0.44300 -0.26000
C 	C 	0.76630 0.08600 0.78880 -0.26800
C 	C 	0.91900 0.91640 0.39790 -0.22700
C 	C 	0.10510 0.93490 0.42030 -0.22800
C 	C 	0.73940 0.18180 0.44000 -0.25100
C 	C 	0.73890 0.18260 0.78730 -0.25600
C 	C 	0.13000 0.85160 0.59500 -0.23500
C 	C 	0.94430 0.83270 0.56900 -0.23300
C 	C 	0.94850 0.94600 0.86100 -0.05300
C 	C 	0.00370 0.98060 0.93300 0.05400
C 	C 	0.11010 0.98000 0.89100 -0.05200
C 	C 	0.91020 0.32840 0.89700 -0.06400
C 	C 	0.95850 0.28510 0.93400 0.01200
C 	C 	0.06710 0.28670 0.90900 -0.07600
