data_crystal

_cell_length_a 16.26440
_cell_length_b 16.26440
_cell_length_c 30.56300
_cell_angle_alpha 90.00000
_cell_angle_beta  90.00000
_cell_angle_gamma 90.00000

_symmetry_space_group_name_	'P 1'
_symmetry_space_group_name_H-M	'P 1'

loop_
_symmetry_equiv_pos_as_xyz
  x,y,z

loop_
_atom_site_label
_atom_site_type_symbol
_atom_site_fract_x
_atom_site_fract_y
_atom_site_fract_z
_atom_site_charge
Zn	Zn	0.13804 0.09021 0.70367 1.21700
Zn	Zn	0.37579 0.38783 0.60042 1.22800
Zn	Zn	0.59021 0.63804 0.79633 1.21700
Zn	Zn	0.88783 0.62421 0.39958 1.22800
Zn	Zn	0.88783 0.87579 0.89958 1.22800
Zn	Zn	0.36196 0.09021 0.20367 1.21700
Zn	Zn	0.13804 0.40979 0.20367 1.21700
Zn	Zn	0.63804 0.59021 0.29633 1.21700
Zn	Zn	0.09021 0.13804 0.20367 1.21700
Zn	Zn	0.61217 0.87579 0.39958 1.22800
Zn	Zn	0.61217 0.62421 0.89958 1.22800
Zn	Zn	0.12421 0.38783 0.10042 1.22800
Zn	Zn	0.40979 0.13804 0.70367 1.21700
Zn	Zn	0.62421 0.88783 0.89958 1.22800
Zn	Zn	0.87579 0.61217 0.89958 1.22800
Zn	Zn	0.11217 0.12421 0.10042 1.22800
Zn	Zn	0.36196 0.40979 0.70367 1.21700
Zn	Zn	0.86196 0.90979 0.29633 1.21700
Zn	Zn	0.38783 0.37579 0.10042 1.22800
Zn	Zn	0.86196 0.59021 0.79633 1.21700
Zn	Zn	0.38783 0.12421 0.60042 1.22800
Zn	Zn	0.59021 0.86196 0.29633 1.21700
Zn	Zn	0.09021 0.36196 0.70367 1.21700
Zn	Zn	0.37579 0.11217 0.10042 1.22800
Zn	Zn	0.90979 0.63804 0.29633 1.21700
Zn	Zn	0.11217 0.37579 0.60042 1.22800
Zn	Zn	0.40979 0.36196 0.20367 1.21700
Zn	Zn	0.62421 0.61217 0.39958 1.22800
Zn	Zn	0.87579 0.88783 0.39958 1.22800
Zn	Zn	0.12421 0.11217 0.60042 1.22800
Zn	Zn	0.63804 0.90979 0.79633 1.21700
Zn	Zn	0.90979 0.86196 0.79633 1.21700
H 	H 	0.14000 0.22850 0.15050 0.27500
H 	H 	0.93960 0.69090 0.15640 0.05100
H 	H 	0.48220 0.88550 0.58910 0.04500
H 	H 	0.81790 0.94230 0.53310 0.05100
H 	H 	0.89280 0.50280 0.47200 0.02100
H 	H 	0.59880 0.98650 0.21890 0.02700
H 	H 	0.11450 0.98220 0.41090 0.04500
H 	H 	0.44890 0.96290 0.46200 0.06000
H 	H 	0.12460 0.52050 0.39770 0.04900
H 	H 	0.90120 0.51350 0.21890 0.02700
H 	H 	0.47950 0.87540 0.10230 0.04900
H 	H 	0.50280 0.60720 0.47200 0.02100
H 	H 	0.01350 0.09880 0.78110 0.02700
H 	H 	0.09880 0.48650 0.78110 0.02700
H 	H 	0.05110 0.96290 0.96200 0.06000
H 	H 	0.51350 0.90120 0.71890 0.02700
H 	H 	0.51350 0.59880 0.21890 0.02700
H 	H 	0.77150 0.86000 0.34950 0.27500
H 	H 	0.30910 0.43960 0.84360 0.05100
H 	H 	0.44230 0.18210 0.46690 0.05100
H 	H 	0.93960 0.80910 0.65640 0.05200
H 	H 	0.31790 0.44230 0.46690 0.05100
H 	H 	0.47950 0.62460 0.60230 0.04900
H 	H 	0.94890 0.03710 0.03800 0.06000
H 	H 	0.98220 0.11450 0.91090 0.04500
H 	H 	0.03710 0.55110 0.03800 0.06000
H 	H 	0.60720 0.50280 0.97200 0.02100
H 	H 	0.96290 0.05110 0.46200 0.06000
H 	H 	0.86000 0.72850 0.34950 0.27500
H 	H 	0.46290 0.55110 0.53800 0.06000
H 	H 	0.18210 0.05770 0.46690 0.05100
H 	H 	0.81790 0.55770 0.03310 0.05100
H 	H 	0.59880 0.51350 0.71890 0.02700
H 	H 	0.36000 0.27150 0.15050 0.27500
H 	H 	0.02050 0.87540 0.60230 0.04800
H 	H 	0.88550 0.01780 0.58910 0.04500
H 	H 	0.00280 0.10720 0.52800 0.02000
H 	H 	0.55770 0.81790 0.53310 0.05100
H 	H 	0.53710 0.44890 0.46200 0.06000
H 	H 	0.43960 0.19090 0.84360 0.05100
H 	H 	0.80910 0.56040 0.65640 0.05100
H 	H 	0.97950 0.37540 0.89770 0.04900
H 	H 	0.14000 0.27150 0.65050 0.27500
H 	H 	0.10720 0.00280 0.02800 0.02000
H 	H 	0.60720 0.99720 0.47200 0.02000
H 	H 	0.22850 0.14000 0.65050 0.27500
H 	H 	0.27150 0.36000 0.65050 0.27500
H 	H 	0.68210 0.55770 0.53310 0.05100
H 	H 	0.62460 0.47950 0.10230 0.04900
H 	H 	0.01780 0.88550 0.08910 0.04500
H 	H 	0.38550 0.98220 0.91090 0.04600
H 	H 	0.55110 0.46290 0.03800 0.05900
H 	H 	0.99720 0.60720 0.97200 0.02000
H 	H 	0.49720 0.39280 0.52800 0.02100
H 	H 	0.00280 0.39280 0.02800 0.02000
H 	H 	0.05770 0.31790 0.46690 0.05100
H 	H 	0.52050 0.12460 0.89770 0.04900
H 	H 	0.99720 0.89280 0.47200 0.02000
H 	H 	0.94230 0.81790 0.03310 0.05100
H 	H 	0.50280 0.89280 0.97200 0.02100
H 	H 	0.97950 0.12460 0.39770 0.04800
H 	H 	0.19090 0.06040 0.84360 0.05100
H 	H 	0.56040 0.80910 0.15640 0.05100
H 	H 	0.77150 0.64000 0.84950 0.27500
H 	H 	0.49720 0.10720 0.02800 0.02100
H 	H 	0.96290 0.44890 0.96200 0.06000
H 	H 	0.30910 0.06040 0.34360 0.05100
H 	H 	0.94230 0.68210 0.53310 0.05100
H 	H 	0.55110 0.03710 0.53800 0.06000
H 	H 	0.09880 0.01350 0.28110 0.02600
H 	H 	0.18210 0.44230 0.96690 0.05100
H 	H 	0.64000 0.77150 0.34950 0.27500
H 	H 	0.36000 0.22850 0.65050 0.27500
H 	H 	0.55770 0.68210 0.03310 0.05100
H 	H 	0.40120 0.01350 0.78110 0.02700
H 	H 	0.46290 0.94890 0.03800 0.05900
H 	H 	0.37540 0.97950 0.39770 0.04900
H 	H 	0.01350 0.40120 0.28110 0.02700
H 	H 	0.27150 0.14000 0.15050 0.27500
H 	H 	0.98220 0.38550 0.41090 0.04600
H 	H 	0.51780 0.11450 0.41090 0.04500
H 	H 	0.72850 0.64000 0.34950 0.27500
H 	H 	0.69090 0.93960 0.65640 0.05100
H 	H 	0.90120 0.98650 0.71890 0.02600
H 	H 	0.43960 0.30910 0.34360 0.05100
H 	H 	0.86000 0.77150 0.84950 0.27500
H 	H 	0.98650 0.90120 0.21890 0.02700
H 	H 	0.37540 0.52050 0.89770 0.04900
H 	H 	0.06040 0.30910 0.84360 0.05100
H 	H 	0.87540 0.02050 0.10230 0.04800
H 	H 	0.10720 0.49720 0.52800 0.02100
H 	H 	0.39280 0.49720 0.02800 0.02100
H 	H 	0.11450 0.51780 0.91090 0.04500
H 	H 	0.98650 0.59880 0.71890 0.02700
H 	H 	0.03710 0.94890 0.53800 0.06000
H 	H 	0.80910 0.93960 0.15640 0.05100
H 	H 	0.87540 0.47950 0.60230 0.04900
H 	H 	0.01780 0.61450 0.58910 0.04600
H 	H 	0.64000 0.72850 0.84950 0.27500
H 	H 	0.22850 0.36000 0.15050 0.27500
H 	H 	0.05770 0.18210 0.96690 0.05100
H 	H 	0.39280 0.00280 0.52800 0.02000
H 	H 	0.51780 0.38550 0.91090 0.04500
H 	H 	0.06040 0.19090 0.34360 0.05200
H 	H 	0.68210 0.94230 0.03310 0.05100
H 	H 	0.02050 0.62460 0.10230 0.04900
H 	H 	0.38550 0.51780 0.41090 0.04500
H 	H 	0.72850 0.86000 0.84950 0.27500
H 	H 	0.88550 0.48220 0.08910 0.04500
H 	H 	0.44890 0.53710 0.96200 0.05900
H 	H 	0.62460 0.02050 0.60230 0.04900
H 	H 	0.48650 0.40120 0.78110 0.02700
H 	H 	0.19090 0.43960 0.34360 0.05100
H 	H 	0.56040 0.69090 0.65640 0.05100
H 	H 	0.31790 0.05770 0.96690 0.05100
H 	H 	0.44230 0.31790 0.96690 0.05100
H 	H 	0.61450 0.01780 0.08910 0.04600
H 	H 	0.40120 0.48650 0.28110 0.02700
H 	H 	0.89280 0.99720 0.97200 0.02000
H 	H 	0.48220 0.61450 0.08910 0.04500
H 	H 	0.94890 0.46290 0.53800 0.05900
H 	H 	0.53710 0.05110 0.96200 0.05900
H 	H 	0.61450 0.48220 0.58910 0.04500
H 	H 	0.12460 0.97950 0.89770 0.04800
H 	H 	0.52050 0.37540 0.39770 0.04900
H 	H 	0.48650 0.09880 0.28110 0.02700
H 	H 	0.69090 0.56040 0.15640 0.05100
H 	H 	0.05110 0.53710 0.46200 0.05900
C 	C 	0.62890 0.98300 0.19310 0.05500
C 	C 	0.59210 0.00660 0.15360 -0.12000
C 	C 	0.00280 0.63870 0.61550 -0.00500
C 	C 	0.45500 0.25410 0.34460 -0.00800
C 	C 	0.03850 0.26410 0.46570 -0.01200
C 	C 	0.36170 0.00540 0.50250 0.01900
C 	C 	0.99720 0.13870 0.88450 -0.00600
C 	C 	0.45520 0.20740 0.30560 -0.11600
C 	C 	0.06640 0.24840 0.76360 0.36900
C 	C 	0.21940 0.47750 0.88440 -0.01300
C 	C 	0.20740 0.04480 0.30560 -0.11700
C 	C 	0.14940 0.50840 0.42430 -0.04700
C 	C 	0.03850 0.23590 0.96570 -0.01400
C 	C 	0.21980 0.03160 0.00380 -0.12100
C 	C 	0.74840 0.93360 0.23640 0.36900
C 	C 	0.95500 0.75410 0.65540 -0.00800
C 	C 	0.02250 0.21940 0.88440 -0.01100
C 	C 	0.52250 0.71940 0.11560 -0.01300
C 	C 	0.46050 0.50750 0.15390 0.39200
C 	C 	0.10440 0.51660 0.46300 -0.05900
C 	C 	0.50540 0.86170 0.99750 0.01800
C 	C 	0.03950 0.99250 0.15390 0.38400
C 	C 	0.09210 0.99340 0.34640 -0.12000
C 	C 	0.99460 0.86170 0.49750 0.02300
C 	C 	0.93360 0.75160 0.23640 0.36900
C 	C 	0.50750 0.03950 0.15390 0.39200
C 	C 	0.44280 0.25670 0.04630 0.40300
C 	C 	0.13830 0.00540 0.00250 0.02300
C 	C 	0.49460 0.13830 0.00250 0.01800
C 	C 	0.36130 0.99720 0.88450 -0.00500
C 	C 	0.06640 0.25160 0.26360 0.36900
C 	C 	0.25410 0.04500 0.34460 -0.00800
C 	C 	0.00750 0.53950 0.84610 0.39000
C 	C 	0.01660 0.89560 0.53700 -0.06300
C 	C 	0.99160 0.35060 0.92430 -0.04800
C 	C 	0.75410 0.95500 0.15540 -0.00800
C 	C 	0.75670 0.55720 0.95370 0.40300
C 	C 	0.73030 0.98240 0.57470 0.01000
C 	C 	0.24330 0.44280 0.04630 0.40300
C 	C 	0.13830 0.49460 0.50250 0.01800
C 	C 	0.25410 0.45500 0.84460 -0.00800
C 	C 	0.54500 0.75410 0.15540 -0.00800
C 	C 	0.50840 0.14940 0.92430 -0.04700
C 	C 	0.00660 0.59210 0.65360 -0.12000
C 	C 	0.05720 0.25670 0.54630 0.40400
C 	C 	0.43360 0.25160 0.76360 0.36900
C 	C 	0.98340 0.10440 0.46300 -0.06300
C 	C 	0.49720 0.63870 0.11550 -0.00300
C 	C 	0.23030 0.48240 0.42530 0.00900
C 	C 	0.94280 0.74330 0.45370 0.40400
C 	C 	0.52250 0.78060 0.61560 -0.01300
C 	C 	0.28060 0.02250 0.88440 -0.01200
C 	C 	0.36170 0.49460 0.00250 0.01800
C 	C 	0.25670 0.05720 0.04630 0.40400
C 	C 	0.86130 0.00280 0.61550 -0.00600
C 	C 	0.04500 0.24590 0.34460 -0.00800
C 	C 	0.21940 0.02250 0.38440 -0.01100
C 	C 	0.29260 0.45520 0.30560 -0.11600
C 	C 	0.74590 0.95500 0.65540 -0.00800
C 	C 	0.25160 0.43360 0.26360 0.36900
C 	C 	0.50660 0.09210 0.34640 -0.11900
C 	C 	0.48240 0.23030 0.92530 0.00900
C 	C 	0.49250 0.96050 0.84610 0.39200
C 	C 	0.53850 0.76410 0.53430 -0.01300
C 	C 	0.39560 0.51660 0.96300 -0.05900
C 	C 	0.96840 0.78020 0.49620 -0.12100
C 	C 	0.26410 0.46150 0.46570 -0.01300
C 	C 	0.64940 0.00840 0.57570 -0.04800
C 	C 	0.02250 0.28060 0.38440 -0.01200
C 	C 	0.40790 0.99340 0.84640 -0.12000
C 	C 	0.48340 0.60440 0.53700 -0.05900
C 	C 	0.00840 0.64940 0.07570 -0.04800
C 	C 	0.03160 0.21980 0.50380 -0.12100
C 	C 	0.12890 0.48300 0.80690 0.05400
C 	C 	0.74330 0.55720 0.45370 0.40300
C 	C 	0.56640 0.74840 0.23640 0.36900
C 	C 	0.01700 0.12890 0.80690 0.05600
C 	C 	0.24330 0.05720 0.54630 0.40300
C 	C 	0.95520 0.79260 0.19440 -0.11600
C 	C 	0.96150 0.76410 0.03430 -0.01400
C 	C 	0.49160 0.85060 0.07570 -0.04700
C 	C 	0.49160 0.64940 0.57570 -0.04700
C 	C 	0.59210 0.49340 0.65360 -0.12000
C 	C 	0.96050 0.00750 0.84610 0.38400
C 	C 	0.25670 0.44280 0.54630 0.40300
C 	C 	0.99250 0.46050 0.15390 0.39000
C 	C 	0.12890 0.01700 0.30690 0.05700
C 	C 	0.90790 0.00660 0.65360 -0.12000
C 	C 	0.53950 0.49250 0.84610 0.39200
C 	C 	0.96150 0.73590 0.53430 -0.01200
C 	C 	0.85060 0.00840 0.07570 -0.04700
C 	C 	0.01660 0.60440 0.03700 -0.06000
C 	C 	0.05720 0.24330 0.04630 0.40300
C 	C 	0.29260 0.04480 0.80560 -0.11600
C 	C 	0.46150 0.23590 0.46570 -0.01300
C 	C 	0.48240 0.26970 0.42530 0.00900
C 	C 	0.13870 0.99720 0.38450 -0.00600
C 	C 	0.99250 0.03950 0.65390 0.38500
C 	C 	0.99720 0.36130 0.38450 -0.00500
C 	C 	0.85060 0.49160 0.57570 -0.04700
C 	C 	0.53160 0.71980 0.49620 -0.12000
C 	C 	0.04480 0.20740 0.80560 -0.11600
C 	C 	0.24840 0.43360 0.76360 0.36900
C 	C 	0.46050 0.99250 0.65390 0.39100
C 	C 	0.63870 0.49720 0.61550 -0.00300
C 	C 	0.97750 0.71940 0.61560 -0.01200
C 	C 	0.56640 0.75160 0.73640 0.36900
C 	C 	0.43360 0.24840 0.26360 0.36900
C 	C 	0.78060 0.52250 0.11560 -0.01300
C 	C 	0.97750 0.78060 0.11560 -0.01100
C 	C 	0.44280 0.24330 0.54630 0.40300
C 	C 	0.47750 0.28060 0.88440 -0.01300
C 	C 	0.23030 0.01760 0.92530 0.01000
C 	C 	0.98240 0.73030 0.07470 0.01000
C 	C 	0.73030 0.51760 0.07470 0.00900
C 	C 	0.49340 0.59210 0.15360 -0.12000
C 	C 	0.49250 0.53950 0.34610 0.39200
C 	C 	0.99340 0.40790 0.34640 -0.12000
C 	C 	0.76410 0.53850 0.03430 -0.01300
C 	C 	0.45520 0.29260 0.80560 -0.11600
C 	C 	0.10440 0.98340 0.96300 -0.06400
C 	C 	0.48300 0.37110 0.80690 0.05500
C 	C 	0.54480 0.79260 0.69440 -0.11600
C 	C 	0.96050 0.49250 0.34610 0.39200
C 	C 	0.00660 0.90790 0.15360 -0.12000
C 	C 	0.87110 0.51700 0.19310 0.05400
C 	C 	0.60440 0.48340 0.03700 -0.05900
C 	C 	0.55720 0.74330 0.95370 0.40300
C 	C 	0.71940 0.97750 0.11560 -0.01200
C 	C 	0.51660 0.39560 0.46300 -0.05900
C 	C 	0.37110 0.48300 0.30690 0.05500
C 	C 	0.86170 0.99460 0.99750 0.02300
C 	C 	0.46150 0.26410 0.96570 -0.01300
C 	C 	0.74330 0.94280 0.95370 0.40400
C 	C 	0.04480 0.29260 0.30560 -0.11600
C 	C 	0.94280 0.75670 0.95370 0.40300
C 	C 	0.46840 0.28020 0.50380 -0.12000
C 	C 	0.89560 0.48340 0.53700 -0.05900
C 	C 	0.00280 0.86130 0.11550 -0.00600
C 	C 	0.96840 0.71980 0.99620 -0.11900
C 	C 	0.86170 0.50540 0.49750 0.01800
C 	C 	0.99340 0.09210 0.84640 -0.12000
C 	C 	0.99460 0.63830 0.99750 0.01900
C 	C 	0.21980 0.46840 0.50380 -0.12000
C 	C 	0.50280 0.13870 0.38450 -0.00300
C 	C 	0.26970 0.01760 0.42530 0.01000
C 	C 	0.76970 0.98240 0.07470 0.01000
C 	C 	0.76970 0.51760 0.57470 0.00900
C 	C 	0.04500 0.25410 0.84460 -0.00800
C 	C 	0.00540 0.36170 0.00250 0.01900
C 	C 	0.50750 0.46050 0.65390 0.39200
C 	C 	0.51700 0.62890 0.19310 0.05500
C 	C 	0.00840 0.85060 0.57570 -0.04800
C 	C 	0.95520 0.70740 0.69440 -0.11600
C 	C 	0.46840 0.21980 0.00380 -0.12000
C 	C 	0.47750 0.21940 0.38440 -0.01300
C 	C 	0.53160 0.78020 0.99620 -0.12000
C 	C 	0.23590 0.46150 0.96570 -0.01300
C 	C 	0.00540 0.13830 0.50250 0.02300
C 	C 	0.90790 0.49340 0.15360 -0.11900
C 	C 	0.71980 0.96840 0.49620 -0.12000
C 	C 	0.28060 0.47750 0.38440 -0.01300
C 	C 	0.75160 0.93360 0.73640 0.36900
C 	C 	0.87110 0.98300 0.69310 0.05700
C 	C 	0.01760 0.23030 0.42530 0.01000
C 	C 	0.48340 0.89560 0.03700 -0.06000
C 	C 	0.24590 0.45500 0.34460 -0.00800
C 	C 	0.01760 0.26970 0.92530 0.01000
C 	C 	0.60440 0.01660 0.53700 -0.06000
C 	C 	0.74590 0.54500 0.15540 -0.00800
C 	C 	0.40790 0.50660 0.34640 -0.12000
C 	C 	0.63830 0.50540 0.99750 0.01800
C 	C 	0.55720 0.75670 0.45370 0.40300
C 	C 	0.23590 0.03850 0.46570 -0.01300
C 	C 	0.51700 0.87110 0.69310 0.05500
C 	C 	0.98240 0.76970 0.57470 0.01000
C 	C 	0.78020 0.96840 0.99620 -0.12100
C 	C 	0.63870 0.00280 0.11550 -0.00500
C 	C 	0.64940 0.49160 0.07570 -0.04700
C 	C 	0.35060 0.50840 0.92430 -0.04700
C 	C 	0.79260 0.95520 0.69440 -0.11700
C 	C 	0.51660 0.10440 0.96300 -0.06000
C 	C 	0.03160 0.28020 0.00380 -0.11900
C 	C 	0.50280 0.36130 0.88450 -0.00300
C 	C 	0.37110 0.01700 0.80690 0.05500
C 	C 	0.13870 0.50280 0.88450 -0.00300
C 	C 	0.28020 0.46840 0.00380 -0.11900
C 	C 	0.73590 0.53850 0.53430 -0.01300
C 	C 	0.51760 0.73030 0.57470 0.00900
C 	C 	0.54480 0.70740 0.19440 -0.11600
C 	C 	0.70740 0.95520 0.19440 -0.11600
C 	C 	0.98300 0.62890 0.69310 0.05600
C 	C 	0.49460 0.36170 0.50250 0.01800
C 	C 	0.50540 0.63830 0.49750 0.01800
C 	C 	0.26410 0.03850 0.96570 -0.01300
C 	C 	0.09210 0.50660 0.84640 -0.11900
C 	C 	0.79260 0.54480 0.19440 -0.11600
C 	C 	0.36130 0.50280 0.38450 -0.00300
C 	C 	0.71980 0.53160 0.99620 -0.11900
C 	C 	0.20740 0.45520 0.80560 -0.11600
C 	C 	0.26970 0.48240 0.92530 0.00900
C 	C 	0.54500 0.74590 0.65540 -0.00800
C 	C 	0.50660 0.40790 0.84640 -0.12000
C 	C 	0.49340 0.90790 0.65360 -0.11900
C 	C 	0.53850 0.73590 0.03430 -0.01300
C 	C 	0.70740 0.54480 0.69440 -0.11600
C 	C 	0.98300 0.87110 0.19310 0.05600
C 	C 	0.45500 0.24590 0.84460 -0.00800
C 	C 	0.93360 0.74840 0.73640 0.36900
C 	C 	0.28020 0.03160 0.50380 -0.12000
C 	C 	0.71940 0.52250 0.61560 -0.01300
C 	C 	0.39560 0.98340 0.46300 -0.06000
C 	C 	0.75410 0.54500 0.65540 -0.00800
C 	C 	0.24590 0.04500 0.84460 -0.00800
C 	C 	0.48300 0.12890 0.30690 0.05500
C 	C 	0.78060 0.97750 0.61560 -0.01100
C 	C 	0.53950 0.00750 0.34610 0.39100
C 	C 	0.89560 0.01660 0.03700 -0.06400
C 	C 	0.50840 0.35060 0.42430 -0.04700
C 	C 	0.00750 0.96050 0.34610 0.38500
C 	C 	0.35060 0.99160 0.42430 -0.04800
C 	C 	0.86130 0.49720 0.11550 -0.00300
C 	C 	0.63830 0.99460 0.49750 0.01900
C 	C 	0.76410 0.96150 0.53430 -0.01300
C 	C 	0.14940 0.99160 0.92430 -0.04700
C 	C 	0.24840 0.06640 0.26360 0.36900
C 	C 	0.62890 0.51700 0.69310 0.05500
C 	C 	0.99160 0.14940 0.42430 -0.04800
C 	C 	0.78020 0.53160 0.49620 -0.12000
C 	C 	0.75670 0.94280 0.45370 0.40300
C 	C 	0.98340 0.39560 0.96300 -0.06000
C 	C 	0.75160 0.56640 0.23640 0.36900
C 	C 	0.51760 0.76970 0.07470 0.00900
C 	C 	0.03950 0.50750 0.65390 0.39200
C 	C 	0.73590 0.96150 0.03430 -0.01300
C 	C 	0.95500 0.74590 0.15540 -0.00800
C 	C 	0.25160 0.06640 0.76360 0.36900
C 	C 	0.49720 0.86130 0.61550 -0.00300
C 	C 	0.01700 0.37110 0.30690 0.05600
C 	C 	0.74840 0.56640 0.73640 0.36900
O 	O 	0.58920 0.70820 0.26890 -0.47500
O 	O 	0.57300 0.78530 0.92110 -0.54800
O 	O 	0.41080 0.29180 0.73110 -0.47500
O 	O 	0.14790 0.32290 0.65292 -0.80700
O 	O 	0.94120 0.67400 0.23755 -0.46300
O 	O 	0.43870 0.16590 0.54752 -0.48400
O 	O 	0.17710 0.14790 0.65292 -0.80700
O 	O 	0.55510 0.52360 0.80964 -0.49300
O 	O 	0.67400 0.55880 0.23755 -0.46300
O 	O 	0.08920 0.20820 0.73110 -0.47500
O 	O 	0.93870 0.66590 0.45248 -0.48400
O 	O 	0.28530 0.07300 0.57890 -0.54800
O 	O 	0.05880 0.32600 0.76245 -0.46300
O 	O 	0.55880 0.67400 0.73755 -0.46300
O 	O 	0.44120 0.17400 0.76245 -0.46400
O 	O 	0.97320 0.95020 0.38303 -0.49700
O 	O 	0.47640 0.05510 0.19036 -0.49300
O 	O 	0.33410 0.06130 0.04752 -0.48300
O 	O 	0.95020 0.97320 0.88303 -0.49600
O 	O 	0.16590 0.06130 0.54752 -0.48300
O 	O 	0.05510 0.02360 0.19036 -0.49000
O 	O 	0.66590 0.56130 0.45248 -0.48400
O 	O 	0.02360 0.44490 0.19036 -0.49300
O 	O 	0.55510 0.97640 0.30964 -0.49300
O 	O 	0.52360 0.55510 0.30964 -0.49300
O 	O 	0.82600 0.94120 0.23755 -0.46300
O 	O 	0.54980 0.52680 0.88303 -0.50000
O 	O 	0.02360 0.05510 0.69036 -0.49000
O 	O 	0.35210 0.17710 0.65292 -0.80700
O 	O 	0.54980 0.97320 0.38303 -0.50000
O 	O 	0.58920 0.79180 0.76890 -0.47500
O 	O 	0.94490 0.97640 0.80964 -0.49000
O 	O 	0.97320 0.54980 0.88303 -0.50000
O 	O 	0.33410 0.43870 0.54752 -0.48400
O 	O 	0.47320 0.45020 0.61697 -0.50000
O 	O 	0.42700 0.28530 0.57890 -0.54800
O 	O 	0.05880 0.17400 0.26245 -0.46300
O 	O 	0.56130 0.83410 0.45248 -0.48400
O 	O 	0.78530 0.57300 0.42110 -0.54800
O 	O 	0.04980 0.02680 0.11697 -0.49600
O 	O 	0.55880 0.82600 0.23755 -0.46400
O 	O 	0.28530 0.42700 0.07890 -0.54800
O 	O 	0.82290 0.85210 0.34708 -0.80700
O 	O 	0.64790 0.82290 0.34708 -0.80700
O 	O 	0.29180 0.41080 0.23110 -0.47500
O 	O 	0.44120 0.32600 0.26245 -0.46300
O 	O 	0.70820 0.91080 0.26890 -0.47500
O 	O 	0.71470 0.57300 0.92110 -0.54800
O 	O 	0.82600 0.55880 0.73755 -0.46400
O 	O 	0.06130 0.33410 0.54752 -0.48400
O 	O 	0.70820 0.58920 0.76890 -0.47500
O 	O 	0.32290 0.35210 0.65292 -0.80700
O 	O 	0.02680 0.45020 0.11697 -0.50000
O 	O 	0.47320 0.04980 0.11697 -0.50000
O 	O 	0.32290 0.14790 0.15292 -0.80700
O 	O 	0.83410 0.93870 0.45248 -0.48300
O 	O 	0.41080 0.20820 0.23110 -0.47500
O 	O 	0.06130 0.16590 0.04752 -0.48300
O 	O 	0.79180 0.91080 0.76890 -0.47500
O 	O 	0.91080 0.70820 0.76890 -0.47500
O 	O 	0.52680 0.54980 0.38303 -0.50000
O 	O 	0.32600 0.05880 0.26245 -0.46300
O 	O 	0.85210 0.82290 0.84708 -0.80600
O 	O 	0.85210 0.67710 0.34708 -0.80700
O 	O 	0.67710 0.64790 0.34708 -0.80700
O 	O 	0.20820 0.08920 0.23110 -0.47500
O 	O 	0.97640 0.55510 0.80964 -0.49300
O 	O 	0.17400 0.44120 0.26245 -0.46400
O 	O 	0.44490 0.02360 0.69036 -0.49300
O 	O 	0.92700 0.78530 0.42110 -0.54800
O 	O 	0.64790 0.67710 0.84708 -0.80700
O 	O 	0.66590 0.93870 0.95248 -0.48300
O 	O 	0.21470 0.07300 0.07890 -0.54800
O 	O 	0.93870 0.83410 0.95248 -0.48300
O 	O 	0.04980 0.47320 0.61697 -0.50000
O 	O 	0.95020 0.52680 0.38303 -0.50000
O 	O 	0.43870 0.33410 0.04752 -0.48400
O 	O 	0.17710 0.35210 0.15292 -0.80700
O 	O 	0.94490 0.52360 0.30964 -0.49400
O 	O 	0.83410 0.56130 0.95248 -0.48400
O 	O 	0.35210 0.32290 0.15292 -0.80700
O 	O 	0.02680 0.04980 0.61697 -0.49700
O 	O 	0.92700 0.71470 0.92110 -0.54800
O 	O 	0.71470 0.92700 0.42110 -0.54800
O 	O 	0.91080 0.79180 0.26890 -0.47500
O 	O 	0.32600 0.44120 0.76245 -0.46300
O 	O 	0.20820 0.41080 0.73110 -0.47500
O 	O 	0.17400 0.05880 0.76245 -0.46300
O 	O 	0.05510 0.47640 0.69036 -0.49400
O 	O 	0.57300 0.71470 0.42110 -0.54800
O 	O 	0.67710 0.85210 0.84708 -0.80700
O 	O 	0.42700 0.21470 0.07890 -0.54800
O 	O 	0.56130 0.66590 0.95248 -0.48400
O 	O 	0.78530 0.92700 0.92110 -0.54800
O 	O 	0.07300 0.28530 0.07890 -0.54800
O 	O 	0.16590 0.43870 0.04752 -0.48400
O 	O 	0.45020 0.02680 0.61697 -0.50000
O 	O 	0.82290 0.64790 0.84708 -0.80700
O 	O 	0.21470 0.42700 0.57890 -0.54800
O 	O 	0.07300 0.21470 0.57890 -0.54800
O 	O 	0.94120 0.82600 0.73755 -0.46300
O 	O 	0.67400 0.94120 0.73755 -0.46300
O 	O 	0.08920 0.29180 0.23110 -0.47500
O 	O 	0.79180 0.58920 0.26890 -0.47500
O 	O 	0.45020 0.47320 0.11697 -0.50000
O 	O 	0.44490 0.47640 0.19036 -0.49300
O 	O 	0.29180 0.08920 0.73110 -0.47500
O 	O 	0.47640 0.44490 0.69036 -0.49300
O 	O 	0.14790 0.17710 0.15292 -0.80600
O 	O 	0.52680 0.95020 0.88303 -0.50000
O 	O 	0.97640 0.94490 0.30964 -0.49000
O 	O 	0.52360 0.94490 0.80964 -0.49300
