data_crystal

_cell_length_a 18.60750
_cell_length_b 18.60750
_cell_length_c 18.60750
_cell_angle_alpha 60.00000
_cell_angle_beta  60.00000
_cell_angle_gamma 60.00000

_symmetry_space_group_name_	'P 1'
_symmetry_space_group_name_H-M	'P 1'

loop_
_symmetry_equiv_pos_as_xyz
  x,y,z

loop_
_atom_site_label
_atom_site_type_symbol
_atom_site_fract_x
_atom_site_fract_y
_atom_site_fract_z
_atom_site_charge
Cu	Cu	0.00000 0.00000 0.42931 0.68200
Cu	Cu	-0.00000 0.57069 0.42931 0.79900
Cu	Cu	0.42931 0.00000 0.57069 0.79900
Cu	Cu	-0.00000 0.57069 -0.00000 0.69500
Cu	Cu	0.57069 0.42931 -0.00000 0.79900
Cu	Cu	0.57069 0.00000 -0.00000 0.69500
Cu	Cu	-0.00000 0.00000 0.57069 0.69500
Cu	Cu	0.57069 0.00000 0.42931 0.79900
Cu	Cu	0.42931 0.00000 -0.00000 0.68200
Cu	Cu	-0.00000 0.42931 -0.00000 0.68100
Cu	Cu	-0.00000 0.42931 0.57069 0.79800
Cu	Cu	0.42931 0.57069 -0.00000 0.79800
H 	H 	0.51160 0.72980 0.72980 0.09200
H 	H 	0.72980 0.02880 0.72980 0.05300
H 	H 	0.27020 0.27020 0.97120 0.05000
H 	H 	0.51160 0.02880 0.72980 0.02700
H 	H 	0.02880 0.72980 0.51160 0.02700
H 	H 	0.72980 0.51160 0.72980 0.09200
H 	H 	0.72980 0.51160 0.02880 0.02700
H 	H 	0.48840 0.27020 0.97120 0.07400
H 	H 	0.27020 0.97120 0.27020 0.05000
H 	H 	0.27020 0.97120 0.48840 0.07400
H 	H 	0.97120 0.27020 0.48840 0.07400
H 	H 	0.72980 0.72980 0.51160 0.09200
H 	H 	0.27020 0.48840 0.27020 0.00400
H 	H 	0.02880 0.72980 0.72980 0.05300
H 	H 	0.97120 0.27020 0.27020 0.05000
H 	H 	0.48840 0.97120 0.27020 0.07400
H 	H 	0.72980 0.02880 0.51160 0.02700
H 	H 	0.02880 0.51160 0.72980 0.02700
H 	H 	0.27020 0.48840 0.97120 0.07400
H 	H 	0.48840 0.27020 0.27020 0.00400
H 	H 	0.51160 0.72980 0.02880 0.02700
H 	H 	0.72980 0.72980 0.02880 0.05300
H 	H 	0.97120 0.48840 0.27020 0.07400
H 	H 	0.27020 0.27020 0.48840 0.00400
C 	C 	0.61311 0.03131 0.61311 -0.14300
C 	C 	0.38689 0.96869 0.25753 -0.08700
C 	C 	0.61311 0.61311 0.03131 -0.14300
C 	C 	0.83722 0.56912 0.56912 0.34200
C 	C 	0.97546 0.43088 0.16278 0.34500
C 	C 	0.16278 0.43088 0.43088 0.37300
C 	C 	0.30089 0.30089 0.96841 0.04600
C 	C 	0.25753 0.96869 0.38689 -0.08700
C 	C 	0.30089 0.96841 0.30089 0.04600
C 	C 	0.83722 0.56912 0.02454 0.34900
C 	C 	0.02454 0.56912 0.83722 0.34900
C 	C 	0.96841 0.30089 0.30089 0.04600
C 	C 	0.61311 0.61311 0.74247 -0.04500
C 	C 	0.43088 0.16278 0.43088 0.37300
C 	C 	0.03159 0.69911 0.69911 0.05900
C 	C 	0.57019 0.69911 0.69911 0.03100
C 	C 	0.38689 0.25753 0.96869 -0.08700
C 	C 	0.97546 0.43088 0.43088 0.34600
C 	C 	0.02454 0.83722 0.56912 0.34900
C 	C 	0.43088 0.97546 0.16278 0.34500
C 	C 	0.16278 0.43088 0.97546 0.34500
C 	C 	0.03159 0.69911 0.57019 0.06400
C 	C 	0.03131 0.61311 0.61311 -0.14300
C 	C 	0.43088 0.43088 0.16278 0.37300
C 	C 	0.42981 0.30089 0.30089 0.08600
C 	C 	0.56912 0.83722 0.56912 0.34200
C 	C 	0.42981 0.30089 0.96841 0.04400
C 	C 	0.74247 0.61311 0.61311 -0.04500
C 	C 	0.56912 0.56912 0.02454 0.36700
C 	C 	0.69911 0.57019 0.69911 0.03100
C 	C 	0.38689 0.96869 0.38689 -0.07000
C 	C 	0.30089 0.42981 0.96841 0.04400
C 	C 	0.42981 0.96841 0.30089 0.04400
C 	C 	0.38689 0.38689 0.96869 -0.07000
C 	C 	0.74247 0.03131 0.61311 -0.11900
C 	C 	0.30089 0.96841 0.42981 0.04400
C 	C 	0.96841 0.30089 0.42981 0.04400
C 	C 	0.03131 0.61311 0.74247 -0.11900
C 	C 	0.83722 0.02454 0.56912 0.34900
C 	C 	0.25753 0.38689 0.96869 -0.08700
C 	C 	0.25753 0.38689 0.38689 -0.17700
C 	C 	0.43088 0.16278 0.97546 0.34500
C 	C 	0.61311 0.03131 0.74247 -0.11900
C 	C 	0.96869 0.38689 0.25753 -0.08700
C 	C 	0.03159 0.57019 0.69911 0.06400
C 	C 	0.02454 0.56912 0.56912 0.36700
C 	C 	0.69911 0.57019 0.03159 0.06400
C 	C 	0.61311 0.74247 0.03131 -0.11900
C 	C 	0.43088 0.43088 0.97546 0.34600
C 	C 	0.03131 0.74247 0.61311 -0.11900
C 	C 	0.97546 0.16278 0.43088 0.34500
C 	C 	0.38689 0.25753 0.38689 -0.17700
C 	C 	0.96869 0.25753 0.38689 -0.08700
C 	C 	0.43088 0.97546 0.43088 0.34600
C 	C 	0.69911 0.69911 0.03159 0.05900
C 	C 	0.69911 0.69911 0.57019 0.03100
C 	C 	0.61311 0.74247 0.61311 -0.04500
C 	C 	0.69911 0.03159 0.69911 0.05900
C 	C 	0.56912 0.56912 0.83722 0.34200
C 	C 	0.56912 0.02454 0.56912 0.36700
C 	C 	0.96869 0.38689 0.38689 -0.07000
C 	C 	0.57019 0.69911 0.03159 0.06400
C 	C 	0.56912 0.02454 0.83722 0.34900
C 	C 	0.30089 0.42981 0.30089 0.08600
C 	C 	0.57019 0.03159 0.69911 0.06400
C 	C 	0.69911 0.03159 0.57019 0.06400
C 	C 	0.16278 0.97546 0.43088 0.34500
C 	C 	0.56912 0.83722 0.02454 0.34900
C 	C 	0.74247 0.61311 0.03131 -0.11900
C 	C 	0.30089 0.30089 0.42981 0.08600
C 	C 	0.96841 0.42981 0.30089 0.04400
C 	C 	0.38689 0.38689 0.25753 -0.17700
O 	O 	0.61282 0.87374 0.49224 -0.28200
O 	O 	0.97880 0.50776 0.12626 -0.33200
O 	O 	0.38718 0.12626 0.50776 -0.47000
O 	O 	0.61282 0.02120 0.49224 -0.45900
O 	O 	0.61282 0.02120 0.87374 -0.34300
O 	O 	0.50776 0.38718 0.97880 -0.29100
O 	O 	0.87374 0.02120 0.49224 -0.36300
O 	O 	0.02120 0.87374 0.49224 -0.36300
O 	O 	0.61282 0.49224 0.87374 -0.28200
O 	O 	0.02120 0.49224 0.61282 -0.45900
O 	O 	0.38718 0.12626 0.97880 -0.35100
O 	O 	0.49224 0.87374 0.02120 -0.36300
O 	O 	0.97880 0.38718 0.50776 -0.29100
O 	O 	0.49224 0.61282 0.87374 -0.28200
O 	O 	0.12626 0.38718 0.50776 -0.47000
O 	O 	0.97880 0.38718 0.12626 -0.35100
O 	O 	0.50776 0.97880 0.12626 -0.33200
O 	O 	0.87374 0.49224 0.02120 -0.36300
O 	O 	0.97880 0.12626 0.50776 -0.33200
O 	O 	0.38718 0.97880 0.12626 -0.35100
O 	O 	0.02120 0.49224 0.87374 -0.36300
O 	O 	0.50776 0.12626 0.97880 -0.33200
O 	O 	0.87374 0.61282 0.02120 -0.34300
O 	O 	0.38718 0.97880 0.50776 -0.29100
O 	O 	0.12626 0.50776 0.38718 -0.47000
O 	O 	0.02120 0.87374 0.61282 -0.34300
O 	O 	0.61282 0.87374 0.02120 -0.34300
O 	O 	0.38718 0.50776 0.97880 -0.29100
O 	O 	0.49224 0.02120 0.61282 -0.45900
O 	O 	0.02120 0.61282 0.87374 -0.34300
O 	O 	0.50776 0.97880 0.38718 -0.29100
O 	O 	0.12626 0.97880 0.50776 -0.33200
O 	O 	0.61282 0.49224 0.02120 -0.45900
O 	O 	0.12626 0.38718 0.97880 -0.35100
O 	O 	0.87374 0.61282 0.49224 -0.28200
O 	O 	0.87374 0.02120 0.61282 -0.34300
O 	O 	0.49224 0.61282 0.02120 -0.45900
O 	O 	0.97880 0.50776 0.38718 -0.29100
O 	O 	0.12626 0.50776 0.97880 -0.33200
O 	O 	0.50776 0.12626 0.38718 -0.47000
O 	O 	0.38718 0.50776 0.12626 -0.47000
O 	O 	0.49224 0.02120 0.87374 -0.36300
O 	O 	0.12626 0.97880 0.38718 -0.35100
O 	O 	0.87374 0.49224 0.61282 -0.28200
O 	O 	0.02120 0.61282 0.49224 -0.45900
O 	O 	0.50776 0.38718 0.12626 -0.47000
O 	O 	0.49224 0.87374 0.61282 -0.28200
O 	O 	0.97880 0.12626 0.38718 -0.35100
