data_crystal

_cell_length_a 18.64640
_cell_length_b 18.64640
_cell_length_c 18.64640
_cell_angle_alpha 60.00000
_cell_angle_beta  60.00000
_cell_angle_gamma 60.00000

_symmetry_space_group_name_	'P 1'
_symmetry_space_group_name_H-M	'P 1'

loop_
_symmetry_equiv_pos_as_xyz
  x,y,z

loop_
_atom_site_label
_atom_site_type_symbol
_atom_site_fract_x
_atom_site_fract_y
_atom_site_fract_z
_atom_site_charge
Cu	Cu	-0.00000 0.42990 -0.00000 0.68300
Cu	Cu	-0.00000 0.00000 0.57010 0.69500
Cu	Cu	0.57010 0.42990 -0.00000 0.79900
Cu	Cu	0.42990 0.00000 -0.00000 0.68300
Cu	Cu	0.57010 0.00000 -0.00000 0.69500
Cu	Cu	0.57010 0.00000 0.42990 0.79900
Cu	Cu	0.42990 0.00000 0.57010 0.79900
Cu	Cu	0.00000 0.42990 0.57010 0.79900
Cu	Cu	0.00000 0.57010 0.42990 0.79900
Cu	Cu	0.00000 0.00000 0.42990 0.68300
Cu	Cu	0.42990 0.57010 -0.00000 0.79900
Cu	Cu	-0.00000 0.57010 -0.00000 0.69500
H 	H 	0.51160 0.72980 0.72980 0.09300
H 	H 	0.27020 0.27020 0.97120 0.05200
H 	H 	0.27020 0.97120 0.48840 0.07500
H 	H 	0.51160 0.02880 0.72980 0.02900
H 	H 	0.02880 0.72980 0.51160 0.02900
H 	H 	0.97120 0.48840 0.27020 0.07500
H 	H 	0.72980 0.72980 0.51160 0.09300
H 	H 	0.72980 0.51160 0.02880 0.02900
H 	H 	0.97120 0.27020 0.48840 0.07500
H 	H 	0.97120 0.27020 0.27020 0.05200
H 	H 	0.27020 0.97120 0.27020 0.05200
H 	H 	0.72980 0.02880 0.72980 0.05500
H 	H 	0.48840 0.27020 0.97120 0.07500
H 	H 	0.72980 0.51160 0.72980 0.09300
H 	H 	0.72980 0.02880 0.51160 0.02900
H 	H 	0.02880 0.51160 0.72980 0.02900
H 	H 	0.27020 0.48840 0.97120 0.07500
H 	H 	0.48840 0.27020 0.27020 0.00700
H 	H 	0.51160 0.72980 0.02880 0.02900
H 	H 	0.72980 0.72980 0.02880 0.05500
H 	H 	0.27020 0.48840 0.27020 0.00700
H 	H 	0.02880 0.72980 0.72980 0.05500
H 	H 	0.48840 0.97120 0.27020 0.07500
H 	H 	0.27020 0.27020 0.48840 0.00700
C 	C 	0.96790 0.42950 0.30130 0.03600
C 	C 	0.25880 0.38660 0.38660 -0.16200
C 	C 	0.69870 0.03210 0.57050 0.05500
C 	C 	0.16320 0.43000 0.97680 0.32500
C 	C 	0.30130 0.96790 0.30130 0.03800
C 	C 	0.57000 0.57000 0.02320 0.34000
C 	C 	0.43000 0.16320 0.97680 0.32500
C 	C 	0.57000 0.02320 0.57000 0.34000
C 	C 	0.16320 0.97680 0.43000 0.32500
C 	C 	0.38660 0.96800 0.38660 -0.06200
C 	C 	0.57050 0.69870 0.03210 0.05500
C 	C 	0.16320 0.43000 0.43000 0.34400
C 	C 	0.38660 0.25880 0.96800 -0.07700
C 	C 	0.02320 0.83680 0.57000 0.32600
C 	C 	0.57000 0.02320 0.83680 0.32600
C 	C 	0.57050 0.69870 0.69870 0.02600
C 	C 	0.30130 0.30130 0.42950 0.07500
C 	C 	0.43000 0.97680 0.43000 0.32800
C 	C 	0.03210 0.69870 0.57050 0.05500
C 	C 	0.30130 0.42950 0.96790 0.03600
C 	C 	0.61340 0.61340 0.03200 -0.13000
C 	C 	0.69870 0.69870 0.03210 0.05000
C 	C 	0.38660 0.38660 0.25880 -0.16200
C 	C 	0.96790 0.30130 0.30130 0.03800
C 	C 	0.43000 0.43000 0.97680 0.32800
C 	C 	0.43000 0.97680 0.16320 0.32500
C 	C 	0.42950 0.96790 0.30130 0.03600
C 	C 	0.30130 0.30130 0.96790 0.03800
C 	C 	0.43000 0.43000 0.16320 0.34400
C 	C 	0.69870 0.03210 0.69870 0.05000
C 	C 	0.03210 0.57050 0.69870 0.05500
C 	C 	0.03200 0.61340 0.74120 -0.10800
C 	C 	0.02320 0.57000 0.83680 0.32600
C 	C 	0.38660 0.25880 0.38660 -0.16200
C 	C 	0.83680 0.57000 0.02320 0.32600
C 	C 	0.69870 0.69870 0.57050 0.02600
C 	C 	0.25880 0.96800 0.38660 -0.07700
C 	C 	0.57000 0.83680 0.57000 0.32700
C 	C 	0.74120 0.61340 0.61340 -0.03900
C 	C 	0.96800 0.38660 0.38660 -0.06200
C 	C 	0.30130 0.42950 0.30130 0.07500
C 	C 	0.61340 0.03200 0.61340 -0.13000
C 	C 	0.57000 0.83680 0.02320 0.32600
C 	C 	0.96800 0.25880 0.38660 -0.07700
C 	C 	0.61340 0.03200 0.74120 -0.10800
C 	C 	0.74120 0.61340 0.03200 -0.10800
C 	C 	0.97680 0.16320 0.43000 0.32500
C 	C 	0.83680 0.57000 0.57000 0.32700
C 	C 	0.97680 0.43000 0.43000 0.32800
C 	C 	0.96800 0.38660 0.25880 -0.07700
C 	C 	0.74120 0.03200 0.61340 -0.10800
C 	C 	0.38660 0.96800 0.25880 -0.07700
C 	C 	0.61340 0.74120 0.61340 -0.03900
C 	C 	0.03200 0.74120 0.61340 -0.10800
C 	C 	0.83680 0.02320 0.57000 0.32600
C 	C 	0.30130 0.96790 0.42950 0.03600
C 	C 	0.38660 0.38660 0.96800 -0.06200
C 	C 	0.61340 0.74120 0.03200 -0.10800
C 	C 	0.61340 0.61340 0.74120 -0.03900
C 	C 	0.69870 0.57050 0.69870 0.02600
C 	C 	0.69870 0.57050 0.03210 0.05500
C 	C 	0.25880 0.38660 0.96800 -0.07700
C 	C 	0.42950 0.30130 0.30130 0.07500
C 	C 	0.97680 0.43000 0.16320 0.32500
C 	C 	0.03200 0.61340 0.61340 -0.13000
C 	C 	0.02320 0.57000 0.57000 0.34000
C 	C 	0.43000 0.16320 0.43000 0.34400
C 	C 	0.57000 0.57000 0.83680 0.32700
C 	C 	0.42950 0.30130 0.96790 0.03600
C 	C 	0.03210 0.69870 0.69870 0.05000
C 	C 	0.57050 0.03210 0.69870 0.05500
C 	C 	0.96790 0.30130 0.42950 0.03600
O 	O 	0.50831 0.38731 0.97905 -0.28300
O 	O 	0.38731 0.50831 0.12533 -0.46000
O 	O 	0.50831 0.97905 0.38731 -0.28300
O 	O 	0.49169 0.61269 0.02095 -0.44900
O 	O 	0.87467 0.61269 0.49169 -0.27500
O 	O 	0.49169 0.02095 0.61269 -0.44900
O 	O 	0.50831 0.97905 0.12533 -0.32300
O 	O 	0.12533 0.50831 0.97905 -0.32300
O 	O 	0.87467 0.02095 0.49169 -0.35400
O 	O 	0.61269 0.49169 0.02095 -0.44900
O 	O 	0.38731 0.12533 0.97905 -0.34200
O 	O 	0.49169 0.02095 0.87467 -0.35400
O 	O 	0.49169 0.87467 0.61269 -0.27500
O 	O 	0.02095 0.87467 0.49169 -0.35400
O 	O 	0.61269 0.02095 0.87467 -0.33400
O 	O 	0.12533 0.38731 0.50831 -0.46000
O 	O 	0.02095 0.49169 0.87467 -0.35400
O 	O 	0.87467 0.61269 0.02095 -0.33400
O 	O 	0.38731 0.12533 0.50831 -0.46000
O 	O 	0.97905 0.12533 0.50831 -0.32300
O 	O 	0.61269 0.02095 0.49169 -0.44900
O 	O 	0.50831 0.12533 0.38731 -0.46000
O 	O 	0.02095 0.87467 0.61269 -0.33400
O 	O 	0.87467 0.02095 0.61269 -0.33400
O 	O 	0.38731 0.97905 0.50831 -0.28300
O 	O 	0.02095 0.61269 0.49169 -0.44900
O 	O 	0.12533 0.97905 0.38731 -0.34200
O 	O 	0.02095 0.49169 0.61269 -0.44900
O 	O 	0.61269 0.49169 0.87467 -0.27500
O 	O 	0.12533 0.97905 0.50831 -0.32300
O 	O 	0.12533 0.38731 0.97905 -0.34200
O 	O 	0.97905 0.38731 0.50831 -0.28300
O 	O 	0.12533 0.50831 0.38731 -0.46000
O 	O 	0.61269 0.87467 0.49169 -0.27500
O 	O 	0.87467 0.49169 0.61269 -0.27500
O 	O 	0.49169 0.87467 0.02095 -0.35400
O 	O 	0.87467 0.49169 0.02095 -0.35400
O 	O 	0.50831 0.38731 0.12533 -0.46000
O 	O 	0.02095 0.61269 0.87467 -0.33400
O 	O 	0.97905 0.12533 0.38731 -0.34200
O 	O 	0.38731 0.97905 0.12533 -0.34200
O 	O 	0.97905 0.38731 0.12533 -0.34200
O 	O 	0.97905 0.50831 0.12533 -0.32300
O 	O 	0.49169 0.61269 0.87467 -0.27500
O 	O 	0.38731 0.50831 0.97905 -0.28300
O 	O 	0.50831 0.12533 0.97905 -0.32300
O 	O 	0.61269 0.87467 0.02095 -0.33400
O 	O 	0.97905 0.50831 0.38731 -0.28300
