data_crystal

_cell_length_a 10.56840
_cell_length_b 10.56840
_cell_length_c 10.92670
_cell_angle_alpha 78.78360
_cell_angle_beta  62.49250
_cell_angle_gamma 108.74500

_symmetry_space_group_name_	'P 1'
_symmetry_space_group_name_H-M	'P 1'

loop_
_symmetry_equiv_pos_as_xyz
  x,y,z

loop_
_atom_site_label
_atom_site_type_symbol
_atom_site_fract_x
_atom_site_fract_y
_atom_site_fract_z
_atom_site_charge
Dy	Dy	0.24471 0.43131 0.62013 1.64200
Dy	Dy	0.55144 0.86484 0.87987 1.63000
Dy	Dy	0.75529 0.56869 0.37987 1.64200
Dy	Dy	0.44856 0.13516 0.12013 1.63000
H 	H 	0.96390 0.88630 0.81480 0.23400
H 	H 	0.10480 0.98960 0.64640 0.22500
H 	H 	0.73310 0.89080 0.21710 0.22100
H 	H 	0.20110 0.77870 0.68520 0.23900
H 	H 	0.13600 0.75120 0.85360 0.23600
H 	H 	0.60790 0.95020 0.28290 0.22100
H 	H 	0.03610 0.11370 0.18520 0.23400
H 	H 	0.89520 0.01040 0.35360 0.22500
H 	H 	0.26690 0.10920 0.78290 0.22100
H 	H 	0.79890 0.22130 0.31480 0.23900
H 	H 	0.86400 0.24880 0.14640 0.23600
H 	H 	0.39210 0.04980 0.71710 0.22100
C 	C 	0.95360 0.07230 0.74190 0.63100
C 	C 	0.98920 0.94800 0.71980 -0.72300
C 	C 	0.90310 0.85030 0.66860 0.56000
C 	C 	0.49900 0.72390 0.37570 0.54600
C 	C 	0.31420 0.69550 0.75810 0.64400
C 	C 	0.16780 0.70900 0.78020 -0.74600
C 	C 	0.01890 0.57170 0.83140 0.55700
C 	C 	0.59960 0.87470 0.12430 0.54600
C 	C 	0.04640 0.92770 0.25810 0.63100
C 	C 	0.01080 0.05200 0.28020 -0.72300
C 	C 	0.09690 0.14970 0.33140 0.56000
C 	C 	0.50100 0.27610 0.62430 0.54600
C 	C 	0.68580 0.30450 0.24190 0.64400
C 	C 	0.83220 0.29100 0.21980 -0.74600
C 	C 	0.98110 0.42830 0.16860 0.55700
C 	C 	0.40040 0.12530 0.87570 0.54600
C 	C 	0.62470 0.87470 0.25000 -0.69700
C 	C 	0.37530 0.12530 0.75000 -0.69700
O 	O 	0.06770 0.18430 0.71440 -0.56900
O 	O 	0.81380 0.05740 0.79180 -0.50100
O 	O 	0.98380 0.81270 0.57230 -0.36400
O 	O 	0.75397 0.80887 0.72590 -0.50000
O 	O 	0.35233 0.69157 0.44090 -0.46900
O 	O 	0.54210 0.63150 0.40820 -0.57800
O 	O 	0.39870 0.78210 0.78560 -0.57500
O 	O 	0.34920 0.60560 0.70820 -0.50700
O 	O 	0.88500 0.55610 0.92770 -0.36100
O 	O 	0.03477 0.47987 0.77410 -0.50300
O 	O 	0.63247 0.79323 0.05910 -0.46600
O 	O 	0.53970 0.95030 0.09180 -0.57300
O 	O 	0.93230 0.81570 0.28560 -0.56900
O 	O 	0.18620 0.94260 0.20820 -0.50100
O 	O 	0.01620 0.18730 0.42770 -0.36400
O 	O 	0.24603 0.19113 0.27410 -0.50000
O 	O 	0.64767 0.30843 0.55910 -0.46900
O 	O 	0.45790 0.36850 0.59180 -0.57800
O 	O 	0.60130 0.21790 0.21440 -0.57500
O 	O 	0.65080 0.39440 0.29180 -0.50700
O 	O 	0.11500 0.44390 0.07230 -0.36100
O 	O 	0.96523 0.52013 0.22590 -0.50300
O 	O 	0.36753 0.20677 0.94090 -0.46600
O 	O 	0.46030 0.04970 0.90820 -0.57300
