data_crystal

_cell_length_a 18.62300
_cell_length_b 18.62300
_cell_length_c 6.89730
_cell_angle_alpha 90.00000
_cell_angle_beta  90.00000
_cell_angle_gamma 120.00000

_symmetry_space_group_name_	'P 1'
_symmetry_space_group_name_H-M	'P 1'

loop_
_symmetry_equiv_pos_as_xyz
  x,y,z

loop_
_atom_site_label
_atom_site_type_symbol
_atom_site_fract_x
_atom_site_fract_y
_atom_site_fract_z
_atom_site_charge
O 	O 	0.44260 0.41130 0.24820 -0.40200
O 	O 	0.51910 0.62800 0.01880 -0.40300
C 	C 	0.44940 0.35860 0.14760 0.36900
C 	C 	0.42180 0.27570 0.23680 -0.11900
C 	C 	0.37610 0.25230 0.40700 0.04900
H 	H 	0.36100 0.28980 0.47180 0.05000
O 	O 	0.28270 0.08130 0.74120 -0.23400
C 	C 	0.23560 0.04850 0.91400 -0.07800
H 	H 	0.23020 0.99310 0.94320 0.04900
H 	H 	0.26260 0.08140 0.02630 0.06000
H 	H 	0.18140 0.03920 0.90560 0.05500
O 	O 	0.58870 0.03130 0.24820 -0.40300
O 	O 	0.37200 0.89110 0.01880 -0.40300
C 	C 	0.64140 0.09080 0.14760 0.36800
C 	C 	0.72430 0.14610 0.23680 -0.11900
C 	C 	0.74770 0.12380 0.40700 0.05000
H 	H 	0.71020 0.07120 0.47180 0.05000
O 	O 	0.91870 0.20140 0.74120 -0.23500
C 	C 	0.95150 0.18710 0.91400 -0.07100
H 	H 	0.00690 0.23710 0.94320 0.04800
H 	H 	0.91860 0.18120 0.02630 0.05700
H 	H 	0.96080 0.14220 0.90560 0.05400
O 	O 	0.96870 0.55740 0.24820 -0.40300
O 	O 	0.10890 0.48090 0.01880 -0.40300
C 	C 	0.90920 0.55060 0.14760 0.36800
C 	C 	0.85390 0.57820 0.23680 -0.11900
C 	C 	0.87620 0.62390 0.40700 0.04900
H 	H 	0.92880 0.63900 0.47180 0.05000
O 	O 	0.79860 0.71730 0.74120 -0.23200
C 	C 	0.81290 0.76440 0.91400 -0.08700
H 	H 	0.76290 0.76980 0.94320 0.05200
H 	H 	0.81880 0.73740 0.02630 0.06300
H 	H 	0.85780 0.81860 0.90560 0.05800
O 	O 	0.41130 0.44260 0.75180 -0.40300
O 	O 	0.62800 0.51910 0.98120 -0.40400
C 	C 	0.35860 0.44940 0.85240 0.36900
C 	C 	0.27570 0.42180 0.76320 -0.11900
C 	C 	0.25230 0.37610 0.59300 0.04900
H 	H 	0.28980 0.36100 0.52820 0.05000
O 	O 	0.08130 0.28270 0.25880 -0.23400
C 	C 	0.04850 0.23560 0.08600 -0.07800
H 	H 	0.99310 0.23020 0.05680 0.04900
H 	H 	0.08140 0.26260 0.97370 0.06000
H 	H 	0.03920 0.18140 0.09440 0.05500
O 	O 	0.03130 0.58870 0.75180 -0.40300
O 	O 	0.89110 0.37200 0.98120 -0.40300
C 	C 	0.09080 0.64140 0.85240 0.36800
C 	C 	0.14610 0.72430 0.76320 -0.11900
C 	C 	0.12380 0.74770 0.59300 0.05000
H 	H 	0.07120 0.71020 0.52820 0.05000
O 	O 	0.20140 0.91870 0.25880 -0.23500
C 	C 	0.18710 0.95150 0.08600 -0.07100
H 	H 	0.23710 0.00690 0.05680 0.04800
H 	H 	0.18120 0.91860 0.97370 0.05700
H 	H 	0.14220 0.96080 0.09440 0.05400
O 	O 	0.55740 0.96870 0.75180 -0.40300
O 	O 	0.48090 0.10890 0.98120 -0.40300
C 	C 	0.55060 0.90920 0.85240 0.36800
C 	C 	0.57820 0.85390 0.76320 -0.11900
C 	C 	0.62390 0.87620 0.59300 0.04900
H 	H 	0.63900 0.92880 0.52820 0.05000
O 	O 	0.71730 0.79860 0.25880 -0.23200
C 	C 	0.76440 0.81290 0.08600 -0.08700
H 	H 	0.76980 0.76290 0.05680 0.05200
H 	H 	0.73740 0.81880 0.97370 0.06300
H 	H 	0.81860 0.85780 0.09440 0.05800
O 	O 	0.55740 0.58870 0.75180 -0.40300
O 	O 	0.48090 0.37200 0.98120 -0.40400
C 	C 	0.55060 0.64140 0.85240 0.36900
C 	C 	0.57820 0.72430 0.76320 -0.11900
C 	C 	0.62390 0.74770 0.59300 0.04900
H 	H 	0.63900 0.71020 0.52820 0.05000
O 	O 	0.71730 0.91870 0.25880 -0.23400
C 	C 	0.76440 0.95150 0.08600 -0.07800
H 	H 	0.76980 0.00690 0.05680 0.04900
H 	H 	0.73740 0.91860 0.97370 0.06000
H 	H 	0.81860 0.96080 0.09440 0.05500
O 	O 	0.41130 0.96870 0.75180 -0.40300
O 	O 	0.62800 0.10890 0.98120 -0.40300
C 	C 	0.35860 0.90920 0.85240 0.36800
C 	C 	0.27570 0.85390 0.76320 -0.11900
C 	C 	0.25230 0.87620 0.59300 0.05000
H 	H 	0.28980 0.92880 0.52820 0.05000
O 	O 	0.08130 0.79860 0.25880 -0.23500
C 	C 	0.04850 0.81290 0.08600 -0.07100
H 	H 	0.99310 0.76290 0.05680 0.04800
H 	H 	0.08140 0.81880 0.97370 0.05700
H 	H 	0.03920 0.85780 0.09440 0.05400
O 	O 	0.03130 0.44260 0.75180 -0.40300
O 	O 	0.89110 0.51910 0.98120 -0.40300
C 	C 	0.09080 0.44940 0.85240 0.36800
C 	C 	0.14610 0.42180 0.76320 -0.11900
C 	C 	0.12380 0.37610 0.59300 0.04900
H 	H 	0.07120 0.36100 0.52820 0.05000
O 	O 	0.20140 0.28270 0.25880 -0.23200
C 	C 	0.18710 0.23560 0.08600 -0.08700
H 	H 	0.23710 0.23020 0.05680 0.05200
H 	H 	0.18120 0.26260 0.97370 0.06300
H 	H 	0.14220 0.18140 0.09440 0.05800
O 	O 	0.58870 0.55740 0.24820 -0.40300
O 	O 	0.37200 0.48090 0.01880 -0.40400
C 	C 	0.64140 0.55060 0.14760 0.36900
C 	C 	0.72430 0.57820 0.23680 -0.11900
C 	C 	0.74770 0.62390 0.40700 0.04900
H 	H 	0.71020 0.63900 0.47180 0.05000
O 	O 	0.91870 0.71730 0.74120 -0.23400
C 	C 	0.95150 0.76440 0.91400 -0.07800
H 	H 	0.00690 0.76980 0.94320 0.04900
H 	H 	0.91860 0.73740 0.02630 0.06000
H 	H 	0.96080 0.81860 0.90560 0.05500
O 	O 	0.96870 0.41130 0.24820 -0.40300
O 	O 	0.10890 0.62800 0.01880 -0.40300
C 	C 	0.90920 0.35860 0.14760 0.36800
C 	C 	0.85390 0.27570 0.23680 -0.11900
C 	C 	0.87620 0.25230 0.40700 0.05000
H 	H 	0.92880 0.28980 0.47180 0.05000
O 	O 	0.79860 0.08130 0.74120 -0.23500
C 	C 	0.81290 0.04850 0.91400 -0.07100
H 	H 	0.76290 0.99310 0.94320 0.04800
H 	H 	0.81880 0.08140 0.02630 0.05700
H 	H 	0.85780 0.03920 0.90560 0.05400
O 	O 	0.44260 0.03130 0.24820 -0.40300
O 	O 	0.51910 0.89110 0.01880 -0.40300
C 	C 	0.44940 0.09080 0.14760 0.36800
C 	C 	0.42180 0.14610 0.23680 -0.11900
C 	C 	0.37610 0.12380 0.40700 0.04900
H 	H 	0.36100 0.07120 0.47180 0.05000
O 	O 	0.28270 0.20140 0.74120 -0.23200
C 	C 	0.23560 0.18710 0.91400 -0.08700
H 	H 	0.23020 0.23710 0.94320 0.05200
H 	H 	0.26260 0.18120 0.02630 0.06300
H 	H 	0.18140 0.14220 0.90560 0.05800
Cu	Cu	0.47677 0.52323 0.15540 0.91000
Cu	Cu	0.47677 0.95354 0.15540 0.91000
Cu	Cu	0.04646 0.52323 0.15540 0.91000
Cu	Cu	0.52323 0.47677 0.84460 0.91000
Cu	Cu	0.95354 0.47677 0.84460 0.91000
Cu	Cu	0.52323 0.04646 0.84460 0.91000
C 	C 	0.44290 0.22145 0.15120 0.06000
C 	C 	0.35230 0.17615 0.48720 -0.09500
H 	H 	0.47350 0.23675 0.02940 0.04500
C 	C 	0.30290 0.15145 0.67040 0.28900
C 	C 	0.77855 0.22145 0.15120 0.06000
C 	C 	0.82385 0.17615 0.48720 -0.09600
H 	H 	0.76325 0.23675 0.02940 0.04400
C 	C 	0.84855 0.15145 0.67040 0.29100
C 	C 	0.77855 0.55710 0.15120 0.06000
C 	C 	0.82385 0.64770 0.48720 -0.09500
H 	H 	0.76325 0.52650 0.02940 0.04500
C 	C 	0.84855 0.69710 0.67040 0.28900
C 	C 	0.22145 0.44290 0.84880 0.06000
C 	C 	0.17615 0.35230 0.51280 -0.09500
H 	H 	0.23675 0.47350 0.97060 0.04500
C 	C 	0.15145 0.30290 0.32960 0.28900
C 	C 	0.22145 0.77855 0.84880 0.06000
C 	C 	0.17615 0.82385 0.51280 -0.09600
H 	H 	0.23675 0.76325 0.97060 0.04400
C 	C 	0.15145 0.84855 0.32960 0.29100
C 	C 	0.55710 0.77855 0.84880 0.06000
C 	C 	0.64770 0.82385 0.51280 -0.09500
H 	H 	0.52650 0.76325 0.97060 0.04500
C 	C 	0.69710 0.84855 0.32960 0.28900
