data_crystal

_cell_length_a 18.58770
_cell_length_b 18.58770
_cell_length_c 6.87400
_cell_angle_alpha 90.00000
_cell_angle_beta  90.00000
_cell_angle_gamma 120.00000

_symmetry_space_group_name_	'P 1'
_symmetry_space_group_name_H-M	'P 1'

loop_
_symmetry_equiv_pos_as_xyz
  x,y,z

loop_
_atom_site_label
_atom_site_type_symbol
_atom_site_fract_x
_atom_site_fract_y
_atom_site_fract_z
_atom_site_charge
O 	O 	0.58860 0.55850 0.75140 -0.40400
O 	O 	0.62860 0.51860 0.01770 -0.43300
O 	O 	0.79620 0.71230 0.24330 -0.24500
C 	C 	0.64110 0.55020 0.84980 0.34400
C 	C 	0.72340 0.57670 0.75810 -0.13000
C 	C 	0.74570 0.61990 0.58420 0.04400
C 	C 	0.81220 0.75900 0.07600 -0.05100
H 	H 	0.70790 0.63340 0.52320 0.05900
H 	H 	0.46030 0.59620 0.58250 -1.29400
H 	H 	0.76670 0.76780 0.04400 0.04200
H 	H 	0.86100 0.81280 0.09020 0.04600
H 	H 	0.82100 0.73220 0.96650 0.05900
O 	O 	0.44150 0.03010 0.75140 -0.40300
O 	O 	0.48140 0.11000 0.01770 -0.43100
O 	O 	0.28770 0.08390 0.24330 -0.24600
C 	C 	0.44980 0.09090 0.84980 0.34300
C 	C 	0.42330 0.14670 0.75810 -0.12900
C 	C 	0.38010 0.12580 0.58420 0.04500
C 	C 	0.24100 0.05320 0.07600 -0.03600
H 	H 	0.36660 0.07450 0.52320 0.05900
H 	H 	0.40380 0.86410 0.58250 -1.29400
H 	H 	0.23220 0.99890 0.04400 0.03600
H 	H 	0.18720 0.04820 0.09020 0.04200
H 	H 	0.26780 0.08880 0.96650 0.05400
O 	O 	0.96990 0.41140 0.75140 -0.40300
O 	O 	0.89000 0.37140 0.01770 -0.43100
O 	O 	0.91610 0.20380 0.24330 -0.24800
C 	C 	0.90910 0.35890 0.84980 0.34300
C 	C 	0.85330 0.27660 0.75810 -0.12900
C 	C 	0.87420 0.25430 0.58420 0.04600
C 	C 	0.94680 0.18780 0.07600 -0.03100
H 	H 	0.92550 0.29210 0.52320 0.05900
H 	H 	0.13590 0.53970 0.58250 -1.29400
H 	H 	0.00110 0.23330 0.04400 0.03700
H 	H 	0.95180 0.13900 0.09020 0.04100
H 	H 	0.91120 0.17900 0.96650 0.05100
O 	O 	0.55850 0.58860 0.24860 -0.40300
O 	O 	0.51860 0.62860 0.98230 -0.43200
O 	O 	0.71230 0.79620 0.75670 -0.24400
C 	C 	0.55020 0.64110 0.15020 0.34500
C 	C 	0.57670 0.72340 0.24190 -0.12900
C 	C 	0.61990 0.74570 0.41580 0.04500
C 	C 	0.75900 0.81220 0.92400 -0.05100
H 	H 	0.63340 0.70790 0.47680 0.05900
H 	H 	0.59620 0.46030 0.41750 -1.29400
H 	H 	0.76780 0.76670 0.95600 0.04200
H 	H 	0.81280 0.86100 0.90980 0.04600
H 	H 	0.73220 0.82100 0.03350 0.05900
O 	O 	0.03010 0.44150 0.24860 -0.40300
O 	O 	0.11000 0.48140 0.98230 -0.43100
O 	O 	0.08390 0.28770 0.75670 -0.24600
C 	C 	0.09090 0.44980 0.15020 0.34300
C 	C 	0.14670 0.42330 0.24190 -0.12900
C 	C 	0.12580 0.38010 0.41580 0.04500
C 	C 	0.05320 0.24100 0.92400 -0.03600
H 	H 	0.07450 0.36660 0.47680 0.05900
H 	H 	0.86410 0.40380 0.41750 -1.29400
H 	H 	0.99890 0.23220 0.95600 0.03600
H 	H 	0.04820 0.18720 0.90980 0.04200
H 	H 	0.08880 0.26780 0.03350 0.05400
O 	O 	0.41140 0.96990 0.24860 -0.40300
O 	O 	0.37140 0.89000 0.98230 -0.43100
O 	O 	0.20380 0.91610 0.75670 -0.24800
C 	C 	0.35890 0.90910 0.15020 0.34300
C 	C 	0.27660 0.85330 0.24190 -0.12900
C 	C 	0.25430 0.87420 0.41580 0.04600
C 	C 	0.18780 0.94680 0.92400 -0.03100
H 	H 	0.29210 0.92550 0.47680 0.05900
H 	H 	0.53970 0.13590 0.41750 -1.29400
H 	H 	0.23330 0.00110 0.95600 0.03700
H 	H 	0.13900 0.95180 0.90980 0.04100
H 	H 	0.17900 0.91120 0.03350 0.05100
O 	O 	0.41140 0.44150 0.24860 -0.40300
O 	O 	0.37140 0.48140 0.98230 -0.43200
O 	O 	0.20380 0.28770 0.75670 -0.24400
C 	C 	0.35890 0.44980 0.15020 0.34500
C 	C 	0.27660 0.42330 0.24190 -0.12900
C 	C 	0.25430 0.38010 0.41580 0.04500
C 	C 	0.18780 0.24100 0.92400 -0.05100
H 	H 	0.29210 0.36660 0.47680 0.05900
H 	H 	0.53970 0.40380 0.41750 -1.29400
H 	H 	0.23330 0.23220 0.95600 0.04200
H 	H 	0.13900 0.18720 0.90980 0.04600
H 	H 	0.17900 0.26780 0.03350 0.05900
O 	O 	0.55850 0.96990 0.24860 -0.40300
O 	O 	0.51860 0.89000 0.98230 -0.43100
O 	O 	0.71230 0.91610 0.75670 -0.24600
C 	C 	0.55020 0.90910 0.15020 0.34300
C 	C 	0.57670 0.85330 0.24190 -0.12900
C 	C 	0.61990 0.87420 0.41580 0.04500
C 	C 	0.75900 0.94680 0.92400 -0.03600
H 	H 	0.63340 0.92550 0.47680 0.05900
H 	H 	0.59620 0.13590 0.41750 -1.29400
H 	H 	0.76780 0.00110 0.95600 0.03600
H 	H 	0.81280 0.95180 0.90980 0.04200
H 	H 	0.73220 0.91120 0.03350 0.05400
O 	O 	0.03010 0.58860 0.24860 -0.40300
O 	O 	0.11000 0.62860 0.98230 -0.43100
O 	O 	0.08390 0.79620 0.75670 -0.24800
C 	C 	0.09090 0.64110 0.15020 0.34300
C 	C 	0.14670 0.72340 0.24190 -0.12900
C 	C 	0.12580 0.74570 0.41580 0.04600
C 	C 	0.05320 0.81220 0.92400 -0.03100
H 	H 	0.07450 0.70790 0.47680 0.05900
H 	H 	0.86410 0.46030 0.41750 -1.29400
H 	H 	0.99890 0.76670 0.95600 0.03700
H 	H 	0.04820 0.86100 0.90980 0.04100
H 	H 	0.08880 0.82100 0.03350 0.05100
O 	O 	0.44150 0.41140 0.75140 -0.40300
O 	O 	0.48140 0.37140 0.01770 -0.43200
O 	O 	0.28770 0.20380 0.24330 -0.24400
C 	C 	0.44980 0.35890 0.84980 0.34500
C 	C 	0.42330 0.27660 0.75810 -0.12900
C 	C 	0.38010 0.25430 0.58420 0.04500
C 	C 	0.24100 0.18780 0.07600 -0.05100
H 	H 	0.36660 0.29210 0.52320 0.05900
H 	H 	0.40380 0.53970 0.58250 -1.29400
H 	H 	0.23220 0.23330 0.04400 0.04200
H 	H 	0.18720 0.13900 0.09020 0.04600
H 	H 	0.26780 0.17900 0.96650 0.05900
O 	O 	0.96990 0.55850 0.75140 -0.40300
O 	O 	0.89000 0.51860 0.01770 -0.43100
O 	O 	0.91610 0.71230 0.24330 -0.24600
C 	C 	0.90910 0.55020 0.84980 0.34300
C 	C 	0.85330 0.57670 0.75810 -0.12900
C 	C 	0.87420 0.61990 0.58420 0.04500
C 	C 	0.94680 0.75900 0.07600 -0.03600
H 	H 	0.92550 0.63340 0.52320 0.05900
H 	H 	0.13590 0.59620 0.58250 -1.29400
H 	H 	0.00110 0.76780 0.04400 0.03600
H 	H 	0.95180 0.81280 0.09020 0.04200
H 	H 	0.91120 0.73220 0.96650 0.05400
O 	O 	0.58860 0.03010 0.75140 -0.40300
O 	O 	0.62860 0.11000 0.01770 -0.43100
O 	O 	0.79620 0.08390 0.24330 -0.24800
C 	C 	0.64110 0.09090 0.84980 0.34300
C 	C 	0.72340 0.14670 0.75810 -0.12900
C 	C 	0.74570 0.12580 0.58420 0.04600
C 	C 	0.81220 0.05320 0.07600 -0.03100
H 	H 	0.70790 0.07450 0.52320 0.05900
H 	H 	0.46030 0.86410 0.58250 -1.29400
H 	H 	0.76670 0.99890 0.04400 0.03700
H 	H 	0.86100 0.04820 0.09020 0.04100
H 	H 	0.82100 0.08880 0.96650 0.05100
Cu	Cu	0.47648 0.52352 0.84513 0.90100
O 	O 	0.44170 0.55830 0.57830 0.94400
N 	N 	0.43410 0.56590 0.60600 0.66700
C 	C 	0.40520 0.59480 0.51300 1.68000
C 	C 	0.36370 0.63630 0.40100 -5.97800
H 	H 	0.36800 0.63200 0.26900 1.94400
Cu	Cu	0.47648 0.95296 0.84513 0.90100
O 	O 	0.44170 0.88340 0.57830 0.94400
N 	N 	0.43410 0.86820 0.60600 0.66700
C 	C 	0.40520 0.81040 0.51300 1.68000
C 	C 	0.36370 0.72740 0.40100 -5.97800
H 	H 	0.36800 0.73600 0.26900 1.94300
Cu	Cu	0.04704 0.52352 0.84513 0.90100
O 	O 	0.11660 0.55830 0.57830 0.94400
N 	N 	0.13180 0.56590 0.60600 0.66700
C 	C 	0.18960 0.59480 0.51300 1.68000
C 	C 	0.27260 0.63630 0.40100 -5.97800
H 	H 	0.26400 0.63200 0.26900 1.94300
Cu	Cu	0.52352 0.47648 0.15487 0.90100
O 	O 	0.55830 0.44170 0.42170 0.94400
N 	N 	0.56590 0.43410 0.39400 0.66700
C 	C 	0.59480 0.40520 0.48700 1.68000
C 	C 	0.63630 0.36370 0.59900 -5.97800
H 	H 	0.63200 0.36800 0.73100 1.94400
Cu	Cu	0.95296 0.47648 0.15487 0.90100
O 	O 	0.88340 0.44170 0.42170 0.94400
N 	N 	0.86820 0.43410 0.39400 0.66700
C 	C 	0.81040 0.40520 0.48700 1.68000
C 	C 	0.72740 0.36370 0.59900 -5.97800
H 	H 	0.73600 0.36800 0.73100 1.94300
Cu	Cu	0.52352 0.04704 0.15487 0.90100
O 	O 	0.55830 0.11660 0.42170 0.94400
N 	N 	0.56590 0.13180 0.39400 0.66700
C 	C 	0.59480 0.18960 0.48700 1.68000
C 	C 	0.63630 0.27260 0.59900 -5.97800
H 	H 	0.63200 0.26400 0.73100 1.94300
C 	C 	0.82135 0.64270 0.49870 -0.10100
C 	C 	0.77865 0.55730 0.84820 -0.00100
C 	C 	0.84650 0.69300 0.31320 0.30200
H 	H 	0.76565 0.53130 0.97010 0.01200
C 	C 	0.35730 0.17865 0.49870 -0.10100
C 	C 	0.44270 0.22135 0.84820 -0.00100
C 	C 	0.30700 0.15350 0.31320 0.30200
H 	H 	0.46870 0.23435 0.97010 0.01200
C 	C 	0.82135 0.17865 0.49870 -0.10100
C 	C 	0.77865 0.22135 0.84820 -0.00100
C 	C 	0.84650 0.15350 0.31320 0.30500
H 	H 	0.76565 0.23435 0.97010 0.01200
C 	C 	0.64270 0.82135 0.50130 -0.10100
C 	C 	0.55730 0.77865 0.15180 -0.00100
C 	C 	0.69300 0.84650 0.68680 0.30200
H 	H 	0.53130 0.76565 0.02990 0.01200
C 	C 	0.17865 0.35730 0.50130 -0.10100
C 	C 	0.22135 0.44270 0.15180 -0.00100
C 	C 	0.15350 0.30700 0.68680 0.30200
H 	H 	0.23435 0.46870 0.02990 0.01200
C 	C 	0.17865 0.82135 0.50130 -0.10100
C 	C 	0.22135 0.77865 0.15180 -0.00100
C 	C 	0.15350 0.84650 0.68680 0.30500
H 	H 	0.23435 0.76565 0.02990 0.01200
H 	H 	0.30455 0.60910 0.44350 3.54800
H 	H 	0.39090 0.69545 0.44350 3.54800
H 	H 	0.30455 0.69545 0.44350 3.54800
H 	H 	0.60910 0.30455 0.55650 3.54800
H 	H 	0.69545 0.39090 0.55650 3.54800
H 	H 	0.69545 0.30455 0.55650 3.54800
