data_crystal

_cell_length_a 6.08670
_cell_length_b 9.48300
_cell_length_c 10.09600
_cell_angle_alpha 88.61200
_cell_angle_beta  74.38500
_cell_angle_gamma 77.13200

_symmetry_space_group_name_	'P 1'
_symmetry_space_group_name_H-M	'P 1'

loop_
_symmetry_equiv_pos_as_xyz
  x,y,z

loop_
_atom_site_label
_atom_site_type_symbol
_atom_site_fract_x
_atom_site_fract_y
_atom_site_fract_z
_atom_site_charge
Gd	Gd	0.34520 0.94175 0.70299 1.56100
Gd	Gd	0.65480 0.05825 0.29701 1.56100
H 	H 	0.73300 0.11630 0.70460 0.33800
H 	H 	0.37840 0.96860 0.35140 0.17100
H 	H 	0.26700 0.88370 0.29540 0.33800
H 	H 	0.62160 0.03140 0.64860 0.17100
H 	H 	0.27150 0.44150 0.62620 0.05400
H 	H 	0.72850 0.55850 0.37380 0.05400
C 	C 	0.19200 0.72170 0.59220 0.30000
C 	C 	0.09300 0.60860 0.54470 -0.04700
C 	C 	0.80800 0.27830 0.40780 0.30000
C 	C 	0.92700 0.64120 0.46610 -0.07200
C 	C 	0.16100 0.20640 0.57750 0.39100
C 	C 	0.07300 0.04740 0.01660 0.22200
C 	C 	0.07300 0.35880 0.53390 -0.07200
C 	C 	0.83800 0.53410 0.42430 0.00600
C 	C 	0.16200 0.46590 0.57570 0.00600
C 	C 	0.92700 0.95260 0.98340 0.22200
C 	C 	0.83900 0.79360 0.42250 0.39100
C 	C 	0.90700 0.39140 0.45530 -0.04700
O 	O 	0.00460 0.10590 0.13920 -0.34600
O 	O 	0.66350 0.87630 0.50210 -0.49300
O 	O 	0.67340 0.31150 0.33110 -0.36300
O 	O 	0.06290 0.16990 0.69330 -0.38900
O 	O 	0.86520 0.14760 0.44210 -0.36800
O 	O 	0.99540 0.89410 0.86080 -0.34600
O 	O 	0.39820 0.90400 0.28980 -0.64200
O 	O 	0.25280 0.06210 0.92620 -0.32300
O 	O 	0.74720 0.93790 0.07380 -0.32300
O 	O 	0.13480 0.85240 0.55790 -0.36800
O 	O 	0.32660 0.68850 0.66890 -0.36300
O 	O 	0.33650 0.12370 0.49790 -0.49300
O 	O 	0.60180 0.09600 0.71020 -0.64200
O 	O 	0.93710 0.83010 0.30670 -0.38900
