data_crystal

_cell_length_a 13.18520
_cell_length_b 20.01980
_cell_length_c 20.01980
_cell_angle_alpha 103.23200
_cell_angle_beta  107.66400
_cell_angle_gamma 72.33610

_symmetry_space_group_name_	'P 1'
_symmetry_space_group_name_H-M	'P 1'

loop_
_symmetry_equiv_pos_as_xyz
  x,y,z

loop_
_atom_site_label
_atom_site_type_symbol
_atom_site_fract_x
_atom_site_fract_y
_atom_site_fract_z
_atom_site_charge
Co	Co	0.43693 0.81803 0.69267 1.18000
Co	Co	0.06741 0.27567 0.72433 1.15800
Co	Co	0.43693 0.30733 0.18197 1.18000
Co	Co	0.56307 0.69267 0.81803 1.18000
Co	Co	0.32246 0.29254 0.70746 1.10800
Co	Co	-0.00000 0.00000 -0.00000 1.11500
Co	Co	0.56307 0.18197 0.30733 1.18000
Co	Co	0.93259 0.72433 0.27567 1.17200
Co	Co	0.67754 0.70746 0.29254 1.10900
H 	H 	0.51210 0.32270 0.05830 0.03500
H 	H 	0.54380 0.68250 0.06370 0.08000
H 	H 	0.35290 0.82180 0.95200 0.08000
H 	H 	0.22420 0.93430 0.68230 -0.00600
H 	H 	0.96840 0.03440 0.15080 0.01900
H 	H 	0.74670 0.45890 0.34890 0.07900
H 	H 	0.80700 0.19600 0.56080 0.07300
H 	H 	0.83920 0.94500 0.31200 0.04800
H 	H 	0.77090 0.01500 0.88640 -0.00200
H 	H 	0.48790 0.05830 0.32270 0.03500
H 	H 	0.33400 0.82890 0.53430 0.00800
H 	H 	0.77090 0.11360 0.98500 0.06600
H 	H 	0.85120 0.26140 0.73860 -0.00900
H 	H 	0.24240 0.75020 0.65740 0.02400
H 	H 	0.64710 0.95200 0.82180 0.08300
H 	H 	0.55560 0.60890 0.18810 0.00100
H 	H 	0.51740 0.49460 0.16800 0.06300
H 	H 	0.33400 0.46570 0.17110 0.00500
H 	H 	0.54380 0.93630 0.31750 0.04200
H 	H 	0.64710 0.17820 0.04800 0.04500
H 	H 	0.91170 0.88830 0.11170 0.05100
H 	H 	0.51210 0.94170 0.67730 0.00100
H 	H 	0.10160 0.72060 0.56680 0.07500
H 	H 	0.83920 0.68800 0.05500 0.08700
H 	H 	0.20600 0.43940 0.65540 -0.00700
H 	H 	0.79400 0.56060 0.34460 -0.00300
H 	H 	0.77580 0.68230 0.93430 0.00100
H 	H 	0.25330 0.54110 0.65110 0.07500
H 	H 	0.15450 0.21790 0.09390 0.05400
H 	H 	0.45620 0.31750 0.93630 0.04400
H 	H 	0.89840 0.56680 0.72060 0.08200
H 	H 	0.51740 0.83200 0.50540 0.06800
H 	H 	0.75760 0.24980 0.34260 0.02900
H 	H 	0.79400 0.65540 0.43940 -0.00300
H 	H 	0.22910 0.88640 0.01500 0.00000
H 	H 	0.03160 0.96560 0.84920 0.01100
H 	H 	0.75760 0.65740 0.75020 0.02900
H 	H 	0.48260 0.16800 0.49460 0.06300
H 	H 	0.85490 0.82720 0.17280 0.02700
H 	H 	0.96840 0.84920 0.96560 0.02400
H 	H 	0.66600 0.53430 0.82890 0.01000
H 	H 	0.16080 0.05500 0.68800 0.08300
H 	H 	0.15450 0.90610 0.78210 0.06900
H 	H 	0.22420 0.31770 0.06570 0.03000
H 	H 	0.22910 0.98500 0.11360 0.07400
H 	H 	0.25330 0.34890 0.45890 0.07400
H 	H 	0.84550 0.78210 0.90610 0.07300
H 	H 	0.55560 0.81190 0.39110 0.00500
H 	H 	0.74670 0.65110 0.54110 0.08000
H 	H 	0.84550 0.09390 0.21790 0.05900
H 	H 	0.22140 0.79490 0.20510 0.05300
H 	H 	0.80700 0.43920 0.80400 0.07600
H 	H 	0.08830 0.11170 0.88830 0.08500
H 	H 	0.48260 0.50540 0.83200 0.06800
H 	H 	0.16080 0.31200 0.94500 0.04300
H 	H 	0.45620 0.06370 0.68250 0.08400
H 	H 	0.44440 0.39110 0.81190 0.00500
H 	H 	0.48790 0.67730 0.94170 0.00300
H 	H 	0.03160 0.15080 0.03440 0.00300
H 	H 	0.77860 0.20510 0.79490 0.08500
H 	H 	0.19300 0.80400 0.43920 0.07700
H 	H 	0.14880 0.73860 0.26140 0.02100
H 	H 	0.44440 0.18810 0.60890 0.00100
H 	H 	0.10160 0.43320 0.27940 0.07300
H 	H 	0.24240 0.34260 0.24980 0.02400
H 	H 	0.19300 0.56080 0.19600 0.07300
H 	H 	0.14510 0.17280 0.82720 0.00700
H 	H 	0.66600 0.17110 0.46570 0.00800
H 	H 	0.89840 0.27940 0.43320 0.08100
H 	H 	0.35290 0.04800 0.17820 0.04000
H 	H 	0.77580 0.06570 0.31770 0.03500
H 	H 	0.20600 0.34460 0.56060 -0.00700
C 	C 	0.09840 0.12898 0.06262 0.03200
C 	C 	0.23350 0.38720 0.23900 0.06300
C 	C 	0.43190 0.20850 0.50890 -0.06600
C 	C 	0.55960 0.67965 0.96515 0.10500
C 	C 	0.35540 0.81763 0.81997 0.36700
C 	C 	0.76650 0.61280 0.76100 0.06200
C 	C 	0.28620 0.80680 0.54140 0.06700
C 	C 	0.35540 0.18003 0.18237 0.38000
C 	C 	0.23320 0.03319 0.68621 -0.13500
C 	C 	0.88510 0.11280 0.88720 0.31200
C 	C 	0.73590 0.84576 0.30484 0.42300
C 	C 	0.20180 0.79152 0.48288 -0.08700
C 	C 	0.44040 0.32035 0.03485 -0.00900
C 	C 	0.70650 0.48700 0.31380 -0.07800
C 	C 	0.69820 0.68705 0.07315 -0.01000
C 	C 	0.85430 0.19690 0.80310 -0.12900
C 	C 	0.59430 0.77870 0.42170 0.04000
C 	C 	0.27140 0.31729 0.03911 -0.02100
C 	C 	0.21310 0.03251 0.10929 -0.05000
C 	C 	0.28860 0.85204 0.92976 -0.07900
C 	C 	0.27110 0.85721 0.86159 -0.03100
C 	C 	0.14570 0.80310 0.19690 -0.04200
C 	C 	0.92620 0.15120 0.84880 0.03100
C 	C 	0.85180 0.25720 0.44160 -0.06800
C 	C 	0.40570 0.42170 0.77870 0.03900
C 	C 	0.28860 0.07024 0.14796 -0.00500
C 	C 	0.79820 0.20848 0.51712 -0.07500
C 	C 	0.85180 0.55840 0.74280 -0.06900
C 	C 	0.82870 0.82972 0.90128 -0.06800
C 	C 	0.43190 0.49110 0.79150 -0.06500
C 	C 	0.56810 0.79150 0.49110 -0.06500
C 	C 	0.82870 0.09872 0.17028 -0.04600
C 	C 	0.72860 0.68271 0.96089 0.09800
C 	C 	0.59010 0.39880 0.25140 0.37300
C 	C 	0.86710 0.24240 0.50740 -0.02300
C 	C 	0.78690 0.10929 0.03251 -0.03200
C 	C 	0.40760 0.03860 0.68300 -0.13500
C 	C 	0.13290 0.50740 0.24240 -0.00900
C 	C 	0.27130 0.44780 0.68600 0.07500
C 	C 	0.44040 0.96515 0.67965 0.11500
C 	C 	0.72890 0.86159 0.85721 -0.02800
C 	C 	0.26410 0.30484 0.84576 0.42200
C 	C 	0.37660 0.53240 0.74020 -0.03300
C 	C 	0.56810 0.50890 0.20850 -0.06500
C 	C 	0.90030 0.23060 0.76940 0.13300
C 	C 	0.30180 0.07315 0.68705 -0.00600
C 	C 	0.40570 0.22130 0.57830 0.03700
C 	C 	0.59010 0.74860 0.60120 0.37300
C 	C 	0.09970 0.76940 0.23060 0.02500
C 	C 	0.29350 0.51300 0.68620 -0.07900
C 	C 	0.73590 0.69516 0.15424 0.38900
C 	C 	0.04160 0.73770 0.43010 0.30600
C 	C 	0.28620 0.45860 0.19320 0.06400
C 	C 	0.69820 0.92685 0.31295 -0.09800
C 	C 	0.76650 0.23900 0.38720 0.06000
C 	C 	0.92990 0.82080 0.17920 0.02800
C 	C 	0.59240 0.96140 0.31700 0.01900
C 	C 	0.72860 0.03911 0.31729 -0.02500
C 	C 	0.40990 0.25140 0.39880 0.37200
C 	C 	0.23350 0.76100 0.61280 0.06500
C 	C 	0.62340 0.74020 0.53240 -0.03100
C 	C 	0.64460 0.81997 0.81763 0.36800
C 	C 	0.40760 0.31700 0.96140 0.01100
C 	C 	0.20180 0.51712 0.20848 -0.08800
C 	C 	0.76680 0.68621 0.03319 -0.12100
C 	C 	0.72870 0.68600 0.44780 0.07700
C 	C 	0.17130 0.90128 0.82972 -0.07000
C 	C 	0.59430 0.57830 0.22130 0.03900
C 	C 	0.09840 0.93738 0.87102 0.05500
C 	C 	0.07010 0.17920 0.82080 0.07900
C 	C 	0.95840 0.43010 0.73770 0.36900
C 	C 	0.78690 0.96749 0.89071 0.09000
C 	C 	0.96320 0.85800 0.14200 -0.01100
C 	C 	0.90160 0.06262 0.12898 0.03700
C 	C 	0.64460 0.18237 0.18003 0.37900
C 	C 	0.11490 0.88720 0.11280 0.34800
C 	C 	0.29350 0.31380 0.48700 -0.07900
C 	C 	0.03680 0.14200 0.85800 -0.14000
C 	C 	0.90160 0.87102 0.93738 0.05900
C 	C 	0.59240 0.68300 0.03860 -0.12300
C 	C 	0.76680 0.96681 0.31379 0.02500
C 	C 	0.04160 0.56990 0.26230 0.30400
C 	C 	0.71140 0.92976 0.85204 -0.08100
C 	C 	0.27140 0.96089 0.68271 0.10800
C 	C 	0.27110 0.13841 0.14279 -0.07600
C 	C 	0.27130 0.31400 0.55220 0.07400
C 	C 	0.86710 0.49260 0.75760 -0.02000
C 	C 	0.72870 0.55220 0.31400 0.07600
C 	C 	0.30180 0.31295 0.92685 -0.09700
C 	C 	0.62340 0.46760 0.25980 -0.03300
C 	C 	0.79820 0.48288 0.79152 -0.07500
C 	C 	0.23320 0.31379 0.96681 0.01800
C 	C 	0.72890 0.14279 0.13841 -0.06900
C 	C 	0.55960 0.03485 0.32035 -0.01500
C 	C 	0.71140 0.14796 0.07024 -0.01200
C 	C 	0.07380 0.84880 0.15120 -0.08600
C 	C 	0.21310 0.89071 0.96749 0.08100
C 	C 	0.37660 0.25980 0.46760 -0.03500
C 	C 	0.14820 0.74280 0.55840 -0.08300
C 	C 	0.95840 0.26230 0.56990 0.37000
C 	C 	0.71380 0.19320 0.45860 0.06100
C 	C 	0.40990 0.60120 0.74860 0.37200
C 	C 	0.17130 0.17028 0.09872 -0.04700
C 	C 	0.70650 0.68620 0.51300 -0.07800
C 	C 	0.13290 0.75760 0.49260 -0.00700
C 	C 	0.14820 0.44160 0.25720 -0.08300
C 	C 	0.26410 0.15424 0.69516 0.38600
C 	C 	0.71380 0.54140 0.80680 0.06300
N 	N 	0.99910 0.77669 0.22331 -0.18400
N 	N 	0.66920 0.60020 0.27680 -0.24700
N 	N 	0.62540 0.67971 0.92781 -0.22700
N 	N 	0.30380 0.39432 0.20712 -0.21500
N 	N 	0.66920 0.72320 0.39980 -0.24600
N 	N 	0.62540 0.07219 0.32029 -0.18900
N 	N 	0.33080 0.27680 0.60020 -0.24700
N 	N 	0.30380 0.79288 0.60568 -0.21500
N 	N 	0.00090 0.22331 0.77669 -0.24200
N 	N 	0.37460 0.92781 0.67971 -0.23100
N 	N 	0.33080 0.39980 0.72320 -0.24700
N 	N 	0.11670 0.93464 0.93888 -0.21500
N 	N 	0.88330 0.93888 0.93464 -0.20800
N 	N 	0.69620 0.60568 0.79288 -0.21300
N 	N 	0.11670 0.06112 0.06536 -0.21000
N 	N 	0.69620 0.20712 0.39432 -0.21300
N 	N 	0.88330 0.06536 0.06112 -0.20200
N 	N 	0.37460 0.32029 0.07219 -0.19100
O 	O 	0.33600 0.83362 0.75874 -0.42300
O 	O 	0.95590 0.07201 0.92799 -0.39000
O 	O 	0.50000 0.70856 0.70856 -0.36200
O 	O 	0.52870 0.79999 0.61961 -0.43200
O 	O 	0.52870 0.38039 0.20001 -0.43400
O 	O 	0.62460 0.69273 0.62907 -0.26200
O 	O 	0.83110 0.82099 0.29837 -0.46100
O 	O 	0.67130 0.69396 0.18646 -0.47100
O 	O 	0.95620 0.37172 0.74450 -0.40700
O 	O 	0.95620 0.25550 0.62828 -0.40900
O 	O 	0.62460 0.37093 0.30727 -0.26200
O 	O 	0.04380 0.74450 0.37172 -0.41200
O 	O 	0.32870 0.30604 0.81354 -0.48000
O 	O 	0.37540 0.62907 0.69273 -0.26300
O 	O 	0.66400 0.75874 0.83362 -0.42200
O 	O 	0.50000 0.29144 0.29144 -0.36200
O 	O 	0.43630 0.15140 0.22604 -0.43000
O 	O 	0.33600 0.24126 0.16638 -0.42900
O 	O 	0.02550 0.28590 0.55550 -0.32500
O 	O 	0.16890 0.17901 0.70163 -0.46200
O 	O 	0.04410 0.92799 0.07201 -0.42400
O 	O 	0.56370 0.84860 0.77396 -0.42100
O 	O 	0.02550 0.44450 0.71410 -0.32300
O 	O 	0.83110 0.70163 0.17901 -0.45400
O 	O 	0.97450 0.55550 0.28590 -0.26800
O 	O 	0.78460 0.12297 0.87703 -0.26700
O 	O 	0.43630 0.77396 0.84860 -0.42200
O 	O 	0.47130 0.61961 0.79999 -0.43200
O 	O 	0.66400 0.16638 0.24126 -0.42800
O 	O 	0.56370 0.22604 0.15140 -0.42900
O 	O 	0.16890 0.29837 0.82099 -0.46800
O 	O 	0.04380 0.62828 0.25550 -0.41400
O 	O 	0.47130 0.20001 0.38039 -0.43500
O 	O 	0.32870 0.18646 0.69396 -0.47200
O 	O 	0.67130 0.81354 0.30604 -0.47900
O 	O 	0.97450 0.71410 0.44450 -0.26700
O 	O 	0.37540 0.30727 0.37093 -0.26400
O 	O 	0.21540 0.87703 0.12297 -0.28000
