data_crystal

_cell_length_a 11.30580
_cell_length_b 17.28400
_cell_length_c 37.08200
_cell_angle_alpha 90.00000
_cell_angle_beta  90.00000
_cell_angle_gamma 90.00000

_symmetry_space_group_name_	'P 1'
_symmetry_space_group_name_H-M	'P 1'

loop_
_symmetry_equiv_pos_as_xyz
  x,y,z

loop_
_atom_site_label
_atom_site_type_symbol
_atom_site_fract_x
_atom_site_fract_y
_atom_site_fract_z
_atom_site_charge
O 	O 	0.29620 0.23990 0.10598 -0.24600
O 	O 	0.21760 0.19540 0.15736 -0.37200
O 	O 	0.40740 0.43510 0.27244 -0.19600
C 	C 	0.32860 0.31220 0.15980 -0.03800
C 	C 	0.32800 0.31230 0.19750 0.00200
H 	H 	0.29640 0.27050 0.21010 0.08200
C 	C 	0.27710 0.24440 0.13946 0.29900
O 	O 	0.79620 0.73990 0.10598 -0.24600
O 	O 	0.71760 0.69540 0.15736 -0.37200
O 	O 	0.90740 0.93510 0.27244 -0.19600
C 	C 	0.82860 0.81220 0.15980 -0.03800
C 	C 	0.82800 0.81230 0.19750 0.00200
H 	H 	0.79640 0.77050 0.21010 0.08200
C 	C 	0.77710 0.74440 0.13946 0.29900
O 	O 	0.45380 0.51010 0.10598 -0.24600
O 	O 	0.53240 0.55460 0.15736 -0.37200
O 	O 	0.34260 0.31490 0.27244 -0.19600
C 	C 	0.42140 0.43780 0.15980 -0.03800
C 	C 	0.42200 0.43770 0.19750 0.00200
H 	H 	0.45360 0.47950 0.21010 0.08200
C 	C 	0.47290 0.50560 0.13946 0.29900
O 	O 	0.95380 0.01010 0.10598 -0.24600
O 	O 	0.03240 0.05460 0.15736 -0.37200
O 	O 	0.84260 0.81490 0.27244 -0.19600
C 	C 	0.92140 0.93780 0.15980 -0.03800
C 	C 	0.92200 0.93770 0.19750 0.00200
H 	H 	0.95360 0.97950 0.21010 0.08200
C 	C 	0.97290 0.00560 0.13946 0.29800
O 	O 	0.45380 0.73990 0.14402 -0.24600
O 	O 	0.53240 0.69540 0.09264 -0.37200
O 	O 	0.34260 0.93510 0.97756 -0.19600
C 	C 	0.42140 0.81220 0.09020 -0.03800
C 	C 	0.42200 0.81230 0.05250 0.00200
H 	H 	0.45360 0.77050 0.03990 0.08200
C 	C 	0.47290 0.74440 0.11054 0.29900
O 	O 	0.95380 0.23990 0.14402 -0.24600
O 	O 	0.03240 0.19540 0.09264 -0.37200
O 	O 	0.84260 0.43510 0.97756 -0.19600
C 	C 	0.92140 0.31220 0.09020 -0.03800
C 	C 	0.92200 0.31230 0.05250 0.00200
H 	H 	0.95360 0.27050 0.03990 0.08200
C 	C 	0.97290 0.24440 0.11054 0.29800
O 	O 	0.29620 0.01010 0.14402 -0.24600
O 	O 	0.21760 0.05460 0.09264 -0.37200
O 	O 	0.40740 0.81490 0.97756 -0.19600
C 	C 	0.32860 0.93780 0.09020 -0.03800
C 	C 	0.32800 0.93770 0.05250 0.00200
H 	H 	0.29640 0.97950 0.03990 0.08100
C 	C 	0.27710 0.00560 0.11054 0.29900
O 	O 	0.79620 0.51010 0.14402 -0.24600
O 	O 	0.71760 0.55460 0.09264 -0.37200
O 	O 	0.90740 0.31490 0.97756 -0.19600
C 	C 	0.82860 0.43780 0.09020 -0.03800
C 	C 	0.82800 0.43770 0.05250 0.00200
H 	H 	0.79640 0.47950 0.03990 0.08200
C 	C 	0.77710 0.50560 0.11054 0.29900
Co	Co	0.12500 0.12500 0.12500 1.19500
Co	Co	0.62500 0.62500 0.12500 1.19500
C 	C 	0.37500 0.37500 0.21620 -0.03600
C 	C 	0.37500 0.37500 0.14150 0.00000
H 	H 	0.37500 0.37500 0.11640 0.07900
C 	C 	0.37500 0.37500 0.25700 0.29800
C 	C 	0.87500 0.87500 0.21620 -0.03600
C 	C 	0.87500 0.87500 0.14150 -0.00000
H 	H 	0.87500 0.87500 0.11640 0.07900
C 	C 	0.87500 0.87500 0.25700 0.29800
C 	C 	0.37500 0.87500 0.03380 -0.03600
C 	C 	0.37500 0.87500 0.10850 0.00000
H 	H 	0.37500 0.87500 0.13360 0.07900
C 	C 	0.37500 0.87500 0.99300 0.29800
C 	C 	0.87500 0.37500 0.03380 -0.03600
C 	C 	0.87500 0.37500 0.10850 0.00000
H 	H 	0.87500 0.37500 0.13360 0.07900
C 	C 	0.87500 0.37500 0.99300 0.29800
O 	O 	0.29620 0.73990 0.60598 -0.24600
O 	O 	0.21760 0.69540 0.65736 -0.37200
O 	O 	0.40740 0.93510 0.77244 -0.19600
C 	C 	0.32860 0.81220 0.65980 -0.03800
C 	C 	0.32800 0.81230 0.69750 0.00200
H 	H 	0.29640 0.77050 0.71010 0.08200
C 	C 	0.27710 0.74440 0.63946 0.29900
O 	O 	0.79620 0.23990 0.60598 -0.24600
O 	O 	0.71760 0.19540 0.65736 -0.37200
O 	O 	0.90740 0.43510 0.77244 -0.19600
C 	C 	0.82860 0.31220 0.65980 -0.03800
C 	C 	0.82800 0.31230 0.69750 0.00200
H 	H 	0.79640 0.27050 0.71010 0.08200
C 	C 	0.77710 0.24440 0.63946 0.29900
O 	O 	0.45380 0.01010 0.60598 -0.24600
O 	O 	0.53240 0.05460 0.65736 -0.37200
O 	O 	0.34260 0.81490 0.77244 -0.19600
C 	C 	0.42140 0.93780 0.65980 -0.03800
C 	C 	0.42200 0.93770 0.69750 0.00200
H 	H 	0.45360 0.97950 0.71010 0.08200
C 	C 	0.47290 0.00560 0.63946 0.29900
O 	O 	0.95380 0.51010 0.60598 -0.24600
O 	O 	0.03240 0.55460 0.65736 -0.37200
O 	O 	0.84260 0.31490 0.77244 -0.19600
C 	C 	0.92140 0.43780 0.65980 -0.03800
C 	C 	0.92200 0.43770 0.69750 0.00200
H 	H 	0.95360 0.47950 0.71010 0.08200
C 	C 	0.97290 0.50560 0.63946 0.29900
O 	O 	0.45380 0.23990 0.64402 -0.24600
O 	O 	0.53240 0.19540 0.59264 -0.37200
O 	O 	0.34260 0.43510 0.47756 -0.19600
C 	C 	0.42140 0.31220 0.59020 -0.03800
C 	C 	0.42200 0.31230 0.55250 0.00200
H 	H 	0.45360 0.27050 0.53990 0.08200
C 	C 	0.47290 0.24440 0.61054 0.29900
O 	O 	0.95380 0.73990 0.64402 -0.24600
O 	O 	0.03240 0.69540 0.59264 -0.37200
O 	O 	0.84260 0.93510 0.47756 -0.19600
C 	C 	0.92140 0.81220 0.59020 -0.03800
C 	C 	0.92200 0.81230 0.55250 0.00200
H 	H 	0.95360 0.77050 0.53990 0.08200
C 	C 	0.97290 0.74440 0.61054 0.29900
O 	O 	0.29620 0.51010 0.64402 -0.24600
O 	O 	0.21760 0.55460 0.59264 -0.37200
O 	O 	0.40740 0.31490 0.47756 -0.19600
C 	C 	0.32860 0.43780 0.59020 -0.03800
C 	C 	0.32800 0.43770 0.55250 0.00200
H 	H 	0.29640 0.47950 0.53990 0.08200
C 	C 	0.27710 0.50560 0.61054 0.29900
O 	O 	0.79620 0.01010 0.64402 -0.24600
O 	O 	0.71760 0.05460 0.59264 -0.37200
O 	O 	0.90740 0.81490 0.47756 -0.19600
C 	C 	0.82860 0.93780 0.59020 -0.03800
C 	C 	0.82800 0.93770 0.55250 0.00200
H 	H 	0.79640 0.97950 0.53990 0.08200
C 	C 	0.77710 0.00560 0.61054 0.29800
Co	Co	0.12500 0.62500 0.62500 1.19500
Co	Co	0.62500 0.12500 0.62500 1.19500
C 	C 	0.37500 0.87500 0.71620 -0.03600
C 	C 	0.37500 0.87500 0.64150 0.00000
H 	H 	0.37500 0.87500 0.61640 0.07900
C 	C 	0.37500 0.87500 0.75700 0.29800
C 	C 	0.87500 0.37500 0.71620 -0.03600
C 	C 	0.87500 0.37500 0.64150 0.00000
H 	H 	0.87500 0.37500 0.61640 0.07900
C 	C 	0.87500 0.37500 0.75700 0.29800
C 	C 	0.37500 0.37500 0.53380 -0.03600
C 	C 	0.37500 0.37500 0.60850 0.00000
H 	H 	0.37500 0.37500 0.63360 0.07900
C 	C 	0.37500 0.37500 0.49300 0.29800
C 	C 	0.87500 0.87500 0.53380 -0.03600
C 	C 	0.87500 0.87500 0.60850 -0.00000
H 	H 	0.87500 0.87500 0.63360 0.07900
C 	C 	0.87500 0.87500 0.49300 0.29800
O 	O 	0.70380 0.76010 0.89402 -0.24600
O 	O 	0.78240 0.80460 0.84264 -0.37200
O 	O 	0.59260 0.56490 0.72756 -0.19600
C 	C 	0.67140 0.68780 0.84020 -0.03800
C 	C 	0.67200 0.68770 0.80250 0.00200
H 	H 	0.70360 0.72950 0.78990 0.08200
C 	C 	0.72290 0.75560 0.86054 0.29900
O 	O 	0.20380 0.26010 0.89402 -0.24600
O 	O 	0.28240 0.30460 0.84264 -0.37200
O 	O 	0.09260 0.06490 0.72756 -0.19600
C 	C 	0.17140 0.18780 0.84020 -0.03800
C 	C 	0.17200 0.18770 0.80250 0.00200
H 	H 	0.20360 0.22950 0.78990 0.08200
C 	C 	0.22290 0.25560 0.86054 0.29900
O 	O 	0.54620 0.48990 0.89402 -0.24600
O 	O 	0.46760 0.44540 0.84264 -0.37200
O 	O 	0.65740 0.68510 0.72756 -0.19600
C 	C 	0.57860 0.56220 0.84020 -0.03800
C 	C 	0.57800 0.56230 0.80250 0.00200
H 	H 	0.54640 0.52050 0.78990 0.08200
C 	C 	0.52710 0.49440 0.86054 0.29900
O 	O 	0.04620 0.98990 0.89402 -0.24600
O 	O 	0.96760 0.94540 0.84264 -0.37200
O 	O 	0.15740 0.18510 0.72756 -0.19600
C 	C 	0.07860 0.06220 0.84020 -0.03800
C 	C 	0.07800 0.06230 0.80250 0.00200
H 	H 	0.04640 0.02050 0.78990 0.08200
C 	C 	0.02710 0.99440 0.86054 0.29800
O 	O 	0.54620 0.26010 0.85598 -0.24600
O 	O 	0.46760 0.30460 0.90736 -0.37200
O 	O 	0.65740 0.06490 0.02244 -0.19600
C 	C 	0.57860 0.18780 0.90980 -0.03800
C 	C 	0.57800 0.18770 0.94750 0.00200
H 	H 	0.54640 0.22950 0.96010 0.08200
C 	C 	0.52710 0.25560 0.88946 0.29900
O 	O 	0.04620 0.76010 0.85598 -0.24600
O 	O 	0.96760 0.80460 0.90736 -0.37200
O 	O 	0.15740 0.56490 0.02244 -0.19600
C 	C 	0.07860 0.68780 0.90980 -0.03800
C 	C 	0.07800 0.68770 0.94750 0.00200
H 	H 	0.04640 0.72950 0.96010 0.08200
C 	C 	0.02710 0.75560 0.88946 0.29800
O 	O 	0.70380 0.98990 0.85598 -0.24600
O 	O 	0.78240 0.94540 0.90736 -0.37200
O 	O 	0.59260 0.18510 0.02244 -0.19600
C 	C 	0.67140 0.06220 0.90980 -0.03800
C 	C 	0.67200 0.06230 0.94750 0.00200
H 	H 	0.70360 0.02050 0.96010 0.08100
C 	C 	0.72290 0.99440 0.88946 0.29900
O 	O 	0.20380 0.48990 0.85598 -0.24600
O 	O 	0.28240 0.44540 0.90736 -0.37200
O 	O 	0.09260 0.68510 0.02244 -0.19600
C 	C 	0.17140 0.56220 0.90980 -0.03800
C 	C 	0.17200 0.56230 0.94750 0.00200
H 	H 	0.20360 0.52050 0.96010 0.08200
C 	C 	0.22290 0.49440 0.88946 0.29900
Co	Co	0.87500 0.87500 0.87500 1.19500
Co	Co	0.37500 0.37500 0.87500 1.19500
C 	C 	0.62500 0.62500 0.78380 -0.03600
C 	C 	0.62500 0.62500 0.85850 0.00000
H 	H 	0.62500 0.62500 0.88360 0.07900
C 	C 	0.62500 0.62500 0.74300 0.29800
C 	C 	0.12500 0.12500 0.78380 -0.03600
C 	C 	0.12500 0.12500 0.85850 -0.00000
H 	H 	0.12500 0.12500 0.88360 0.07900
C 	C 	0.12500 0.12500 0.74300 0.29800
C 	C 	0.62500 0.12500 0.96620 -0.03600
C 	C 	0.62500 0.12500 0.89150 0.00000
H 	H 	0.62500 0.12500 0.86640 0.07900
C 	C 	0.62500 0.12500 0.00700 0.29800
C 	C 	0.12500 0.62500 0.96620 -0.03600
C 	C 	0.12500 0.62500 0.89150 0.00000
H 	H 	0.12500 0.62500 0.86640 0.07900
C 	C 	0.12500 0.62500 0.00700 0.29800
O 	O 	0.70380 0.26010 0.39402 -0.24600
O 	O 	0.78240 0.30460 0.34264 -0.37200
O 	O 	0.59260 0.06490 0.22756 -0.19600
C 	C 	0.67140 0.18780 0.34020 -0.03800
C 	C 	0.67200 0.18770 0.30250 0.00200
H 	H 	0.70360 0.22950 0.28990 0.08200
C 	C 	0.72290 0.25560 0.36054 0.29900
O 	O 	0.20380 0.76010 0.39402 -0.24600
O 	O 	0.28240 0.80460 0.34264 -0.37200
O 	O 	0.09260 0.56490 0.22756 -0.19600
C 	C 	0.17140 0.68780 0.34020 -0.03800
C 	C 	0.17200 0.68770 0.30250 0.00200
H 	H 	0.20360 0.72950 0.28990 0.08200
C 	C 	0.22290 0.75560 0.36054 0.29900
O 	O 	0.54620 0.98990 0.39402 -0.24600
O 	O 	0.46760 0.94540 0.34264 -0.37200
O 	O 	0.65740 0.18510 0.22756 -0.19600
C 	C 	0.57860 0.06220 0.34020 -0.03800
C 	C 	0.57800 0.06230 0.30250 0.00200
H 	H 	0.54640 0.02050 0.28990 0.08200
C 	C 	0.52710 0.99440 0.36054 0.29900
O 	O 	0.04620 0.48990 0.39402 -0.24600
O 	O 	0.96760 0.44540 0.34264 -0.37200
O 	O 	0.15740 0.68510 0.22756 -0.19600
C 	C 	0.07860 0.56220 0.34020 -0.03800
C 	C 	0.07800 0.56230 0.30250 0.00200
H 	H 	0.04640 0.52050 0.28990 0.08200
C 	C 	0.02710 0.49440 0.36054 0.29900
O 	O 	0.54620 0.76010 0.35598 -0.24600
O 	O 	0.46760 0.80460 0.40736 -0.37200
O 	O 	0.65740 0.56490 0.52244 -0.19600
C 	C 	0.57860 0.68780 0.40980 -0.03800
C 	C 	0.57800 0.68770 0.44750 0.00200
H 	H 	0.54640 0.72950 0.46010 0.08200
C 	C 	0.52710 0.75560 0.38946 0.29900
O 	O 	0.04620 0.26010 0.35598 -0.24600
O 	O 	0.96760 0.30460 0.40736 -0.37200
O 	O 	0.15740 0.06490 0.52244 -0.19600
C 	C 	0.07860 0.18780 0.40980 -0.03800
C 	C 	0.07800 0.18770 0.44750 0.00200
H 	H 	0.04640 0.22950 0.46010 0.08200
C 	C 	0.02710 0.25560 0.38946 0.29900
O 	O 	0.70380 0.48990 0.35598 -0.24600
O 	O 	0.78240 0.44540 0.40736 -0.37200
O 	O 	0.59260 0.68510 0.52244 -0.19600
C 	C 	0.67140 0.56220 0.40980 -0.03800
C 	C 	0.67200 0.56230 0.44750 0.00200
H 	H 	0.70360 0.52050 0.46010 0.08200
C 	C 	0.72290 0.49440 0.38946 0.29900
O 	O 	0.20380 0.98990 0.35598 -0.24600
O 	O 	0.28240 0.94540 0.40736 -0.37200
O 	O 	0.09260 0.18510 0.52244 -0.19600
C 	C 	0.17140 0.06220 0.40980 -0.03800
C 	C 	0.17200 0.06230 0.44750 0.00200
H 	H 	0.20360 0.02050 0.46010 0.08200
C 	C 	0.22290 0.99440 0.38946 0.29800
Co	Co	0.87500 0.37500 0.37500 1.19500
Co	Co	0.37500 0.87500 0.37500 1.19500
C 	C 	0.62500 0.12500 0.28380 -0.03600
C 	C 	0.62500 0.12500 0.35850 0.00000
H 	H 	0.62500 0.12500 0.38360 0.07900
C 	C 	0.62500 0.12500 0.24300 0.29800
C 	C 	0.12500 0.62500 0.28380 -0.03600
C 	C 	0.12500 0.62500 0.35850 0.00000
H 	H 	0.12500 0.62500 0.38360 0.07900
C 	C 	0.12500 0.62500 0.24300 0.29800
C 	C 	0.62500 0.62500 0.46620 -0.03600
C 	C 	0.62500 0.62500 0.39150 0.00000
H 	H 	0.62500 0.62500 0.36640 0.07900
C 	C 	0.62500 0.62500 0.50700 0.29800
C 	C 	0.12500 0.12500 0.46620 -0.03600
C 	C 	0.12500 0.12500 0.39150 -0.00000
H 	H 	0.12500 0.12500 0.36640 0.07900
C 	C 	0.12500 0.12500 0.50700 0.29800
