data_crystal

_cell_length_a 8.94730
_cell_length_b 12.32230
_cell_length_c 20.06510
_cell_angle_alpha 85.35710
_cell_angle_beta  77.11740
_cell_angle_gamma 68.71210

_symmetry_space_group_name_	'P 1'
_symmetry_space_group_name_H-M	'P 1'

loop_
_symmetry_equiv_pos_as_xyz
  x,y,z

loop_
_atom_site_label
_atom_site_type_symbol
_atom_site_fract_x
_atom_site_fract_y
_atom_site_fract_z
_atom_site_charge
Mn	Mn	0.14442 0.46984 0.91140 1.27700
Mn	Mn	0.36426 0.03016 0.41140 1.28000
Mn	Mn	0.61539 0.16070 0.47330 1.30400
Mn	Mn	0.24939 0.83930 0.52670 1.30200
Mn	Mn	0.83869 0.66070 0.02670 1.30800
Mn	Mn	0.80582 0.96984 0.58860 1.28800
Mn	Mn	0.52609 0.33930 0.97330 1.30600
Mn	Mn	0.52566 0.53016 0.08860 1.28400
H 	H 	0.72450 0.42500 0.21740 0.02300
H 	H 	0.71050 0.88780 0.16980 0.08900
H 	H 	0.15480 0.83080 0.02580 -0.01600
H 	H 	0.66510 0.24600 0.73520 0.01700
H 	H 	0.15030 0.74600 0.76480 0.03700
H 	H 	0.81990 0.96380 0.91100 0.04000
H 	H 	0.70400 0.50000 0.50000 0.08000
H 	H 	0.99900 0.09400 0.41220 -0.11500
H 	H 	0.50520 0.90600 0.58780 -0.19100
H 	H 	0.63030 0.38780 0.33020 0.08800
H 	H 	0.36690 0.57500 0.78260 0.01900
H 	H 	0.64630 0.75400 0.26480 0.01700
H 	H 	0.53370 0.53620 0.41100 0.02200
H 	H 	0.84300 0.40600 0.91220 -0.17800
H 	H 	0.48090 0.46380 0.58900 0.02100
H 	H 	0.95400 0.00000 -0.00000 0.15300
H 	H 	0.73560 0.66920 0.52580 0.03800
H 	H 	0.16120 0.59400 0.08780 -0.19800
H 	H 	0.69190 0.92500 0.28260 0.02200
H 	H 	0.01140 0.16920 0.97420 -0.02100
H 	H 	0.69470 0.03620 0.08900 0.02200
H 	H 	0.46400 0.00000 -0.00000 0.00500
H 	H 	0.21400 0.50000 0.50000 0.05500
H 	H 	0.89950 0.07500 0.71740 0.02200
H 	H 	0.34830 0.61220 0.66980 0.08700
H 	H 	0.76810 0.11220 0.83020 0.08400
H 	H 	0.93060 0.33080 0.47420 0.02200
H 	H 	0.66110 0.25400 0.23520 0.01600
C 	C 	0.52748 0.38450 0.84414 0.34900
C 	C 	0.17830 0.89858 0.01562 0.15600
C 	C 	0.66915 0.18092 0.22218 0.08200
C 	C 	0.60007 0.31908 0.72218 0.08100
C 	C 	0.00091 0.71300 0.53298 0.32700
C 	C 	0.00518 0.03904 0.44700 0.43500
C 	C 	0.69552 0.59362 0.22974 -0.15400
C 	C 	0.20218 0.53904 0.05300 0.59500
C 	C 	0.11810 0.50000 0.50000 -0.00300
C 	C 	0.84307 0.03832 0.81714 -0.11300
C 	C 	0.68900 0.98378 0.25022 0.05100
C 	C 	0.87486 0.94972 0.86556 0.02400
C 	C 	0.01231 0.74162 0.89696 0.32400
C 	C 	0.65927 0.24162 0.60304 0.41000
C 	C 	0.49042 0.44972 0.63444 0.06200
C 	C 	0.57458 0.55028 0.36556 0.06200
C 	C 	0.09994 0.39828 0.48404 -0.15300
C 	C 	0.64133 0.68092 0.27782 0.08000
C 	C 	0.03914 0.90638 0.72974 -0.16300
C 	C 	0.36810 0.00000 -0.00000 0.12800
C 	C 	0.75612 0.61550 0.15586 0.34900
C 	C 	0.24689 0.28700 0.46702 0.40900
C 	C 	0.07225 0.81908 0.77782 0.01200
C 	C 	0.42278 0.51622 0.75022 0.04800
C 	C 	0.94392 0.39858 0.48438 0.08800
C 	C 	0.51888 0.40638 0.77026 -0.15600
C 	C 	0.92300 0.01622 0.74978 0.06800
C 	C 	0.66198 0.11550 0.34414 0.35100
C 	C 	0.57917 0.66032 0.34554 -0.14900
C 	C 	0.68922 0.48378 0.24978 0.04800
C 	C 	0.65089 0.25838 0.10304 0.41200
C 	C 	0.50393 0.75838 0.39696 0.41000
C 	C 	0.09250 0.10142 0.98438 0.14700
C 	C 	0.69853 0.96168 0.18286 -0.13100
C 	C 	0.58503 0.33968 0.65446 -0.14900
C 	C 	0.67471 0.16032 0.15446 -0.14800
C 	C 	0.05850 0.00000 -0.00000 -0.26800
C 	C 	0.79422 0.46096 0.94700 0.58500
C 	C 	0.12162 0.88450 0.65586 0.34700
C 	C 	0.49122 0.96096 0.55300 0.59600
C 	C 	0.67526 0.09362 0.27026 -0.15700
C 	C 	0.69014 0.05028 0.13444 0.06300
C 	C 	0.33398 0.89828 0.01596 -0.19500
C 	C 	0.98949 0.83968 0.84554 -0.05700
C 	C 	0.80850 0.50000 0.50000 -0.10700
C 	C 	0.82688 0.60142 0.51562 0.02500
C 	C 	0.98226 0.60172 0.51596 -0.05000
C 	C 	0.46391 0.78700 0.03298 0.42900
C 	C 	0.24822 0.10172 0.98404 -0.19900
C 	C 	0.63139 0.46168 0.31714 -0.13200
C 	C 	0.41021 0.53832 0.68286 -0.13500
C 	C 	0.28389 0.21300 0.96702 0.42900
O 	O 	0.65766 0.23380 0.04248 -0.45700
O 	O 	0.93394 0.76620 0.95752 -0.41500
O 	O 	0.87270 0.03608 0.48172 -0.53200
O 	O 	0.34943 0.47586 0.04568 -0.62600
O 	O 	0.10442 0.53608 0.01828 -0.60800
O 	O 	0.14330 0.71316 0.52404 -0.45000
O 	O 	0.49415 0.85748 0.37502 -0.47500
O 	O 	0.26452 0.81342 0.63874 -0.39800
O 	O 	0.40286 0.44044 0.88904 -0.54700
O 	O 	0.71668 0.18658 0.36126 -0.39600
O 	O 	0.41734 0.21316 0.97596 -0.47100
O 	O 	0.87120 0.79634 0.55546 -0.43700
O 	O 	0.17666 0.29634 0.94454 -0.49100
O 	O 	0.14511 0.97586 0.45432 -0.58300
O 	O 	0.45014 0.73380 0.45752 -0.46200
O 	O 	0.65878 0.46392 0.98172 -0.58900
O 	O 	0.72665 0.14252 0.62498 -0.47000
O 	O 	0.82794 0.68658 0.13874 -0.39000
O 	O 	0.38050 0.28684 0.47596 -0.46700
O 	O 	0.87097 0.52414 0.95432 -0.60500
O 	O 	0.10163 0.64252 0.87502 -0.46100
O 	O 	0.59330 0.05956 0.38904 -0.54700
O 	O 	0.41754 0.70366 0.05546 -0.48400
O 	O 	0.73234 0.55956 0.11096 -0.54300
O 	O 	0.04190 0.94044 0.61096 -0.55900
O 	O 	0.64146 0.26620 0.54248 -0.45900
O 	O 	0.65326 0.31342 0.86126 -0.39300
O 	O 	0.61917 0.35748 0.12498 -0.47400
O 	O 	0.60646 0.78684 0.02404 -0.47100
O 	O 	0.39050 0.96392 0.51828 -0.59600
O 	O 	0.22300 0.20366 0.44454 -0.48800
O 	O 	0.57529 0.02414 0.54568 -0.62800
