data_crystal

_cell_length_a 13.95900
_cell_length_b 22.48500
_cell_length_c 19.15680
_cell_angle_alpha 90.00000
_cell_angle_beta  97.77800
_cell_angle_gamma 90.00000

_symmetry_space_group_name_	'P 1'
_symmetry_space_group_name_H-M	'P 1'

loop_
_symmetry_equiv_pos_as_xyz
  x,y,z

loop_
_atom_site_label
_atom_site_type_symbol
_atom_site_fract_x
_atom_site_fract_y
_atom_site_fract_z
_atom_site_charge
Cu	Cu	0.74088 0.73676 0.23209 0.84400
N 	N 	0.74570 0.82898 0.24910 -0.23400
N 	N 	0.75720 0.14398 0.27970 -0.23100
N 	N 	0.64650 0.74505 0.14318 -0.24300
N 	N 	0.33510 0.77030 0.82118 -0.24400
C 	C 	0.81500 0.86270 0.22680 0.07800
H 	H 	0.86070 0.84420 0.20290 -0.02500
C 	C 	0.82180 0.92340 0.23740 -0.14300
H 	H 	0.87200 0.94470 0.22190 0.07300
C 	C 	0.75380 0.95240 0.27120 0.06000
C 	C 	0.68330 0.91750 0.29510 -0.14200
H 	H 	0.63640 0.93500 0.31860 0.07300
C 	C 	0.68220 0.85630 0.28410 0.08000
H 	H 	0.63530 0.83360 0.30180 -0.02600
C 	C 	0.84000 0.11240 0.28430 0.06500
H 	H 	0.89830 0.13290 0.28780 -0.01600
C 	C 	0.84230 0.05060 0.28400 -0.12900
H 	H 	0.90120 0.03070 0.28760 0.06900
C 	C 	0.75580 0.01850 0.27820 0.04600
C 	C 	0.67110 0.05150 0.27590 -0.13200
H 	H 	0.61190 0.03210 0.27360 0.07000
C 	C 	0.67450 0.11300 0.27690 0.07100
H 	H 	0.61680 0.13380 0.27560 -0.01800
C 	C 	0.56680 0.77950 0.13910 0.07200
H 	H 	0.55280 0.79830 0.17980 -0.01900
C 	C 	0.50570 0.78810 0.07750 -0.13700
H 	H 	0.45150 0.81220 0.07700 0.07100
C 	C 	0.52480 0.76060 0.01600 0.04900
C 	C 	0.60570 0.72440 0.02040 -0.13400
H 	H 	0.62050 0.70460 0.98060 0.07000
C 	C 	0.66480 0.71770 0.08480 0.07000
H 	H 	0.71890 0.69330 0.08700 -0.02000
C 	C 	0.30240 0.77700 0.88290 0.08500
H 	H 	0.23640 0.78240 0.88300 -0.03000
C 	C 	0.36150 0.77640 0.94650 -0.14600
H 	H 	0.33530 0.78210 0.98820 0.07400
C 	C 	0.45950 0.76710 0.94850 0.06100
C 	C 	0.49370 0.76060 0.88460 -0.14400
H 	H 	0.55950 0.75530 0.88350 0.07300
C 	C 	0.43060 0.76210 0.82230 0.08000
H 	H 	0.45520 0.75720 0.77990 -0.02600
Cu	Cu	0.75912 0.23676 0.26791 0.84500
N 	N 	0.75430 0.32898 0.25090 -0.23300
N 	N 	0.74280 0.64398 0.22030 -0.23000
N 	N 	0.85350 0.24505 0.35682 -0.24200
N 	N 	0.16490 0.27030 0.67882 -0.24300
C 	C 	0.68500 0.36270 0.27320 0.07900
H 	H 	0.63930 0.34420 0.29710 -0.02500
C 	C 	0.67820 0.42340 0.26260 -0.14300
H 	H 	0.62800 0.44470 0.27810 0.07300
C 	C 	0.74620 0.45240 0.22880 0.06000
C 	C 	0.81670 0.41750 0.20490 -0.14200
H 	H 	0.86360 0.43500 0.18140 0.07300
C 	C 	0.81780 0.35630 0.21590 0.08000
H 	H 	0.86470 0.33360 0.19820 -0.02600
C 	C 	0.66000 0.61240 0.21570 0.06500
H 	H 	0.60170 0.63290 0.21220 -0.01600
C 	C 	0.65770 0.55060 0.21600 -0.12900
H 	H 	0.59880 0.53070 0.21240 0.06900
C 	C 	0.74420 0.51850 0.22180 0.04600
C 	C 	0.82890 0.55150 0.22410 -0.13200
H 	H 	0.88810 0.53210 0.22640 0.07000
C 	C 	0.82550 0.61300 0.22310 0.07100
H 	H 	0.88320 0.63380 0.22440 -0.01800
C 	C 	0.93320 0.27950 0.36090 0.07200
H 	H 	0.94720 0.29830 0.32020 -0.01900
C 	C 	0.99430 0.28810 0.42250 -0.13700
H 	H 	0.04850 0.31220 0.42300 0.07100
C 	C 	0.97520 0.26060 0.48400 0.04900
C 	C 	0.89430 0.22440 0.47960 -0.13400
H 	H 	0.87950 0.20460 0.51940 0.07100
C 	C 	0.83520 0.21770 0.41520 0.07000
H 	H 	0.78110 0.19330 0.41300 -0.02000
C 	C 	0.19760 0.27700 0.61710 0.08500
H 	H 	0.26360 0.28240 0.61700 -0.03000
C 	C 	0.13850 0.27640 0.55350 -0.14600
H 	H 	0.16470 0.28210 0.51180 0.07400
C 	C 	0.04050 0.26710 0.55150 0.06100
C 	C 	0.00630 0.26060 0.61540 -0.14400
H 	H 	0.94050 0.25530 0.61650 0.07300
C 	C 	0.06940 0.26210 0.67770 0.08000
H 	H 	0.04480 0.25720 0.72010 -0.02600
Cu	Cu	0.25912 0.26324 0.76791 0.84500
N 	N 	0.25430 0.17102 0.75090 -0.23300
N 	N 	0.24280 0.85602 0.72030 -0.23000
N 	N 	0.35350 0.25495 0.85682 -0.24200
N 	N 	0.66490 0.22970 0.17882 -0.24300
C 	C 	0.18500 0.13730 0.77320 0.07900
H 	H 	0.13930 0.15580 0.79710 -0.02500
C 	C 	0.17820 0.07660 0.76260 -0.14300
H 	H 	0.12800 0.05530 0.77810 0.07300
C 	C 	0.24620 0.04760 0.72880 0.06000
C 	C 	0.31670 0.08250 0.70490 -0.14200
H 	H 	0.36360 0.06500 0.68140 0.07300
C 	C 	0.31780 0.14370 0.71590 0.08000
H 	H 	0.36470 0.16640 0.69820 -0.02600
C 	C 	0.16000 0.88760 0.71570 0.06500
H 	H 	0.10170 0.86710 0.71220 -0.01600
C 	C 	0.15770 0.94940 0.71600 -0.12900
H 	H 	0.09880 0.96930 0.71240 0.06900
C 	C 	0.24420 0.98150 0.72180 0.04600
C 	C 	0.32890 0.94850 0.72410 -0.13200
H 	H 	0.38810 0.96790 0.72640 0.07000
C 	C 	0.32550 0.88700 0.72310 0.07100
H 	H 	0.38320 0.86620 0.72440 -0.01800
C 	C 	0.43320 0.22050 0.86090 0.07200
H 	H 	0.44720 0.20170 0.82020 -0.01900
C 	C 	0.49430 0.21190 0.92250 -0.13700
H 	H 	0.54850 0.18780 0.92300 0.07100
C 	C 	0.47520 0.23940 0.98400 0.04900
C 	C 	0.39430 0.27560 0.97960 -0.13400
H 	H 	0.37950 0.29540 0.01940 0.07000
C 	C 	0.33520 0.28230 0.91520 0.07000
H 	H 	0.28110 0.30670 0.91300 -0.02000
C 	C 	0.69760 0.22300 0.11710 0.08500
H 	H 	0.76360 0.21760 0.11700 -0.03000
C 	C 	0.63850 0.22360 0.05350 -0.14600
H 	H 	0.66470 0.21790 0.01180 0.07400
C 	C 	0.54050 0.23290 0.05150 0.06100
C 	C 	0.50630 0.23940 0.11540 -0.14400
H 	H 	0.44050 0.24470 0.11650 0.07300
C 	C 	0.56940 0.23790 0.17770 0.08000
H 	H 	0.54480 0.24280 0.22010 -0.02600
Cu	Cu	0.24088 0.76324 0.73209 0.84500
N 	N 	0.24570 0.67102 0.74910 -0.23300
N 	N 	0.25720 0.35602 0.77970 -0.23000
N 	N 	0.14650 0.75495 0.64318 -0.24200
N 	N 	0.83510 0.72970 0.32118 -0.24300
C 	C 	0.31500 0.63730 0.72680 0.07900
H 	H 	0.36070 0.65580 0.70290 -0.02500
C 	C 	0.32180 0.57660 0.73740 -0.14300
H 	H 	0.37200 0.55530 0.72190 0.07300
C 	C 	0.25380 0.54760 0.77120 0.06000
C 	C 	0.18330 0.58250 0.79510 -0.14200
H 	H 	0.13640 0.56500 0.81860 0.07300
C 	C 	0.18220 0.64370 0.78410 0.08000
H 	H 	0.13530 0.66640 0.80180 -0.02600
C 	C 	0.34000 0.38760 0.78430 0.06500
H 	H 	0.39830 0.36710 0.78780 -0.01600
C 	C 	0.34230 0.44940 0.78400 -0.12900
H 	H 	0.40120 0.46930 0.78760 0.06900
C 	C 	0.25580 0.48150 0.77820 0.04600
C 	C 	0.17110 0.44850 0.77590 -0.13200
H 	H 	0.11190 0.46790 0.77360 0.07000
C 	C 	0.17450 0.38700 0.77690 0.07100
H 	H 	0.11680 0.36620 0.77560 -0.01800
C 	C 	0.06680 0.72050 0.63910 0.07200
H 	H 	0.05280 0.70170 0.67980 -0.01900
C 	C 	0.00570 0.71190 0.57750 -0.13700
H 	H 	0.95150 0.68780 0.57700 0.07100
C 	C 	0.02480 0.73940 0.51600 0.04900
C 	C 	0.10570 0.77560 0.52040 -0.13400
H 	H 	0.12050 0.79540 0.48060 0.07100
C 	C 	0.16480 0.78230 0.58480 0.07000
H 	H 	0.21890 0.80670 0.58700 -0.02000
C 	C 	0.80240 0.72300 0.38290 0.08500
H 	H 	0.73640 0.71760 0.38300 -0.03000
C 	C 	0.86150 0.72360 0.44650 -0.14600
H 	H 	0.83530 0.71790 0.48820 0.07400
C 	C 	0.95950 0.73290 0.44850 0.06100
C 	C 	0.99370 0.73940 0.38460 -0.14400
H 	H 	0.05950 0.74470 0.38350 0.07300
C 	C 	0.93060 0.73790 0.32230 0.08000
H 	H 	0.95520 0.74280 0.27990 -0.02600
