data_crystal

_cell_length_a 10.24540
_cell_length_b 33.54200
_cell_length_c 13.47390
_cell_angle_alpha 90.00000
_cell_angle_beta  90.00000
_cell_angle_gamma 90.00000

_symmetry_space_group_name_	'P 1'
_symmetry_space_group_name_H-M	'P 1'

loop_
_symmetry_equiv_pos_as_xyz
  x,y,z

loop_
_atom_site_label
_atom_site_type_symbol
_atom_site_fract_x
_atom_site_fract_y
_atom_site_fract_z
_atom_site_charge
C 	C 	0.25900 0.20500 0.26780 0.07800
H 	H 	0.28010 0.20140 0.19980 -0.08300
C 	C 	0.26510 0.22347 0.41500 0.08500
H 	H 	0.29070 0.23600 0.47520 -0.06100
C 	C 	0.26010 0.14553 0.63200 0.08500
H 	H 	0.28030 0.12880 0.57720 -0.02100
C 	C 	0.26950 0.17465 0.76800 0.09000
H 	H 	0.29810 0.18330 0.83150 -0.04600
C 	C 	0.25570 0.04642 0.17770 0.06900
H 	H 	0.27210 0.02330 0.13900 -0.07000
C 	C 	0.27140 0.09097 0.28440 0.11100
H 	H 	0.30150 0.10670 0.33840 -0.01600
C 	C 	0.24520 0.08130 0.89830 0.09500
H 	H 	0.22980 0.10880 0.91010 -0.03400
C 	C 	0.22770 0.01959 0.89930 0.09200
H 	H 	0.19680 0.99330 0.91150 -0.01100
N 	N 	0.15640 0.18902 0.31020 -0.23300
N 	N 	0.16010 0.20083 0.40730 -0.24000
N 	N 	0.33170 0.22705 0.33080 -0.27900
N 	N 	0.15560 0.16898 0.63540 -0.24300
N 	N 	0.16130 0.18806 0.72490 -0.25000
N 	N 	0.33410 0.14787 0.71390 -0.26500
N 	N 	0.15550 0.06994 0.16320 -0.26400
N 	N 	0.16500 0.09931 0.23340 -0.22500
N 	N 	0.33310 0.05812 0.25260 -0.26300
N 	N 	0.34540 0.06806 0.84690 -0.22800
N 	N 	0.33450 0.02736 0.84800 -0.21500
N 	N 	0.16730 0.05247 0.93230 -0.25000
N 	N 	0.97680 0.09068 0.45170 0.65700
O 	O 	0.02860 0.12345 0.42990 -1.24300
O 	O 	0.03500 0.05910 0.42930 -0.21100
O 	O 	0.87220 0.08830 0.49350 -0.35300
C 	C 	0.75900 0.70500 0.26780 0.09000
H 	H 	0.78010 0.70140 0.19980 -0.06300
C 	C 	0.76510 0.72347 0.41500 0.09800
H 	H 	0.79070 0.73600 0.47520 -0.02900
C 	C 	0.76010 0.64553 0.63200 0.09800
H 	H 	0.78030 0.62880 0.57720 0.00600
C 	C 	0.76950 0.67465 0.76800 0.10000
H 	H 	0.79810 0.68330 0.83150 -0.02500
C 	C 	0.75570 0.54642 0.17770 0.08100
H 	H 	0.77210 0.52330 0.13900 -0.03300
C 	C 	0.77140 0.59097 0.28440 0.11400
H 	H 	0.80150 0.60670 0.33840 -0.00000
C 	C 	0.74520 0.58130 0.89830 0.11100
H 	H 	0.72980 0.60880 0.91010 -0.02300
C 	C 	0.72770 0.51959 0.89930 0.11400
H 	H 	0.69680 0.49330 0.91150 0.00800
N 	N 	0.65640 0.68902 0.31020 -0.22700
N 	N 	0.66010 0.70083 0.40730 -0.23400
N 	N 	0.83170 0.72705 0.33080 -0.24400
N 	N 	0.65560 0.66898 0.63540 -0.22900
N 	N 	0.66130 0.68806 0.72490 -0.23300
N 	N 	0.83410 0.64787 0.71390 -0.22800
N 	N 	0.65550 0.56994 0.16320 -0.24500
N 	N 	0.66500 0.59931 0.23340 -0.22100
N 	N 	0.83310 0.55812 0.25260 -0.22200
N 	N 	0.84540 0.56806 0.84690 -0.18900
N 	N 	0.83450 0.52736 0.84800 -0.17600
N 	N 	0.66730 0.55247 0.93230 -0.23500
N 	N 	0.47680 0.59068 0.45170 0.04500
O 	O 	0.52860 0.62345 0.42990 -0.19600
O 	O 	0.53500 0.55910 0.42930 -0.08800
O 	O 	0.37220 0.58830 0.49350 -0.15900
C 	C 	0.74100 0.79500 0.76780 0.09500
H 	H 	0.71990 0.79860 0.69980 -0.05100
C 	C 	0.73490 0.77653 0.91500 0.10400
H 	H 	0.70930 0.76400 0.97520 -0.01300
C 	C 	0.73990 0.85447 0.13200 0.08200
H 	H 	0.71970 0.87120 0.07720 -0.05000
C 	C 	0.73050 0.82535 0.26800 0.09600
H 	H 	0.70190 0.81670 0.33150 -0.04700
C 	C 	0.74430 0.95358 0.67770 0.08600
H 	H 	0.72790 0.97670 0.63900 -0.03300
C 	C 	0.72860 0.90903 0.78440 0.10400
H 	H 	0.69850 0.89330 0.83840 -0.01900
C 	C 	0.75480 0.91870 0.39830 0.09200
H 	H 	0.77020 0.89120 0.41010 -0.02500
C 	C 	0.77230 0.98041 0.39930 0.09500
H 	H 	0.80320 0.00670 0.41150 -0.00300
N 	N 	0.84360 0.81098 0.81020 -0.20200
N 	N 	0.83990 0.79917 0.90730 -0.19800
N 	N 	0.66830 0.77295 0.83080 -0.26700
N 	N 	0.84440 0.83102 0.13540 -0.22700
N 	N 	0.83870 0.81194 0.22490 -0.20800
N 	N 	0.66590 0.85213 0.21390 -0.26800
N 	N 	0.84450 0.93006 0.66320 -0.20100
N 	N 	0.83500 0.90069 0.73340 -0.20100
N 	N 	0.66690 0.94188 0.75260 -0.25200
N 	N 	0.65460 0.93194 0.34690 -0.23200
N 	N 	0.66550 0.97264 0.34800 -0.22000
N 	N 	0.83270 0.94753 0.43230 -0.23100
N 	N 	0.02320 0.90932 0.95170 -0.52700
O 	O 	0.97140 0.87655 0.92990 0.84400
O 	O 	0.96500 0.94090 0.92930 0.04100
O 	O 	0.12780 0.91170 0.99350 0.08600
C 	C 	0.24100 0.29500 0.76780 0.08100
H 	H 	0.21990 0.29860 0.69980 -0.08100
C 	C 	0.23490 0.27653 0.91500 0.09200
H 	H 	0.20930 0.26400 0.97520 -0.02700
C 	C 	0.23990 0.35447 0.13200 0.06900
H 	H 	0.21970 0.37120 0.07720 -0.05900
C 	C 	0.23050 0.32535 0.26800 0.08000
H 	H 	0.20190 0.31670 0.33150 -0.07500
C 	C 	0.24430 0.45358 0.67770 0.07600
H 	H 	0.22790 0.47670 0.63900 -0.04600
C 	C 	0.22860 0.40903 0.78440 0.10100
H 	H 	0.19850 0.39330 0.83840 -0.02100
C 	C 	0.25480 0.41870 0.39830 0.07900
H 	H 	0.27020 0.39120 0.41010 -0.05800
C 	C 	0.27230 0.48041 0.39930 0.08300
H 	H 	0.30320 0.50670 0.41150 -0.01600
N 	N 	0.34360 0.31098 0.81020 -0.22500
N 	N 	0.33990 0.29917 0.90730 -0.21400
N 	N 	0.16830 0.27295 0.83080 -0.28400
N 	N 	0.34440 0.33102 0.13540 -0.25500
N 	N 	0.33870 0.31194 0.22490 -0.24600
N 	N 	0.16590 0.35213 0.21390 -0.28600
N 	N 	0.34450 0.43006 0.66320 -0.23500
N 	N 	0.33500 0.40069 0.73340 -0.22200
N 	N 	0.16690 0.44188 0.75260 -0.26700
N 	N 	0.15460 0.43194 0.34690 -0.25000
N 	N 	0.16550 0.47264 0.34800 -0.23200
N 	N 	0.33270 0.44753 0.43230 -0.26400
N 	N 	0.52320 0.40932 0.95170 0.05900
O 	O 	0.47140 0.37655 0.92990 -0.17100
O 	O 	0.46500 0.44090 0.92930 -0.07700
O 	O 	0.62780 0.41170 0.99350 -0.09300
C 	C 	0.25900 0.79500 0.76780 0.08200
H 	H 	0.28010 0.79860 0.69980 -0.06700
C 	C 	0.26510 0.77653 0.91500 0.09300
H 	H 	0.29070 0.76400 0.97520 -0.02400
C 	C 	0.26010 0.85447 0.13200 0.07200
H 	H 	0.28030 0.87120 0.07720 -0.05400
C 	C 	0.26950 0.82535 0.26800 0.08500
H 	H 	0.29810 0.81670 0.33150 -0.05900
C 	C 	0.25570 0.95358 0.67770 0.07900
H 	H 	0.27210 0.97670 0.63900 -0.05200
C 	C 	0.27140 0.90903 0.78440 0.11500
H 	H 	0.30150 0.89330 0.83840 0.00000
C 	C 	0.24520 0.91870 0.39830 0.07700
H 	H 	0.22980 0.89120 0.41010 -0.05300
C 	C 	0.22770 0.98041 0.39930 0.07300
H 	H 	0.19680 0.00670 0.41150 -0.02400
N 	N 	0.15640 0.81098 0.81020 -0.22700
N 	N 	0.16010 0.79917 0.90730 -0.21500
N 	N 	0.33170 0.77295 0.83080 -0.26900
N 	N 	0.15560 0.83102 0.13540 -0.26500
N 	N 	0.16130 0.81194 0.22490 -0.25700
N 	N 	0.33410 0.85213 0.21390 -0.27200
N 	N 	0.15550 0.93006 0.66320 -0.25000
N 	N 	0.16500 0.90069 0.73340 -0.22000
N 	N 	0.33310 0.94188 0.75260 -0.25600
N 	N 	0.34540 0.93194 0.34690 -0.23700
N 	N 	0.33450 0.97264 0.34800 -0.22400
N 	N 	0.16730 0.94753 0.43230 -0.27700
N 	N 	0.97680 0.90932 0.95170 0.62700
O 	O 	0.02860 0.87655 0.92990 -1.18600
O 	O 	0.03500 0.94090 0.92930 -0.19700
O 	O 	0.87220 0.91170 0.99350 -0.29200
C 	C 	0.75900 0.29500 0.76780 0.09500
H 	H 	0.78010 0.29860 0.69980 -0.04700
C 	C 	0.76510 0.27653 0.91500 0.10600
H 	H 	0.79070 0.26400 0.97520 0.00700
C 	C 	0.76010 0.35447 0.13200 0.08500
H 	H 	0.78030 0.37120 0.07720 -0.02600
C 	C 	0.76950 0.32535 0.26800 0.09500
H 	H 	0.79810 0.31670 0.33150 -0.03700
C 	C 	0.75570 0.45358 0.67770 0.09100
H 	H 	0.77210 0.47670 0.63900 -0.01500
C 	C 	0.77140 0.40903 0.78440 0.11900
H 	H 	0.80150 0.39330 0.83840 0.01500
C 	C 	0.74520 0.41870 0.39830 0.09400
H 	H 	0.72980 0.39120 0.41010 -0.04100
C 	C 	0.72770 0.48041 0.39930 0.09600
H 	H 	0.69680 0.50670 0.41150 -0.00400
N 	N 	0.65640 0.31098 0.81020 -0.22100
N 	N 	0.66010 0.29917 0.90730 -0.21000
N 	N 	0.83170 0.27295 0.83080 -0.23500
N 	N 	0.65560 0.33102 0.13540 -0.25100
N 	N 	0.66130 0.31194 0.22490 -0.24000
N 	N 	0.83410 0.35213 0.21390 -0.23400
N 	N 	0.65550 0.43006 0.66320 -0.23100
N 	N 	0.66500 0.40069 0.73340 -0.21600
N 	N 	0.83310 0.44188 0.75260 -0.21600
N 	N 	0.84540 0.43194 0.34690 -0.19600
N 	N 	0.83450 0.47264 0.34800 -0.18300
N 	N 	0.66730 0.44753 0.43230 -0.26100
N 	N 	0.47680 0.40932 0.95170 0.04100
O 	O 	0.52860 0.37655 0.92990 -0.18100
O 	O 	0.53500 0.44090 0.92930 -0.07900
O 	O 	0.37220 0.41170 0.99350 -0.10400
C 	C 	0.74100 0.20500 0.26780 0.09000
H 	H 	0.71990 0.20140 0.19980 -0.06800
C 	C 	0.73490 0.22347 0.41500 0.09600
H 	H 	0.70930 0.23600 0.47520 -0.05000
C 	C 	0.73990 0.14553 0.63200 0.09400
H 	H 	0.71970 0.12880 0.57720 -0.01800
C 	C 	0.73050 0.17465 0.76800 0.10100
H 	H 	0.70190 0.18330 0.83150 -0.03400
C 	C 	0.74430 0.04642 0.17770 0.07600
H 	H 	0.72790 0.02330 0.13900 -0.05100
C 	C 	0.72860 0.09097 0.28440 0.09900
H 	H 	0.69850 0.10670 0.33840 -0.03600
C 	C 	0.75480 0.08130 0.89830 0.10900
H 	H 	0.77020 0.10880 0.91010 -0.00800
C 	C 	0.77230 0.01959 0.89930 0.11300
H 	H 	0.80320 0.99330 0.91150 0.00900
N 	N 	0.84360 0.18902 0.31020 -0.20700
N 	N 	0.83990 0.20083 0.40730 -0.22200
N 	N 	0.66830 0.22705 0.33080 -0.27700
N 	N 	0.84440 0.16898 0.63540 -0.20700
N 	N 	0.83870 0.18806 0.72490 -0.20300
N 	N 	0.66590 0.14787 0.71390 -0.26100
N 	N 	0.84450 0.06994 0.16320 -0.21400
N 	N 	0.83500 0.09931 0.23340 -0.20600
N 	N 	0.66690 0.05812 0.25260 -0.25900
N 	N 	0.65460 0.06806 0.84690 -0.22400
N 	N 	0.66550 0.02736 0.84800 -0.21200
N 	N 	0.83270 0.05247 0.93230 -0.20700
N 	N 	0.02320 0.09068 0.45170 -0.54600
O 	O 	0.97140 0.12345 0.42990 0.87200
O 	O 	0.96500 0.05910 0.42930 0.03800
O 	O 	0.12780 0.08830 0.49350 0.03900
C 	C 	0.24100 0.70500 0.26780 0.07500
H 	H 	0.21990 0.70140 0.19980 -0.09800
C 	C 	0.23490 0.72347 0.41500 0.08300
H 	H 	0.20930 0.73600 0.47520 -0.06500
C 	C 	0.23990 0.64553 0.63200 0.08200
H 	H 	0.21970 0.62880 0.57720 -0.02600
C 	C 	0.23050 0.67465 0.76800 0.08600
H 	H 	0.20190 0.68330 0.83150 -0.06200
C 	C 	0.24430 0.54642 0.17770 0.06600
H 	H 	0.22790 0.52330 0.13900 -0.06400
C 	C 	0.22860 0.59097 0.28440 0.09700
H 	H 	0.19850 0.60670 0.33840 -0.03900
C 	C 	0.25480 0.58130 0.89830 0.09700
H 	H 	0.27020 0.60880 0.91010 -0.04000
C 	C 	0.27230 0.51959 0.89930 0.10200
H 	H 	0.30320 0.49330 0.91150 -0.00200
N 	N 	0.34360 0.68902 0.31020 -0.23100
N 	N 	0.33990 0.70083 0.40730 -0.23900
N 	N 	0.16830 0.72705 0.33080 -0.29400
N 	N 	0.34440 0.66898 0.63540 -0.23300
N 	N 	0.33870 0.68806 0.72490 -0.23900
N 	N 	0.16590 0.64787 0.71390 -0.27900
N 	N 	0.34450 0.56994 0.16320 -0.25000
N 	N 	0.33500 0.59931 0.23340 -0.22700
N 	N 	0.16690 0.55812 0.25260 -0.27400
N 	N 	0.15460 0.56806 0.84690 -0.24100
N 	N 	0.16550 0.52736 0.84800 -0.22300
N 	N 	0.33270 0.55247 0.93230 -0.23800
N 	N 	0.52320 0.59068 0.45170 0.06600
O 	O 	0.47140 0.62345 0.42990 -0.18600
O 	O 	0.46500 0.55910 0.42930 -0.08500
O 	O 	0.62780 0.58830 0.49350 -0.14600
Cd	Cd	-0.00000 0.06375 0.04167 1.10300
Cd	Cd	0.00000 0.14543 0.25019 1.14400
Cd	Cd	0.00000 0.18427 0.51934 1.12500
Cd	Cd	-0.00000 0.23077 0.78903 1.12600
C 	C 	-0.00000 0.15322 0.92680 0.19400
H 	H 	-0.00000 0.14010 0.86440 -0.10400
C 	C 	0.00000 0.19756 0.03530 -0.07000
H 	H 	0.00000 0.22280 0.06710 -0.06100
N 	N 	-0.00000 0.13417 0.01170 -0.33400
N 	N 	-0.00000 0.16310 0.08450 -0.25000
N 	N 	0.00000 0.19301 0.93640 -0.23100
Cd	Cd	0.50000 0.56375 0.04167 1.13800
Cd	Cd	0.50000 0.64543 0.25019 1.17900
Cd	Cd	0.50000 0.68427 0.51934 1.16600
Cd	Cd	0.50000 0.73077 0.78903 1.16100
C 	C 	0.50000 0.65322 0.92680 0.21100
H 	H 	0.50000 0.64010 0.86440 -0.07400
C 	C 	0.50000 0.69756 0.03530 -0.04800
H 	H 	0.50000 0.72280 0.06710 -0.03200
N 	N 	0.50000 0.63417 0.01170 -0.31000
N 	N 	0.50000 0.66310 0.08450 -0.22800
N 	N 	0.50000 0.69301 0.93640 -0.21000
Cd	Cd	0.00000 0.93625 0.54167 1.13600
Cd	Cd	-0.00000 0.85457 0.75019 1.14900
Cd	Cd	0.00000 0.81573 0.01934 1.08200
Cd	Cd	0.00000 0.76923 0.28903 1.11800
C 	C 	0.00000 0.84678 0.42680 0.06000
H 	H 	-0.00000 0.85990 0.36440 -0.07300
C 	C 	0.00000 0.80244 0.53530 0.06800
H 	H 	-0.00000 0.77720 0.56710 -0.07300
N 	N 	-0.00000 0.86583 0.51170 -0.24600
N 	N 	0.00000 0.83690 0.58450 -0.25800
N 	N 	-0.00000 0.80699 0.43640 -0.27900
Cd	Cd	0.50000 0.43625 0.54167 1.17200
Cd	Cd	0.50000 0.35457 0.75019 1.18300
Cd	Cd	0.50000 0.31573 0.01934 1.12400
Cd	Cd	0.50000 0.26923 0.28903 1.15400
C 	C 	0.50000 0.34678 0.42680 0.08000
H 	H 	0.50000 0.35990 0.36440 -0.04300
C 	C 	0.50000 0.30244 0.53530 0.08900
H 	H 	0.50000 0.27720 0.56710 -0.04400
N 	N 	0.50000 0.36583 0.51170 -0.22300
N 	N 	0.50000 0.33690 0.58450 -0.23600
N 	N 	0.50000 0.30699 0.43640 -0.25800
Cd	Cd	0.50000 0.01625 0.30399 1.17900
Cd	Cd	0.50000 0.10457 0.76184 1.17400
C 	C 	0.50000 0.93230 0.03160 -0.01200
H 	H 	0.50000 0.90630 0.00310 -0.04100
C 	C 	0.50000 0.99343 0.04770 -0.02900
H 	H 	0.50000 0.02110 0.03250 -0.04200
N 	N 	0.50000 0.93831 0.12870 -0.22000
N 	N 	0.50000 0.97966 0.13980 -0.19100
N 	N 	0.50000 0.96502 0.97750 -0.12300
Cd	Cd	-0.00000 0.51625 0.30399 1.14600
Cd	Cd	0.00000 0.60457 0.76184 1.13700
C 	C 	-0.00000 0.43230 0.03160 -0.03600
H 	H 	0.00000 0.40630 0.00310 -0.07200
C 	C 	0.00000 0.49343 0.04770 -0.05500
H 	H 	0.00000 0.52110 0.03250 -0.07300
N 	N 	0.00000 0.43831 0.12870 -0.24400
N 	N 	-0.00000 0.47966 0.13980 -0.21700
N 	N 	-0.00000 0.46502 0.97750 -0.14200
Cd	Cd	0.50000 0.98375 0.80399 1.18600
Cd	Cd	0.50000 0.89543 0.26184 1.16700
C 	C 	0.50000 0.06770 0.53160 0.11500
H 	H 	0.50000 0.09370 0.50310 -0.04000
C 	C 	0.50000 0.00657 0.54770 0.09000
H 	H 	0.50000 0.97890 0.53250 -0.03900
N 	N 	0.50000 0.06169 0.62870 -0.23100
N 	N 	0.50000 0.02034 0.63980 -0.20200
N 	N 	0.50000 0.03498 0.47750 -0.24500
Cd	Cd	-0.00000 0.48375 0.80399 1.15300
Cd	Cd	-0.00000 0.39543 0.26184 1.13000
C 	C 	-0.00000 0.56770 0.53160 0.09400
H 	H 	-0.00000 0.59370 0.50310 -0.07100
C 	C 	-0.00000 0.50657 0.54770 0.06800
H 	H 	-0.00000 0.47890 0.53250 -0.07100
N 	N 	-0.00000 0.56169 0.62870 -0.25500
N 	N 	-0.00000 0.52034 0.63980 -0.22800
N 	N 	-0.00000 0.53498 0.47750 -0.26800
