data_crystal

_cell_length_a 27.06300
_cell_length_b 27.06300
_cell_length_c 16.10700
_cell_angle_alpha 90.00000
_cell_angle_beta  90.00000
_cell_angle_gamma 120.00000

_symmetry_space_group_name_	'P 1'
_symmetry_space_group_name_H-M	'P 1'

loop_
_symmetry_equiv_pos_as_xyz
  x,y,z

loop_
_atom_site_label
_atom_site_type_symbol
_atom_site_fract_x
_atom_site_fract_y
_atom_site_fract_z
_atom_site_charge
O 	O 	0.19512 0.28390 0.25573 -0.48500
O 	O 	0.24271 0.37919 0.24220 -0.48000
C 	C 	0.28670 0.32749 0.19640 -0.10900
C 	C 	0.28620 0.27624 0.19540 -0.01000
H 	H 	0.25340 0.24260 0.21440 0.04500
C 	C 	0.23715 0.33070 0.23360 0.39800
C 	C 	0.31263 0.18280 0.09760 0.01200
C 	C 	0.29101 0.19710 0.02470 -0.05900
H 	H 	0.29060 0.23200 0.02330 0.05600
C 	C 	0.27150 0.16180 0.95860 -0.03000
H 	H 	0.25760 0.17220 0.91150 0.04600
O 	O 	0.86179 0.61723 0.58906 -0.48400
O 	O 	0.90938 0.71252 0.57553 -0.48000
C 	C 	0.95337 0.66082 0.52973 -0.10800
C 	C 	0.95287 0.60957 0.52873 -0.01000
H 	H 	0.92007 0.57593 0.54773 0.04500
C 	C 	0.90382 0.66403 0.56693 0.39700
C 	C 	0.97930 0.51613 0.43093 0.01100
C 	C 	0.95768 0.53043 0.35803 -0.06100
H 	H 	0.95727 0.56533 0.35663 0.05500
C 	C 	0.93817 0.49513 0.29193 -0.03100
H 	H 	0.92427 0.50553 0.24483 0.04500
O 	O 	0.52845 0.95057 0.92240 -0.48500
O 	O 	0.57604 0.04586 0.90887 -0.48300
C 	C 	0.62003 0.99416 0.86307 -0.10800
C 	C 	0.61953 0.94291 0.86207 -0.01100
H 	H 	0.58673 0.90927 0.88107 0.04400
C 	C 	0.57048 0.99737 0.90027 0.39900
C 	C 	0.64596 0.84947 0.76427 0.01100
C 	C 	0.62434 0.86377 0.69137 -0.06100
H 	H 	0.62393 0.89867 0.68997 0.05500
C 	C 	0.60483 0.82847 0.62527 -0.03100
H 	H 	0.59093 0.83887 0.57817 0.04500
O 	O 	0.71610 0.91122 0.25573 -0.48500
O 	O 	0.62081 0.86352 0.24220 -0.48100
C 	C 	0.67251 0.95921 0.19640 -0.10900
C 	C 	0.72376 0.00996 0.19540 -0.01200
H 	H 	0.75740 0.01080 0.21440 0.04400
C 	C 	0.66930 0.90645 0.23360 0.39700
C 	C 	0.81720 0.12983 0.09760 0.01100
C 	C 	0.80290 0.09391 0.02470 -0.05800
H 	H 	0.76800 0.05860 0.02330 0.05500
C 	C 	0.83820 0.10970 0.95860 -0.03300
H 	H 	0.82780 0.08540 0.91150 0.04500
O 	O 	0.38277 0.24455 0.58906 -0.48600
O 	O 	0.28748 0.19685 0.57553 -0.48100
C 	C 	0.33918 0.29254 0.52973 -0.11000
C 	C 	0.39043 0.34329 0.52873 -0.01100
H 	H 	0.42407 0.34413 0.54773 0.04400
C 	C 	0.33597 0.23978 0.56693 0.39700
C 	C 	0.48387 0.46316 0.43093 0.01100
C 	C 	0.46957 0.42724 0.35803 -0.06100
H 	H 	0.43467 0.39193 0.35663 0.05500
C 	C 	0.50487 0.44303 0.29193 -0.03100
H 	H 	0.49447 0.41873 0.24483 0.04500
O 	O 	0.04943 0.57789 0.92240 -0.48500
O 	O 	0.95414 0.53019 0.90887 -0.48200
C 	C 	0.00584 0.62588 0.86307 -0.10900
C 	C 	0.05709 0.67663 0.86207 -0.01100
H 	H 	0.09073 0.67747 0.88107 0.04500
C 	C 	0.00263 0.57312 0.90027 0.39700
C 	C 	0.15053 0.79650 0.76427 0.01100
C 	C 	0.13623 0.76058 0.69137 -0.06100
H 	H 	0.10133 0.72527 0.68997 0.05500
C 	C 	0.17153 0.77637 0.62527 -0.03100
H 	H 	0.16113 0.75207 0.57817 0.04500
O 	O 	0.08878 0.80488 0.25573 -0.48600
O 	O 	0.13648 0.75729 0.24220 -0.48100
C 	C 	0.04079 0.71330 0.19640 -0.11100
C 	C 	0.99004 0.71380 0.19540 -0.01000
H 	H 	0.98920 0.74660 0.21440 0.04400
C 	C 	0.09355 0.76285 0.23360 0.39700
C 	C 	0.87017 0.68737 0.09760 0.01100
C 	C 	0.90609 0.70899 0.02470 -0.06000
H 	H 	0.94140 0.70940 0.02330 0.05500
C 	C 	0.89030 0.72850 0.95860 -0.03200
H 	H 	0.91460 0.74240 0.91150 0.04600
O 	O 	0.75545 0.13821 0.58906 -0.48600
O 	O 	0.80315 0.09062 0.57553 -0.48100
C 	C 	0.70746 0.04663 0.52973 -0.10900
C 	C 	0.65671 0.04713 0.52873 -0.01100
H 	H 	0.65587 0.07993 0.54773 0.04400
C 	C 	0.76022 0.09618 0.56693 0.39700
C 	C 	0.53684 0.02070 0.43093 0.01100
C 	C 	0.57276 0.04232 0.35803 -0.06100
H 	H 	0.60807 0.04273 0.35663 0.05500
C 	C 	0.55697 0.06183 0.29193 -0.03100
H 	H 	0.58127 0.07573 0.24483 0.04500
O 	O 	0.42211 0.47155 0.92240 -0.48500
O 	O 	0.46981 0.42396 0.90887 -0.48100
C 	C 	0.37412 0.37997 0.86307 -0.11000
C 	C 	0.32337 0.38047 0.86207 -0.01100
H 	H 	0.32253 0.41327 0.88107 0.04400
C 	C 	0.42688 0.42952 0.90027 0.39700
C 	C 	0.20350 0.35404 0.76427 0.01100
C 	C 	0.23942 0.37566 0.69137 -0.06100
H 	H 	0.27473 0.37607 0.68997 0.05500
C 	C 	0.22363 0.39517 0.62527 -0.03100
H 	H 	0.24793 0.40907 0.57817 0.04500
O 	O 	0.28390 0.19512 0.74427 -0.48600
O 	O 	0.37919 0.24271 0.75780 -0.48100
C 	C 	0.32749 0.28670 0.80360 -0.11000
C 	C 	0.27624 0.28620 0.80460 -0.01100
H 	H 	0.24260 0.25340 0.78560 0.04400
C 	C 	0.33070 0.23715 0.76640 0.39700
C 	C 	0.18280 0.31263 0.90240 0.01100
C 	C 	0.19710 0.29101 0.97530 -0.06000
H 	H 	0.23200 0.29060 0.97670 0.05500
C 	C 	0.16180 0.27150 0.04140 -0.03100
H 	H 	0.17220 0.25760 0.08850 0.04500
O 	O 	0.95057 0.52845 0.07760 -0.48500
O 	O 	0.04586 0.57604 0.09113 -0.48200
C 	C 	0.99416 0.62003 0.13693 -0.10900
C 	C 	0.94291 0.61953 0.13793 -0.01100
H 	H 	0.90927 0.58673 0.11893 0.04400
C 	C 	0.99737 0.57048 0.09973 0.39800
C 	C 	0.84947 0.64596 0.23573 0.01100
C 	C 	0.86377 0.62434 0.30863 -0.06100
H 	H 	0.89867 0.62393 0.31003 0.05500
C 	C 	0.82847 0.60483 0.37473 -0.03100
H 	H 	0.83887 0.59093 0.42183 0.04500
O 	O 	0.61723 0.86179 0.41094 -0.48500
O 	O 	0.71252 0.90938 0.42447 -0.48100
C 	C 	0.66082 0.95337 0.47027 -0.10800
C 	C 	0.60957 0.95287 0.47127 -0.01000
H 	H 	0.57593 0.92007 0.45227 0.04400
C 	C 	0.66403 0.90382 0.43307 0.39700
C 	C 	0.51613 0.97930 0.56907 0.01200
C 	C 	0.53043 0.95768 0.64197 -0.06100
H 	H 	0.56533 0.95727 0.64337 0.05600
C 	C 	0.49513 0.93817 0.70807 -0.03100
H 	H 	0.50553 0.92427 0.75517 0.04500
O 	O 	0.91122 0.71610 0.74427 -0.48600
O 	O 	0.86352 0.62081 0.75780 -0.48100
C 	C 	0.95921 0.67251 0.80360 -0.11000
C 	C 	0.00996 0.72376 0.80460 -0.01100
H 	H 	0.01080 0.75740 0.78560 0.04400
C 	C 	0.90645 0.66930 0.76640 0.39700
C 	C 	0.12983 0.81720 0.90240 0.01100
C 	C 	0.09391 0.80290 0.97530 -0.05800
H 	H 	0.05860 0.76800 0.97670 0.05500
C 	C 	0.10970 0.83820 0.04140 -0.03300
H 	H 	0.08540 0.82780 0.08850 0.04600
O 	O 	0.57789 0.04943 0.07760 -0.48500
O 	O 	0.53019 0.95414 0.09113 -0.48100
C 	C 	0.62588 0.00584 0.13693 -0.11000
C 	C 	0.67663 0.05709 0.13793 -0.01100
H 	H 	0.67747 0.09073 0.11893 0.04500
C 	C 	0.57312 0.00263 0.09973 0.39600
C 	C 	0.79650 0.15053 0.23573 0.01100
C 	C 	0.76058 0.13623 0.30863 -0.06100
H 	H 	0.72527 0.10133 0.31003 0.05500
C 	C 	0.77637 0.17153 0.37473 -0.03100
H 	H 	0.75207 0.16113 0.42183 0.04500
O 	O 	0.24455 0.38277 0.41094 -0.48600
O 	O 	0.19685 0.28748 0.42447 -0.48100
C 	C 	0.29254 0.33918 0.47027 -0.11000
C 	C 	0.34329 0.39043 0.47127 -0.01100
H 	H 	0.34413 0.42407 0.45227 0.04400
C 	C 	0.23978 0.33597 0.43307 0.39700
C 	C 	0.46316 0.48387 0.56907 0.01100
C 	C 	0.42724 0.46957 0.64197 -0.06100
H 	H 	0.39193 0.43467 0.64337 0.05500
C 	C 	0.44303 0.50487 0.70807 -0.03100
H 	H 	0.41873 0.49447 0.75517 0.04500
O 	O 	0.80488 0.08878 0.74427 -0.48600
O 	O 	0.75729 0.13648 0.75780 -0.48100
C 	C 	0.71330 0.04079 0.80360 -0.11200
C 	C 	0.71380 0.99004 0.80460 -0.00800
H 	H 	0.74660 0.98920 0.78560 0.04400
C 	C 	0.76285 0.09355 0.76640 0.39700
C 	C 	0.68737 0.87017 0.90240 0.01100
C 	C 	0.70899 0.90609 0.97530 -0.06000
H 	H 	0.70940 0.94140 0.97670 0.05500
C 	C 	0.72850 0.89030 0.04140 -0.03200
H 	H 	0.74240 0.91460 0.08850 0.04600
O 	O 	0.47155 0.42211 0.07760 -0.48500
O 	O 	0.42396 0.46981 0.09113 -0.48100
C 	C 	0.37997 0.37412 0.13693 -0.11000
C 	C 	0.38047 0.32337 0.13793 -0.01100
H 	H 	0.41327 0.32253 0.11893 0.04400
C 	C 	0.42952 0.42688 0.09973 0.39700
C 	C 	0.35404 0.20350 0.23573 0.01100
C 	C 	0.37566 0.23942 0.30863 -0.06100
H 	H 	0.37607 0.27473 0.31003 0.05500
C 	C 	0.39517 0.22363 0.37473 -0.03100
H 	H 	0.40907 0.24793 0.42183 0.04500
O 	O 	0.13821 0.75545 0.41094 -0.48600
O 	O 	0.09062 0.80315 0.42447 -0.48100
C 	C 	0.04663 0.70746 0.47027 -0.10900
C 	C 	0.04713 0.65671 0.47127 -0.01200
H 	H 	0.07993 0.65587 0.45227 0.04400
C 	C 	0.09618 0.76022 0.43307 0.39700
C 	C 	0.02070 0.53684 0.56907 0.01100
C 	C 	0.04232 0.57276 0.64197 -0.06100
H 	H 	0.04273 0.60807 0.64337 0.05500
C 	C 	0.06183 0.55697 0.70807 -0.03100
H 	H 	0.07573 0.58127 0.75517 0.04500
O 	O 	0.80488 0.71610 0.74427 -0.48500
O 	O 	0.75729 0.62081 0.75780 -0.48100
C 	C 	0.71330 0.67251 0.80360 -0.11000
C 	C 	0.71380 0.72376 0.80460 -0.01100
H 	H 	0.74660 0.75740 0.78560 0.04400
C 	C 	0.76285 0.66930 0.76640 0.39700
C 	C 	0.68737 0.81720 0.90240 0.01100
C 	C 	0.70899 0.80290 0.97530 -0.06000
H 	H 	0.70940 0.76800 0.97670 0.05500
C 	C 	0.72850 0.83820 0.04140 -0.03100
H 	H 	0.74240 0.82780 0.08850 0.04500
O 	O 	0.47155 0.04943 0.07760 -0.48500
O 	O 	0.42396 0.95414 0.09113 -0.48100
C 	C 	0.37997 0.00584 0.13693 -0.11000
C 	C 	0.38047 0.05709 0.13793 -0.01100
H 	H 	0.41327 0.09073 0.11893 0.04400
C 	C 	0.42952 0.00263 0.09973 0.39600
C 	C 	0.35404 0.15053 0.23573 0.01100
C 	C 	0.37566 0.13623 0.30863 -0.06100
H 	H 	0.37607 0.10133 0.31003 0.05500
C 	C 	0.39517 0.17153 0.37473 -0.03100
H 	H 	0.40907 0.16113 0.42183 0.04500
O 	O 	0.13821 0.38277 0.41094 -0.48600
O 	O 	0.09062 0.28748 0.42447 -0.48100
C 	C 	0.04663 0.33918 0.47027 -0.11000
C 	C 	0.04713 0.39043 0.47127 -0.01100
H 	H 	0.07993 0.42407 0.45227 0.04400
C 	C 	0.09618 0.33597 0.43307 0.39700
C 	C 	0.02070 0.48387 0.56907 0.01100
C 	C 	0.04232 0.46957 0.64197 -0.06100
H 	H 	0.04273 0.43467 0.64337 0.05500
C 	C 	0.06183 0.50487 0.70807 -0.03100
H 	H 	0.07573 0.49447 0.75517 0.04500
O 	O 	0.28390 0.08878 0.74427 -0.48600
O 	O 	0.37919 0.13648 0.75780 -0.48100
C 	C 	0.32749 0.04079 0.80360 -0.11200
C 	C 	0.27624 0.99004 0.80460 -0.00900
H 	H 	0.24260 0.98920 0.78560 0.04400
C 	C 	0.33070 0.09355 0.76640 0.39700
C 	C 	0.18280 0.87017 0.90240 0.01100
C 	C 	0.19710 0.90609 0.97530 -0.05800
H 	H 	0.23200 0.94140 0.97670 0.05500
C 	C 	0.16180 0.89030 0.04140 -0.03300
H 	H 	0.17220 0.91460 0.08850 0.04600
O 	O 	0.95057 0.42211 0.07760 -0.48500
O 	O 	0.04586 0.46981 0.09113 -0.48200
C 	C 	0.99416 0.37412 0.13693 -0.10900
C 	C 	0.94291 0.32337 0.13793 -0.01100
H 	H 	0.90927 0.32253 0.11893 0.04500
C 	C 	0.99737 0.42688 0.09973 0.39800
C 	C 	0.84947 0.20350 0.23573 0.01100
C 	C 	0.86377 0.23942 0.30863 -0.06100
H 	H 	0.89867 0.27473 0.31003 0.05500
C 	C 	0.82847 0.22363 0.37473 -0.03100
H 	H 	0.83887 0.24793 0.42183 0.04500
O 	O 	0.61723 0.75545 0.41094 -0.48600
O 	O 	0.71252 0.80315 0.42447 -0.48100
C 	C 	0.66082 0.70746 0.47027 -0.11000
C 	C 	0.60957 0.65671 0.47127 -0.01100
H 	H 	0.57593 0.65587 0.45227 0.04400
C 	C 	0.66403 0.76022 0.43307 0.39700
C 	C 	0.51613 0.53684 0.56907 0.01100
C 	C 	0.53043 0.57276 0.64197 -0.06100
H 	H 	0.56533 0.60807 0.64337 0.05500
C 	C 	0.49513 0.55697 0.70807 -0.03100
H 	H 	0.50553 0.58127 0.75517 0.04500
O 	O 	0.91122 0.19512 0.74427 -0.48600
O 	O 	0.86352 0.24271 0.75780 -0.48100
C 	C 	0.95921 0.28670 0.80360 -0.11000
C 	C 	0.00996 0.28620 0.80460 -0.01100
H 	H 	0.01080 0.25340 0.78560 0.04400
C 	C 	0.90645 0.23715 0.76640 0.39700
C 	C 	0.12983 0.31263 0.90240 0.01100
C 	C 	0.09391 0.29101 0.97530 -0.06000
H 	H 	0.05860 0.29060 0.97670 0.05500
C 	C 	0.10970 0.27150 0.04140 -0.03200
H 	H 	0.08540 0.25760 0.08850 0.04500
O 	O 	0.57789 0.52845 0.07760 -0.48500
O 	O 	0.53019 0.57604 0.09113 -0.48100
C 	C 	0.62588 0.62003 0.13693 -0.11000
C 	C 	0.67663 0.61953 0.13793 -0.01100
H 	H 	0.67747 0.58673 0.11893 0.04400
C 	C 	0.57312 0.57048 0.09973 0.39700
C 	C 	0.79650 0.64596 0.23573 0.01100
C 	C 	0.76058 0.62434 0.30863 -0.06100
H 	H 	0.72527 0.62393 0.31003 0.05500
C 	C 	0.77637 0.60483 0.37473 -0.03100
H 	H 	0.75207 0.59093 0.42183 0.04500
O 	O 	0.24455 0.86179 0.41094 -0.48500
O 	O 	0.19685 0.90938 0.42447 -0.48100
C 	C 	0.29254 0.95337 0.47027 -0.10900
C 	C 	0.34329 0.95287 0.47127 -0.01000
H 	H 	0.34413 0.92007 0.45227 0.04400
C 	C 	0.23978 0.90382 0.43307 0.39700
C 	C 	0.46316 0.97930 0.56907 0.01200
C 	C 	0.42724 0.95768 0.64197 -0.06100
H 	H 	0.39193 0.95727 0.64337 0.05600
C 	C 	0.44303 0.93817 0.70807 -0.03100
H 	H 	0.41873 0.92427 0.75517 0.04500
O 	O 	0.71610 0.80488 0.25573 -0.48500
O 	O 	0.62081 0.75729 0.24220 -0.48100
C 	C 	0.67251 0.71330 0.19640 -0.11000
C 	C 	0.72376 0.71380 0.19540 -0.01100
H 	H 	0.75740 0.74660 0.21440 0.04400
C 	C 	0.66930 0.76285 0.23360 0.39700
C 	C 	0.81720 0.68737 0.09760 0.01100
C 	C 	0.80290 0.70899 0.02470 -0.06000
H 	H 	0.76800 0.70940 0.02330 0.05500
C 	C 	0.83820 0.72850 0.95860 -0.03100
H 	H 	0.82780 0.74240 0.91150 0.04500
O 	O 	0.38277 0.13821 0.58906 -0.48600
O 	O 	0.28748 0.09062 0.57553 -0.48100
C 	C 	0.33918 0.04663 0.52973 -0.10900
C 	C 	0.39043 0.04713 0.52873 -0.01100
H 	H 	0.42407 0.07993 0.54773 0.04400
C 	C 	0.33597 0.09618 0.56693 0.39700
C 	C 	0.48387 0.02070 0.43093 0.01100
C 	C 	0.46957 0.04232 0.35803 -0.06100
H 	H 	0.43467 0.04273 0.35663 0.05500
C 	C 	0.50487 0.06183 0.29193 -0.03100
H 	H 	0.49447 0.07573 0.24483 0.04500
O 	O 	0.04943 0.47155 0.92240 -0.48500
O 	O 	0.95414 0.42396 0.90887 -0.48200
C 	C 	0.00584 0.37997 0.86307 -0.10900
C 	C 	0.05709 0.38047 0.86207 -0.01100
H 	H 	0.09073 0.41327 0.88107 0.04400
C 	C 	0.00263 0.42952 0.90027 0.39700
C 	C 	0.15053 0.35404 0.76427 0.01100
C 	C 	0.13623 0.37566 0.69137 -0.06100
H 	H 	0.10133 0.37607 0.68997 0.05500
C 	C 	0.17153 0.39517 0.62527 -0.03100
H 	H 	0.16113 0.40907 0.57817 0.04500
O 	O 	0.08878 0.28390 0.25573 -0.48600
O 	O 	0.13648 0.37919 0.24220 -0.48100
C 	C 	0.04079 0.32749 0.19640 -0.11100
C 	C 	0.99004 0.27624 0.19540 -0.01000
H 	H 	0.98920 0.24260 0.21440 0.04400
C 	C 	0.09355 0.33070 0.23360 0.39700
C 	C 	0.87017 0.18280 0.09760 0.01100
C 	C 	0.90609 0.19710 0.02470 -0.05800
H 	H 	0.94140 0.23200 0.02330 0.05500
C 	C 	0.89030 0.16180 0.95860 -0.03300
H 	H 	0.91460 0.17220 0.91150 0.04600
O 	O 	0.75545 0.61723 0.58906 -0.48600
O 	O 	0.80315 0.71252 0.57553 -0.48100
C 	C 	0.70746 0.66082 0.52973 -0.11000
C 	C 	0.65671 0.60957 0.52873 -0.01100
H 	H 	0.65587 0.57593 0.54773 0.04400
C 	C 	0.76022 0.66403 0.56693 0.39700
C 	C 	0.53684 0.51613 0.43093 0.01100
C 	C 	0.57276 0.53043 0.35803 -0.06100
H 	H 	0.60807 0.56533 0.35663 0.05500
C 	C 	0.55697 0.49513 0.29193 -0.03100
H 	H 	0.58127 0.50553 0.24483 0.04500
O 	O 	0.42211 0.95057 0.92240 -0.48500
O 	O 	0.46981 0.04586 0.90887 -0.48300
C 	C 	0.37412 0.99416 0.86307 -0.10800
C 	C 	0.32337 0.94291 0.86207 -0.01100
H 	H 	0.32253 0.90927 0.88107 0.04500
C 	C 	0.42688 0.99737 0.90027 0.39900
C 	C 	0.20350 0.84947 0.76427 0.01100
C 	C 	0.23942 0.86377 0.69137 -0.06100
H 	H 	0.27473 0.89867 0.68997 0.05500
C 	C 	0.22363 0.82847 0.62527 -0.03100
H 	H 	0.24793 0.83887 0.57817 0.04500
O 	O 	0.19512 0.91122 0.25573 -0.48500
O 	O 	0.24271 0.86352 0.24220 -0.48100
C 	C 	0.28670 0.95921 0.19640 -0.10900
C 	C 	0.28620 0.00996 0.19540 -0.01200
H 	H 	0.25340 0.01080 0.21440 0.04400
C 	C 	0.23715 0.90645 0.23360 0.39700
C 	C 	0.31263 0.12983 0.09760 0.01100
C 	C 	0.29101 0.09391 0.02470 -0.06000
H 	H 	0.29060 0.05860 0.02330 0.05500
C 	C 	0.27150 0.10970 0.95860 -0.03200
H 	H 	0.25760 0.08540 0.91150 0.04500
O 	O 	0.86179 0.24455 0.58906 -0.48600
O 	O 	0.90938 0.19685 0.57553 -0.48100
C 	C 	0.95337 0.29254 0.52973 -0.11000
C 	C 	0.95287 0.34329 0.52873 -0.01100
H 	H 	0.92007 0.34413 0.54773 0.04400
C 	C 	0.90382 0.23978 0.56693 0.39700
C 	C 	0.97930 0.46316 0.43093 0.01100
C 	C 	0.95768 0.42724 0.35803 -0.06100
H 	H 	0.95727 0.39193 0.35663 0.05500
C 	C 	0.93817 0.44303 0.29193 -0.03100
H 	H 	0.92427 0.41873 0.24483 0.04500
O 	O 	0.52845 0.57789 0.92240 -0.48500
O 	O 	0.57604 0.53019 0.90887 -0.48100
C 	C 	0.62003 0.62588 0.86307 -0.11000
C 	C 	0.61953 0.67663 0.86207 -0.01100
H 	H 	0.58673 0.67747 0.88107 0.04400
C 	C 	0.57048 0.57312 0.90027 0.39700
C 	C 	0.64596 0.79650 0.76427 0.01100
C 	C 	0.62434 0.76058 0.69137 -0.06100
H 	H 	0.62393 0.72527 0.68997 0.05500
C 	C 	0.60483 0.77637 0.62527 -0.03100
H 	H 	0.59093 0.75207 0.57817 0.04500
Zn	Zn	0.13443 0.26886 0.34117 1.20000
Zn	Zn	0.80110 0.60219 0.67450 1.20000
Zn	Zn	0.46776 0.93553 0.00784 1.20000
Zn	Zn	0.73114 0.86557 0.34117 1.20000
Zn	Zn	0.39781 0.19890 0.67450 1.20000
Zn	Zn	0.06447 0.53224 0.00784 1.20000
Zn	Zn	0.13443 0.86557 0.34117 1.20000
Zn	Zn	0.80110 0.19890 0.67450 1.20000
Zn	Zn	0.46776 0.53224 0.00784 1.20000
Zn	Zn	0.26886 0.13443 0.65883 1.20000
Zn	Zn	0.93553 0.46776 0.99216 1.20000
Zn	Zn	0.60219 0.80110 0.32550 1.20000
Zn	Zn	0.86557 0.73114 0.65883 1.20000
Zn	Zn	0.53224 0.06447 0.99216 1.20000
Zn	Zn	0.19890 0.39781 0.32550 1.20000
Zn	Zn	0.86557 0.13443 0.65883 1.20000
Zn	Zn	0.53224 0.46776 0.99216 1.20000
Zn	Zn	0.19890 0.80110 0.32550 1.20000
C 	C 	0.33333 0.37662 0.16667 0.04600
H 	H 	0.33333 0.41172 0.16667 0.03500
C 	C 	0.33333 0.27331 0.16667 -0.00100
C 	C 	0.33333 0.21847 0.16667 -0.02700
C 	C 	-0.00000 0.70995 0.50000 0.04400
H 	H 	1.00000 0.74505 0.50000 0.03600
C 	C 	-0.00000 0.60664 0.50000 -0.00100
C 	C 	0.00000 0.55180 0.50000 -0.02700
C 	C 	0.62338 0.95672 0.16667 0.04600
H 	H 	0.58828 0.92162 0.16667 0.03500
C 	C 	0.72669 0.06003 0.16667 -0.00100
C 	C 	0.78153 0.11487 0.16667 -0.02700
C 	C 	0.29005 0.29005 0.50000 0.04600
H 	H 	0.25495 0.25495 0.50000 0.03500
C 	C 	0.39336 0.39336 0.50000 -0.00100
C 	C 	0.44820 0.44820 0.50000 -0.02700
C 	C 	0.04328 0.66667 0.16667 0.04500
H 	H 	0.07838 0.66667 0.16667 0.03500
C 	C 	0.93997 0.66667 0.16667 -0.00200
C 	C 	0.88513 0.66667 0.16667 -0.02600
C 	C 	0.70995 0.00000 0.50000 0.04400
H 	H 	0.74505 0.00000 0.50000 0.03500
C 	C 	0.60664 0.00000 0.50000 -0.00200
C 	C 	0.55180 0.00000 0.50000 -0.02800
C 	C 	0.37662 0.33333 0.83333 0.04600
H 	H 	0.41172 0.33333 0.83333 0.03500
C 	C 	0.27331 0.33333 0.83333 -0.00100
C 	C 	0.21847 0.33333 0.83333 -0.02700
C 	C 	0.95672 0.62338 0.83333 0.04500
H 	H 	0.92162 0.58828 0.83333 0.03500
C 	C 	0.06003 0.72669 0.83333 -0.00100
C 	C 	0.11487 0.78153 0.83333 -0.02600
C 	C 	0.66667 0.04328 0.83333 0.04400
H 	H 	0.66667 0.07838 0.83333 0.03500
C 	C 	0.66667 0.93997 0.83333 -0.00200
C 	C 	0.66667 0.88513 0.83333 -0.02600
C 	C 	0.66667 0.62338 0.83333 0.04600
H 	H 	0.66667 0.58828 0.83333 0.03500
C 	C 	0.66667 0.72669 0.83333 -0.00100
C 	C 	0.66667 0.78153 0.83333 -0.02700
C 	C 	0.33333 0.95672 0.16667 0.04600
H 	H 	0.33333 0.92162 0.16667 0.03500
C 	C 	0.33333 0.06003 0.16667 -0.00100
C 	C 	0.33333 0.11487 0.16667 -0.02700
C 	C 	0.37662 0.04328 0.83333 0.04400
H 	H 	0.41172 0.07838 0.83333 0.03600
C 	C 	0.27331 0.93997 0.83333 -0.00200
C 	C 	0.21847 0.88513 0.83333 -0.02600
C 	C 	0.70995 0.70995 0.50000 0.04600
H 	H 	0.74505 0.74505 0.50000 0.03500
C 	C 	0.60664 0.60664 0.50000 -0.00100
C 	C 	0.55180 0.55180 0.50000 -0.02700
C 	C 	0.95672 0.33333 0.83333 0.04500
H 	H 	0.92162 0.33333 0.83333 0.03500
C 	C 	0.06003 0.33333 0.83333 -0.00100
C 	C 	0.11487 0.33333 0.83333 -0.02600
C 	C 	0.62338 0.66667 0.16667 0.04600
H 	H 	0.58828 0.66667 0.16667 0.03500
C 	C 	0.72669 0.66667 0.16667 -0.00100
C 	C 	0.78153 0.66667 0.16667 -0.02700
C 	C 	0.29005 0.00000 0.50000 0.04400
H 	H 	0.25495 0.00000 0.50000 0.03500
C 	C 	0.39336 0.00000 0.50000 -0.00200
C 	C 	0.44820 0.00000 0.50000 -0.02800
C 	C 	0.04328 0.37662 0.16667 0.04500
H 	H 	0.07838 0.41172 0.16667 0.03500
C 	C 	0.93997 0.27331 0.16667 -0.00200
C 	C 	0.88513 0.21847 0.16667 -0.02600
C 	C 	0.00000 0.29005 0.50000 0.04600
H 	H 	-0.00000 0.25495 0.50000 0.03500
C 	C 	0.00000 0.39336 0.50000 -0.00200
C 	C 	-0.00000 0.44820 0.50000 -0.02700
