data_crystal

_cell_length_a 26.84600
_cell_length_b 27.17800
_cell_length_c 9.76600
_cell_angle_alpha 90.00000
_cell_angle_beta  90.00000
_cell_angle_gamma 90.00000

_symmetry_space_group_name_	'P 1'
_symmetry_space_group_name_H-M	'P 1'

loop_
_symmetry_equiv_pos_as_xyz
  x,y,z

loop_
_atom_site_label
_atom_site_type_symbol
_atom_site_fract_x
_atom_site_fract_y
_atom_site_fract_z
_atom_site_charge
O 	O 	0.90100 0.31090 0.96990 -0.55000
C 	C 	0.92830 0.33120 0.87600 0.47100
O 	O 	0.96140 0.31057 0.81580 -0.52700
C 	C 	0.91540 0.38310 0.83540 -0.20700
C 	C 	0.87720 0.40850 0.89850 0.20500
C 	C 	0.94400 0.40550 0.73700 0.05000
H 	H 	0.85820 0.39290 0.96800 -0.02200
C 	C 	0.86710 0.45430 0.86300 -0.28700
C 	C 	0.93530 0.45330 0.69660 -0.03700
H 	H 	0.97040 0.38760 0.69570 0.03100
C 	C 	0.89750 0.47820 0.75630 0.02700
C 	C 	0.82420 0.47670 0.93990 -0.06200
C 	C 	0.96750 0.47630 0.59470 -0.01200
C 	C 	0.22320 0.29490 0.28220 0.00900
H 	H 	0.89050 0.51110 0.72940 0.02100
O 	O 	0.80640 0.51420 0.90710 -0.48000
O 	O 	0.80530 0.45970 0.03700 -0.18200
C 	C 	0.01550 0.49270 0.63430 0.00500
C 	C 	0.95240 0.48550 0.46000 0.01200
C 	C 	0.19750 0.33920 0.27870 -0.05800
C 	C 	0.03270 0.48570 0.77430 -0.05500
C 	C 	0.90460 0.46830 0.41160 -0.07400
H 	H 	0.16220 0.34010 0.28250 0.05700
C 	C 	0.22470 0.38130 0.27000 -0.04000
H 	H 	0.01140 0.47090 0.84010 0.05200
C 	C 	0.07940 0.50040 0.81090 -0.04400
H 	H 	0.88310 0.45090 0.47180 0.04900
C 	C 	0.89060 0.47670 0.28260 -0.02300
H 	H 	0.20770 0.41190 0.26310 0.07200
H 	H 	0.09110 0.49480 0.90130 0.03400
H 	H 	0.85830 0.46630 0.25450 0.00700
O 	O 	0.83200 0.53890 0.86210 -0.26500
O 	O 	0.80780 0.48140 0.97930 -0.22600
C 	C 	0.83530 0.49800 0.89800 0.81100
O 	O 	0.59900 0.18910 0.96990 -0.55200
C 	C 	0.57170 0.16880 0.87600 0.47000
O 	O 	0.53860 0.18943 0.81580 -0.52800
C 	C 	0.58460 0.11690 0.83540 -0.20700
C 	C 	0.62280 0.09150 0.89850 0.20300
C 	C 	0.55600 0.09450 0.73700 0.04800
H 	H 	0.64180 0.10710 0.96800 -0.02300
C 	C 	0.63290 0.04570 0.86300 -0.28700
C 	C 	0.56470 0.04670 0.69660 -0.03700
H 	H 	0.52960 0.11240 0.69570 0.03000
C 	C 	0.60250 0.02180 0.75630 0.02500
C 	C 	0.67580 0.02330 0.93990 -0.06600
C 	C 	0.53250 0.02370 0.59470 -0.01300
C 	C 	0.27680 0.20510 0.28220 0.00900
H 	H 	0.60950 0.98890 0.72940 0.02200
O 	O 	0.69360 0.98580 0.90710 -0.47800
O 	O 	0.69470 0.04030 0.03700 -0.18000
C 	C 	0.48450 0.00730 0.63430 0.00600
C 	C 	0.54760 0.01450 0.46000 0.01100
C 	C 	0.30250 0.16080 0.27870 -0.05800
C 	C 	0.46730 0.01430 0.77430 -0.05800
C 	C 	0.59540 0.03170 0.41160 -0.07200
H 	H 	0.33780 0.15990 0.28250 0.05700
C 	C 	0.27530 0.11870 0.27000 -0.04000
H 	H 	0.48860 0.02910 0.84010 0.05300
C 	C 	0.42060 0.99960 0.81090 -0.04000
H 	H 	0.61690 0.04910 0.47180 0.04900
C 	C 	0.60940 0.02330 0.28260 -0.02500
H 	H 	0.29230 0.08810 0.26310 0.07200
H 	H 	0.40890 0.00520 0.90130 0.03200
H 	H 	0.64170 0.03370 0.25450 0.00700
O 	O 	0.66800 0.96110 0.86210 -0.26500
O 	O 	0.69220 0.01860 0.97930 -0.22600
C 	C 	0.66470 0.00200 0.89800 0.81200
O 	O 	0.09900 0.81090 0.03010 -0.55100
C 	C 	0.07170 0.83120 0.12400 0.47000
O 	O 	0.03860 0.81057 0.18420 -0.52800
C 	C 	0.08460 0.88310 0.16460 -0.20700
C 	C 	0.12280 0.90850 0.10150 0.20200
C 	C 	0.05600 0.90550 0.26300 0.04700
H 	H 	0.14180 0.89290 0.03200 -0.02200
C 	C 	0.13290 0.95430 0.13700 -0.28600
C 	C 	0.06470 0.95330 0.30340 -0.03600
H 	H 	0.02960 0.88760 0.30430 0.03000
C 	C 	0.10250 0.97820 0.24370 0.02400
C 	C 	0.17580 0.97670 0.06010 -0.06600
C 	C 	0.03250 0.97630 0.40530 -0.01400
C 	C 	0.77680 0.79490 0.71780 0.00900
H 	H 	0.10950 0.01110 0.27060 0.02300
O 	O 	0.19360 0.01420 0.09290 -0.47700
O 	O 	0.19470 0.95970 0.96300 -0.18000
C 	C 	0.98450 0.99270 0.36570 0.00700
C 	C 	0.04760 0.98550 0.54000 0.01100
C 	C 	0.80250 0.83920 0.72130 -0.05800
C 	C 	0.96730 0.98570 0.22570 -0.05700
C 	C 	0.09540 0.96830 0.58840 -0.07300
H 	H 	0.83780 0.84010 0.71750 0.05700
C 	C 	0.77530 0.88130 0.73000 -0.04000
H 	H 	0.98860 0.97090 0.15990 0.05300
C 	C 	0.92060 0.00040 0.18910 -0.04200
H 	H 	0.11690 0.95090 0.52820 0.04900
C 	C 	0.10940 0.97670 0.71740 -0.02400
H 	H 	0.79230 0.91190 0.73690 0.07200
H 	H 	0.90890 0.99480 0.09870 0.03300
H 	H 	0.14170 0.96630 0.74550 0.00700
O 	O 	0.16800 0.03890 0.13790 -0.26500
O 	O 	0.19220 0.98140 0.02070 -0.22500
C 	C 	0.16470 0.99800 0.10200 0.81100
O 	O 	0.40100 0.68910 0.03010 -0.55200
C 	C 	0.42830 0.66880 0.12400 0.47000
O 	O 	0.46140 0.68943 0.18420 -0.52800
C 	C 	0.41540 0.61690 0.16460 -0.20800
C 	C 	0.37720 0.59150 0.10150 0.20400
C 	C 	0.44400 0.59450 0.26300 0.04900
H 	H 	0.35820 0.60710 0.03200 -0.02300
C 	C 	0.36710 0.54570 0.13700 -0.28800
C 	C 	0.43530 0.54670 0.30340 -0.03800
H 	H 	0.47040 0.61240 0.30430 0.03000
C 	C 	0.39750 0.52180 0.24370 0.02700
C 	C 	0.32420 0.52330 0.06010 -0.06200
C 	C 	0.46750 0.52370 0.40530 -0.01300
C 	C 	0.72320 0.70510 0.71780 0.00900
H 	H 	0.39050 0.48890 0.27060 0.02100
O 	O 	0.30640 0.48580 0.09290 -0.48000
O 	O 	0.30530 0.54030 0.96300 -0.18100
C 	C 	0.51550 0.50730 0.36570 0.00500
C 	C 	0.45240 0.51450 0.54000 0.01200
C 	C 	0.69750 0.66080 0.72130 -0.05800
C 	C 	0.53270 0.51430 0.22570 -0.05500
C 	C 	0.40460 0.53170 0.58840 -0.07400
H 	H 	0.66220 0.65990 0.71750 0.05700
C 	C 	0.72470 0.61870 0.73000 -0.04000
H 	H 	0.51140 0.52910 0.15990 0.05200
C 	C 	0.57940 0.49960 0.18910 -0.04400
H 	H 	0.38310 0.54910 0.52820 0.04900
C 	C 	0.39060 0.52330 0.71740 -0.02300
H 	H 	0.70770 0.58810 0.73690 0.07200
H 	H 	0.59110 0.50520 0.09870 0.03400
H 	H 	0.35830 0.53370 0.74550 0.00700
O 	O 	0.33200 0.46110 0.13790 -0.26500
O 	O 	0.30780 0.51860 0.02070 -0.22600
C 	C 	0.33530 0.50200 0.10200 0.81200
O 	O 	0.09900 0.68910 0.03010 -0.55100
C 	C 	0.07170 0.66880 0.12400 0.47000
O 	O 	0.03860 0.68943 0.18420 -0.52800
C 	C 	0.08460 0.61690 0.16460 -0.20800
C 	C 	0.12280 0.59150 0.10150 0.20400
C 	C 	0.05600 0.59450 0.26300 0.04900
H 	H 	0.14180 0.60710 0.03200 -0.02300
C 	C 	0.13290 0.54570 0.13700 -0.28800
C 	C 	0.06470 0.54670 0.30340 -0.03800
H 	H 	0.02960 0.61240 0.30430 0.03000
C 	C 	0.10250 0.52180 0.24370 0.02700
C 	C 	0.17580 0.52330 0.06010 -0.06200
C 	C 	0.03250 0.52370 0.40530 -0.01200
C 	C 	0.77680 0.70510 0.71780 0.00900
H 	H 	0.10950 0.48890 0.27060 0.02100
O 	O 	0.19360 0.48580 0.09290 -0.48000
O 	O 	0.19470 0.54030 0.96300 -0.18200
C 	C 	0.98450 0.50730 0.36570 0.00500
C 	C 	0.04760 0.51450 0.54000 0.01200
C 	C 	0.80250 0.66080 0.72130 -0.05800
C 	C 	0.96730 0.51430 0.22570 -0.05500
C 	C 	0.09540 0.53170 0.58840 -0.07400
H 	H 	0.83780 0.65990 0.71750 0.05700
C 	C 	0.77530 0.61870 0.73000 -0.04000
H 	H 	0.98860 0.52910 0.15990 0.05200
C 	C 	0.92060 0.49960 0.18910 -0.04400
H 	H 	0.11690 0.54910 0.52820 0.04900
C 	C 	0.10940 0.52330 0.71740 -0.02300
H 	H 	0.79230 0.58810 0.73690 0.07200
H 	H 	0.90890 0.50520 0.09870 0.03400
H 	H 	0.14170 0.53370 0.74550 0.00700
O 	O 	0.16800 0.46110 0.13790 -0.26500
O 	O 	0.19220 0.51860 0.02070 -0.22600
C 	C 	0.16470 0.50200 0.10200 0.81100
O 	O 	0.40100 0.81090 0.03010 -0.55200
C 	C 	0.42830 0.83120 0.12400 0.47000
O 	O 	0.46140 0.81057 0.18420 -0.52800
C 	C 	0.41540 0.88310 0.16460 -0.20700
C 	C 	0.37720 0.90850 0.10150 0.20300
C 	C 	0.44400 0.90550 0.26300 0.04800
H 	H 	0.35820 0.89290 0.03200 -0.02300
C 	C 	0.36710 0.95430 0.13700 -0.28700
C 	C 	0.43530 0.95330 0.30340 -0.03700
H 	H 	0.47040 0.88760 0.30430 0.03000
C 	C 	0.39750 0.97820 0.24370 0.02500
C 	C 	0.32420 0.97670 0.06010 -0.06600
C 	C 	0.46750 0.97630 0.40530 -0.01300
C 	C 	0.72320 0.79490 0.71780 0.00900
H 	H 	0.39050 0.01110 0.27060 0.02200
O 	O 	0.30640 0.01420 0.09290 -0.47800
O 	O 	0.30530 0.95970 0.96300 -0.18000
C 	C 	0.51550 0.99270 0.36570 0.00600
C 	C 	0.45240 0.98550 0.54000 0.01100
C 	C 	0.69750 0.83920 0.72130 -0.05800
C 	C 	0.53270 0.98570 0.22570 -0.05800
C 	C 	0.40460 0.96830 0.58840 -0.07200
H 	H 	0.66220 0.84010 0.71750 0.05700
C 	C 	0.72470 0.88130 0.73000 -0.04000
H 	H 	0.51140 0.97090 0.15990 0.05300
C 	C 	0.57940 0.00040 0.18910 -0.04000
H 	H 	0.38310 0.95090 0.52820 0.04900
C 	C 	0.39060 0.97670 0.71740 -0.02500
H 	H 	0.70770 0.91190 0.73690 0.07200
H 	H 	0.59110 0.99480 0.09870 0.03200
H 	H 	0.35830 0.96630 0.74550 0.00700
O 	O 	0.33200 0.03890 0.13790 -0.26500
O 	O 	0.30780 0.98140 0.02070 -0.22600
C 	C 	0.33530 0.99800 0.10200 0.81200
O 	O 	0.90100 0.18910 0.96990 -0.55100
C 	C 	0.92830 0.16880 0.87600 0.47000
O 	O 	0.96140 0.18943 0.81580 -0.52800
C 	C 	0.91540 0.11690 0.83540 -0.20700
C 	C 	0.87720 0.09150 0.89850 0.20200
C 	C 	0.94400 0.09450 0.73700 0.04700
H 	H 	0.85820 0.10710 0.96800 -0.02200
C 	C 	0.86710 0.04570 0.86300 -0.28600
C 	C 	0.93530 0.04670 0.69660 -0.03600
H 	H 	0.97040 0.11240 0.69570 0.03000
C 	C 	0.89750 0.02180 0.75630 0.02400
C 	C 	0.82420 0.02330 0.93990 -0.06600
C 	C 	0.96750 0.02370 0.59470 -0.01400
C 	C 	0.22320 0.20510 0.28220 0.00900
H 	H 	0.89050 0.98890 0.72940 0.02300
O 	O 	0.80640 0.98580 0.90710 -0.47700
O 	O 	0.80530 0.04030 0.03700 -0.18000
C 	C 	0.01550 0.00730 0.63430 0.00700
C 	C 	0.95240 0.01450 0.46000 0.01100
C 	C 	0.19750 0.16080 0.27870 -0.05800
C 	C 	0.03270 0.01430 0.77430 -0.05700
C 	C 	0.90460 0.03170 0.41160 -0.07300
H 	H 	0.16220 0.15990 0.28250 0.05700
C 	C 	0.22470 0.11870 0.27000 -0.04000
H 	H 	0.01140 0.02910 0.84010 0.05300
C 	C 	0.07940 0.99960 0.81090 -0.04200
H 	H 	0.88310 0.04910 0.47180 0.04900
C 	C 	0.89060 0.02330 0.28260 -0.02400
H 	H 	0.20770 0.08810 0.26310 0.07200
H 	H 	0.09110 0.00520 0.90130 0.03300
H 	H 	0.85830 0.03370 0.25450 0.00700
O 	O 	0.83200 0.96110 0.86210 -0.26500
O 	O 	0.80780 0.01860 0.97930 -0.22500
C 	C 	0.83530 0.00200 0.89800 0.81100
O 	O 	0.59900 0.31090 0.96990 -0.55200
C 	C 	0.57170 0.33120 0.87600 0.47000
O 	O 	0.53860 0.31057 0.81580 -0.52800
C 	C 	0.58460 0.38310 0.83540 -0.20800
C 	C 	0.62280 0.40850 0.89850 0.20400
C 	C 	0.55600 0.40550 0.73700 0.04900
H 	H 	0.64180 0.39290 0.96800 -0.02300
C 	C 	0.63290 0.45430 0.86300 -0.28800
C 	C 	0.56470 0.45330 0.69660 -0.03800
H 	H 	0.52960 0.38760 0.69570 0.03000
C 	C 	0.60250 0.47820 0.75630 0.02700
C 	C 	0.67580 0.47670 0.93990 -0.06200
C 	C 	0.53250 0.47630 0.59470 -0.01300
C 	C 	0.27680 0.29490 0.28220 0.00900
H 	H 	0.60950 0.51110 0.72940 0.02100
O 	O 	0.69360 0.51420 0.90710 -0.48000
O 	O 	0.69470 0.45970 0.03700 -0.18100
C 	C 	0.48450 0.49270 0.63430 0.00500
C 	C 	0.54760 0.48550 0.46000 0.01200
C 	C 	0.30250 0.33920 0.27870 -0.05800
C 	C 	0.46730 0.48570 0.77430 -0.05500
C 	C 	0.59540 0.46830 0.41160 -0.07400
H 	H 	0.33780 0.34010 0.28250 0.05700
C 	C 	0.27530 0.38130 0.27000 -0.04000
H 	H 	0.48860 0.47090 0.84010 0.05200
C 	C 	0.42060 0.50040 0.81090 -0.04400
H 	H 	0.61690 0.45090 0.47180 0.04900
C 	C 	0.60940 0.47670 0.28260 -0.02300
H 	H 	0.29230 0.41190 0.26310 0.07200
H 	H 	0.40890 0.49480 0.90130 0.03400
H 	H 	0.64170 0.46630 0.25450 0.00700
O 	O 	0.66800 0.53890 0.86210 -0.26500
O 	O 	0.69220 0.48140 0.97930 -0.22600
C 	C 	0.66470 0.49800 0.89800 0.81200
Zn	Zn	0.90436 0.25000 0.05862 1.19000
O 	O 	0.97860 0.25000 0.11770 -0.52900
C 	C 	0.02330 0.25000 0.09470 0.45600
O 	O 	0.04220 0.25000 0.97720 -0.47800
C 	C 	0.05830 0.25000 0.20880 -0.16600
Zn	Zn	0.99961 0.25000 0.81392 1.24500
C 	C 	0.04080 0.25000 0.34620 0.09900
C 	C 	0.10990 0.25000 0.19050 0.02700
O 	O 	0.00600 0.25000 0.61100 -0.47800
O 	O 	0.07470 0.25000 0.69020 -0.42500
H 	H 	0.00590 0.25000 0.36250 0.01300
C 	C 	0.07210 0.25000 0.45380 -0.17200
C 	C 	0.14270 0.25000 0.29680 -0.03200
H 	H 	0.12270 0.25000 0.09980 0.04100
C 	C 	0.12080 0.25000 0.43110 0.03700
C 	C 	0.05000 0.25000 0.59620 0.48300
C 	C 	0.19680 0.25000 0.28290 -0.01500
H 	H 	0.14240 0.25000 0.50810 0.03300
Zn	Zn	0.59564 0.25000 0.05862 1.19100
O 	O 	0.52140 0.25000 0.11770 -0.52800
C 	C 	0.47670 0.25000 0.09470 0.45400
O 	O 	0.45780 0.25000 0.97720 -0.47700
C 	C 	0.44170 0.25000 0.20880 -0.16500
Zn	Zn	0.50039 0.25000 0.81392 1.24500
C 	C 	0.45920 0.25000 0.34620 0.09800
C 	C 	0.39010 0.25000 0.19050 0.02600
O 	O 	0.49400 0.25000 0.61100 -0.47800
O 	O 	0.42530 0.25000 0.69020 -0.42500
H 	H 	0.49410 0.25000 0.36250 0.01300
C 	C 	0.42790 0.25000 0.45380 -0.17200
C 	C 	0.35730 0.25000 0.29680 -0.03200
H 	H 	0.37730 0.25000 0.09980 0.04200
C 	C 	0.37920 0.25000 0.43110 0.03600
C 	C 	0.45000 0.25000 0.59620 0.48300
C 	C 	0.30320 0.25000 0.28290 -0.01500
H 	H 	0.35760 0.25000 0.50810 0.03300
Zn	Zn	0.09564 0.75000 0.94138 1.19000
O 	O 	0.02140 0.75000 0.88230 -0.52900
C 	C 	0.97670 0.75000 0.90530 0.45600
O 	O 	0.95780 0.75000 0.02280 -0.47800
C 	C 	0.94170 0.75000 0.79120 -0.16600
Zn	Zn	0.00039 0.75000 0.18608 1.24500
C 	C 	0.95920 0.75000 0.65380 0.09900
C 	C 	0.89010 0.75000 0.80950 0.02700
O 	O 	0.99400 0.75000 0.38900 -0.47800
O 	O 	0.92530 0.75000 0.30980 -0.42500
H 	H 	0.99410 0.75000 0.63750 0.01300
C 	C 	0.92790 0.75000 0.54620 -0.17200
C 	C 	0.85730 0.75000 0.70320 -0.03200
H 	H 	0.87730 0.75000 0.90020 0.04100
C 	C 	0.87920 0.75000 0.56890 0.03700
C 	C 	0.95000 0.75000 0.40380 0.48300
C 	C 	0.80320 0.75000 0.71710 -0.01500
H 	H 	0.85760 0.75000 0.49190 0.03300
Zn	Zn	0.40436 0.75000 0.94138 1.19100
O 	O 	0.47860 0.75000 0.88230 -0.52800
C 	C 	0.52330 0.75000 0.90530 0.45400
O 	O 	0.54220 0.75000 0.02280 -0.47700
C 	C 	0.55830 0.75000 0.79120 -0.16500
Zn	Zn	0.49961 0.75000 0.18608 1.24500
C 	C 	0.54080 0.75000 0.65380 0.09800
C 	C 	0.60990 0.75000 0.80950 0.02600
O 	O 	0.50600 0.75000 0.38900 -0.47800
O 	O 	0.57470 0.75000 0.30980 -0.42500
H 	H 	0.50590 0.75000 0.63750 0.01300
C 	C 	0.57210 0.75000 0.54620 -0.17200
C 	C 	0.64270 0.75000 0.70320 -0.03200
H 	H 	0.62270 0.75000 0.90020 0.04200
C 	C 	0.62080 0.75000 0.56890 0.03600
C 	C 	0.55000 0.75000 0.40380 0.48300
C 	C 	0.69680 0.75000 0.71710 -0.01500
H 	H 	0.64240 0.75000 0.49190 0.03300
Zn	Zn	0.75000 0.51170 0.09632 1.16400
Zn	Zn	0.75000 0.98830 0.09632 1.16400
Zn	Zn	0.25000 0.01170 0.90368 1.16400
Zn	Zn	0.25000 0.48830 0.90368 1.16400
