data_crystal

_cell_length_a 8.13000
_cell_length_b 20.17400
_cell_length_c 9.01400
_cell_angle_alpha 90.00000
_cell_angle_beta  91.42300
_cell_angle_gamma 90.00000

_symmetry_space_group_name_	'P 1'
_symmetry_space_group_name_H-M	'P 1'

loop_
_symmetry_equiv_pos_as_xyz
  x,y,z

loop_
_atom_site_label
_atom_site_type_symbol
_atom_site_fract_x
_atom_site_fract_y
_atom_site_fract_z
_atom_site_charge
N 	N 	0.35150 0.57290 0.61039 -0.20700
N 	N 	0.18120 0.57947 0.58830 -0.10300
N 	N 	0.27770 0.66451 0.71400 -0.09700
N 	N 	0.30350 0.72663 0.77620 -0.03100
N 	N 	0.17360 0.75897 0.77020 -0.04000
N 	N 	0.20160 0.82169 0.82890 -0.08700
N 	N 	0.13810 0.91925 0.90871 -0.17800
N 	N 	0.30860 0.91289 0.92060 -0.07300
N 	N 	0.65960 0.49666 0.69416 -0.20800
N 	N 	0.58180 0.49526 0.83065 -0.11500
N 	N 	0.84750 0.49757 0.86827 -0.09400
N 	N 	0.00390 0.49955 0.93118 -0.03900
C 	C 	0.40530 0.62378 0.68520 0.10600
H 	H 	0.51670 0.63120 0.71510 0.01500
C 	C 	0.14040 0.63518 0.65000 0.09900
H 	H 	0.03230 0.65300 0.65090 0.01500
C 	C 	0.07770 0.86501 0.85190 0.04200
H 	H 	0.96450 0.85700 0.82990 0.06600
C 	C 	0.34380 0.85379 0.87160 0.10700
H 	H 	0.45140 0.83580 0.86630 0.03900
C 	C 	0.81840 0.49777 0.71900 0.11600
H 	H 	0.89990 0.49860 0.64520 0.02900
C 	C 	0.69670 0.49612 0.93360 0.20300
H 	H 	0.67910 0.49580 0.03750 -0.03500
N 	N 	0.14850 0.07290 0.88961 -0.19600
N 	N 	0.31880 0.07947 0.91170 -0.09100
N 	N 	0.22230 0.16451 0.78600 -0.08800
N 	N 	0.19650 0.22663 0.72380 -0.04400
N 	N 	0.32640 0.25897 0.72980 -0.03400
N 	N 	0.29840 0.32169 0.67110 -0.09900
N 	N 	0.36190 0.41925 0.59129 -0.20900
N 	N 	0.19140 0.41289 0.57940 -0.10200
N 	N 	0.84040 0.99666 0.80584 -0.17700
N 	N 	0.91820 0.99526 0.66935 -0.07600
N 	N 	0.65250 0.99757 0.63173 -0.09400
N 	N 	0.49610 0.99955 0.56882 -0.00400
C 	C 	0.09470 0.12378 0.81480 0.03400
H 	H 	0.98330 0.13120 0.78490 0.06000
C 	C 	0.35960 0.13518 0.85000 0.10200
H 	H 	0.46770 0.15300 0.84910 0.03500
C 	C 	0.42230 0.36501 0.64810 0.10600
H 	H 	0.53550 0.35700 0.67010 0.01400
C 	C 	0.15620 0.35379 0.62840 0.09800
H 	H 	0.04860 0.33580 0.63370 0.01500
C 	C 	0.68160 0.99777 0.78100 0.12000
H 	H 	0.60010 0.99860 0.85480 0.04300
C 	C 	0.80330 0.99612 0.56640 0.11600
H 	H 	0.82090 0.99580 0.46250 0.05300
N 	N 	0.64850 0.42710 0.38961 -0.20800
N 	N 	0.81880 0.42053 0.41170 -0.08900
N 	N 	0.72230 0.33549 0.28600 -0.10000
N 	N 	0.69650 0.27337 0.22380 -0.04400
N 	N 	0.82640 0.24103 0.22980 -0.03300
N 	N 	0.79840 0.17831 0.17110 -0.11400
N 	N 	0.86190 0.08075 0.09129 -0.22900
N 	N 	0.69140 0.08711 0.07940 -0.11600
N 	N 	0.34040 0.50334 0.30584 -0.21200
N 	N 	0.41820 0.50474 0.16935 -0.09100
N 	N 	0.15250 0.50243 0.13173 -0.10700
N 	N 	0.99610 0.50045 0.06882 -0.03200
C 	C 	0.59470 0.37622 0.31480 0.10400
H 	H 	0.48330 0.36880 0.28490 0.00100
C 	C 	0.85960 0.36482 0.35000 0.10200
H 	H 	0.96770 0.34700 0.34910 0.03900
C 	C 	0.92230 0.13499 0.14810 0.18200
H 	H 	0.03550 0.14300 0.17010 -0.05700
C 	C 	0.65620 0.14621 0.12840 0.09200
H 	H 	0.54860 0.16420 0.13370 0.01500
C 	C 	0.18160 0.50223 0.28100 0.10100
H 	H 	0.10010 0.50140 0.35480 0.00300
C 	C 	0.30330 0.50388 0.06640 -0.00500
H 	H 	0.32090 0.50420 0.96250 0.09700
N 	N 	0.85150 0.92710 0.11039 -0.20800
N 	N 	0.68120 0.92053 0.08830 -0.10000
N 	N 	0.77770 0.83549 0.21400 -0.11100
N 	N 	0.80350 0.77337 0.27620 -0.03200
N 	N 	0.67360 0.74103 0.27020 -0.04100
N 	N 	0.70160 0.67831 0.32890 -0.10000
N 	N 	0.63810 0.58075 0.40871 -0.20900
N 	N 	0.80860 0.58711 0.42060 -0.08900
N 	N 	0.15960 0.00334 0.19416 -0.23400
N 	N 	0.08180 0.00474 0.33065 -0.13000
N 	N 	0.34750 0.00243 0.36827 -0.10500
N 	N 	0.50390 0.00045 0.43118 -0.06900
C 	C 	0.90530 0.87622 0.18520 0.18200
H 	H 	0.01670 0.86880 0.21510 -0.04500
C 	C 	0.64040 0.86482 0.15000 0.09900
H 	H 	0.53230 0.84700 0.15090 0.01900
C 	C 	0.57770 0.63499 0.35190 0.10500
H 	H 	0.46450 0.64300 0.32990 0.00200
C 	C 	0.84380 0.64621 0.37160 0.10200
H 	H 	0.95140 0.66420 0.36630 0.03900
C 	C 	0.31840 0.00223 0.21900 0.09600
H 	H 	0.39990 0.00140 0.14520 -0.00900
C 	C 	0.19670 0.00388 0.43360 0.08700
H 	H 	0.17910 0.00420 0.53750 0.00700
Zn	Zn	0.50000 0.50000 0.50000 1.19000
Zn	Zn	-0.00000 0.00000 -0.00000 1.14300
