data_crystal

_cell_length_a 12.32900
_cell_length_b 21.69000
_cell_length_c 17.43500
_cell_angle_alpha 90.00000
_cell_angle_beta  96.32000
_cell_angle_gamma 90.00000

_symmetry_space_group_name_	'P 1'
_symmetry_space_group_name_H-M	'P 1'

loop_
_symmetry_equiv_pos_as_xyz
  x,y,z

loop_
_atom_site_label
_atom_site_type_symbol
_atom_site_fract_x
_atom_site_fract_y
_atom_site_fract_z
_atom_site_charge
Co	Co	0.76365 0.38426 0.89318 1.16300
C 	C 	0.78680 0.40360 0.12370 -0.12600
C 	C 	0.84620 0.36360 0.17490 0.05800
H 	H 	0.87790 0.32850 0.15650 0.02000
C 	C 	0.85790 0.37620 0.25300 -0.13100
H 	H 	0.89710 0.34940 0.28720 0.08600
C 	C 	0.81160 0.42830 0.28050 0.07400
H 	H 	0.82190 0.43720 0.33300 0.01800
C 	C 	0.74930 0.46800 0.23030 -0.15700
C 	C 	0.73660 0.45480 0.15160 0.06900
H 	H 	0.69430 0.48040 0.11770 0.02100
C 	C 	0.77600 0.39110 0.03850 0.28900
C 	C 	0.69570 0.52420 0.25980 0.43500
C 	C 	0.56150 0.26270 0.20100 -0.15500
C 	C 	0.56040 0.32660 0.20100 0.07000
H 	H 	0.60060 0.34830 0.16780 0.01900
C 	C 	0.63120 0.22910 0.14880 0.39900
C 	C 	0.45000 0.30140 0.86380 0.03100
C 	C 	0.33950 0.29640 0.83800 -0.07700
H 	H 	0.30500 0.32160 0.79950 0.04000
C 	C 	0.28360 0.24970 0.87500 -0.03600
H 	H 	0.20970 0.24320 0.86020 0.05300
C 	C 	0.33820 0.21330 0.93370 -0.00200
H 	H 	0.29960 0.18330 0.95750 0.04700
C 	C 	0.44910 0.22120 0.95690 -0.10900
H 	H 	0.48500 0.19690 0.99560 0.08700
C 	C 	0.50440 0.26650 0.92040 0.08900
N 	N 	0.52800 0.34460 0.84060 -0.21900
N 	N 	0.61920 0.33230 0.88270 -0.17000
N 	N 	0.61290 0.28640 0.93100 -0.18200
O 	O 	0.73530 0.43170 0.99250 -0.34700
O 	O 	0.81000 0.34178 0.01280 -0.51500
O 	O 	0.61590 0.54590 0.21910 -0.50400
O 	O 	0.73570 0.54390 0.32390 -0.49400
O 	O 	0.66460 0.25990 0.09480 -0.46400
O 	O 	0.64890 0.17288 0.16230 -0.48700
Co	Co	0.26365 0.88426 0.89318 1.16200
C 	C 	0.28680 0.90360 0.12370 -0.13100
C 	C 	0.34620 0.86360 0.17490 0.05800
H 	H 	0.37790 0.82850 0.15650 0.01500
C 	C 	0.35790 0.87620 0.25300 -0.13800
H 	H 	0.39710 0.84940 0.28720 0.08100
C 	C 	0.31160 0.92830 0.28050 0.07500
H 	H 	0.32190 0.93720 0.33300 0.01200
C 	C 	0.24930 0.96800 0.23030 -0.16400
C 	C 	0.23660 0.95480 0.15160 0.07200
H 	H 	0.19430 0.98040 0.11770 0.01500
C 	C 	0.27600 0.89110 0.03850 0.28900
C 	C 	0.19570 0.02420 0.25980 0.43600
C 	C 	0.06150 0.76270 0.20100 -0.16100
C 	C 	0.06040 0.82660 0.20100 0.09400
H 	H 	0.10060 0.84830 0.16780 0.00800
C 	C 	0.13120 0.72910 0.14880 0.39700
C 	C 	0.95000 0.80140 0.86380 0.13900
C 	C 	0.83950 0.79640 0.83800 -0.15400
H 	H 	0.80500 0.82160 0.79950 0.07000
C 	C 	0.78360 0.74970 0.87500 0.04000
H 	H 	0.70970 0.74320 0.86020 0.03100
C 	C 	0.83820 0.71330 0.93370 -0.08500
H 	H 	0.79960 0.68330 0.95750 0.08100
C 	C 	0.94910 0.72120 0.95690 0.01100
H 	H 	0.98500 0.69690 0.99560 0.06000
C 	C 	0.00440 0.76650 0.92040 -0.03100
N 	N 	0.02800 0.84460 0.84060 -0.24800
N 	N 	0.11920 0.83230 0.88270 -0.17200
N 	N 	0.11290 0.78640 0.93100 -0.16700
O 	O 	0.23530 0.93170 0.99250 -0.35300
O 	O 	0.31000 0.84178 0.01280 -0.52000
O 	O 	0.11590 0.04590 0.21910 -0.51300
O 	O 	0.23570 0.04390 0.32390 -0.50000
O 	O 	0.16460 0.75990 0.09480 -0.46700
O 	O 	0.14890 0.67288 0.16230 -0.49100
Co	Co	0.23635 0.38426 0.60682 1.15300
C 	C 	0.21320 0.40360 0.37630 -0.15600
C 	C 	0.15380 0.36360 0.32510 0.07500
H 	H 	0.12210 0.32850 0.34350 0.00300
C 	C 	0.14210 0.37620 0.24700 -0.15600
H 	H 	0.10290 0.34940 0.21280 0.08000
C 	C 	0.18840 0.42830 0.21950 0.08500
H 	H 	0.17810 0.43720 0.16700 0.00100
C 	C 	0.25070 0.46800 0.26970 -0.17300
C 	C 	0.26340 0.45480 0.34840 0.08900
H 	H 	0.30570 0.48040 0.38230 0.02400
C 	C 	0.22400 0.39110 0.46150 0.36500
C 	C 	0.30430 0.52420 0.24020 0.43900
C 	C 	0.43850 0.26270 0.29900 -0.15000
C 	C 	0.43960 0.32660 0.29900 0.07000
H 	H 	0.39940 0.34830 0.33220 0.02300
C 	C 	0.36880 0.22910 0.35120 0.40000
C 	C 	0.55000 0.30140 0.63620 0.02900
C 	C 	0.66050 0.29640 0.66200 -0.07900
H 	H 	0.69500 0.32160 0.70050 0.04000
C 	C 	0.71640 0.24970 0.62500 -0.04300
H 	H 	0.79030 0.24320 0.63980 0.05800
C 	C 	0.66180 0.21330 0.56630 -0.00800
H 	H 	0.70040 0.18330 0.54250 0.03800
C 	C 	0.55090 0.22120 0.54310 -0.11300
H 	H 	0.51500 0.19690 0.50440 0.07100
C 	C 	0.49560 0.26650 0.57960 0.07900
N 	N 	0.47200 0.34460 0.65940 -0.22100
N 	N 	0.38080 0.33230 0.61730 -0.17400
N 	N 	0.38710 0.28640 0.56900 -0.19500
O 	O 	0.26470 0.43170 0.50750 -0.41900
O 	O 	0.19000 0.34178 0.48720 -0.51800
O 	O 	0.38410 0.54590 0.28090 -0.50300
O 	O 	0.26430 0.54390 0.17610 -0.50500
O 	O 	0.33540 0.25990 0.40520 -0.45000
O 	O 	0.35110 0.17288 0.33770 -0.48000
Co	Co	0.73635 0.88426 0.60682 1.15500
C 	C 	0.71320 0.90360 0.37630 -0.14800
C 	C 	0.65380 0.86360 0.32510 0.07400
H 	H 	0.62210 0.82850 0.34350 0.00800
C 	C 	0.64210 0.87620 0.24700 -0.14900
H 	H 	0.60290 0.84940 0.21280 0.08500
C 	C 	0.68840 0.92830 0.21950 0.08400
H 	H 	0.67810 0.93720 0.16700 0.00700
C 	C 	0.75070 0.96800 0.26970 -0.16400
C 	C 	0.76340 0.95480 0.34840 0.08700
H 	H 	0.80570 0.98040 0.38230 0.03000
C 	C 	0.72400 0.89110 0.46150 0.36500
C 	C 	0.80430 0.02420 0.24020 0.43700
C 	C 	0.93850 0.76270 0.29900 -0.12800
C 	C 	0.93960 0.82660 0.29900 0.12900
H 	H 	0.89940 0.84830 0.33220 0.00900
C 	C 	0.86880 0.72910 0.35120 0.39900
C 	C 	0.05000 0.80140 0.63620 -0.08000
C 	C 	0.16050 0.79640 0.66200 -0.00100
H 	H 	0.19500 0.82160 0.70050 0.01000
C 	C 	0.21640 0.74970 0.62500 -0.11900
H 	H 	0.29030 0.74320 0.63980 0.07800
C 	C 	0.16180 0.71330 0.56630 0.07700
H 	H 	0.20040 0.68330 0.54250 0.00400
C 	C 	0.05090 0.72120 0.54310 -0.23600
H 	H 	0.01500 0.69690 0.50440 0.09900
C 	C 	0.99560 0.76650 0.57960 0.20100
N 	N 	0.97200 0.84460 0.65940 -0.18700
N 	N 	0.88080 0.83230 0.61730 -0.17200
N 	N 	0.88710 0.78640 0.56900 -0.21000
O 	O 	0.76470 0.93170 0.50750 -0.41200
O 	O 	0.69000 0.84178 0.48720 -0.51300
O 	O 	0.88410 0.04590 0.28090 -0.48700
O 	O 	0.76430 0.04390 0.17610 -0.49800
O 	O 	0.83540 0.75990 0.40520 -0.44600
O 	O 	0.85110 0.67288 0.33770 -0.47100
Co	Co	0.23635 0.61574 0.10682 1.14400
C 	C 	0.21320 0.59640 0.87630 -0.17400
C 	C 	0.15380 0.63640 0.82510 0.09000
H 	H 	0.12210 0.67150 0.84350 -0.00200
C 	C 	0.14210 0.62380 0.74700 -0.16500
H 	H 	0.10290 0.65060 0.71280 0.08300
C 	C 	0.18840 0.57170 0.71950 0.09300
H 	H 	0.17810 0.56280 0.66700 0.00400
C 	C 	0.25070 0.53200 0.76970 -0.17600
C 	C 	0.26340 0.54520 0.84840 0.10500
H 	H 	0.30570 0.51960 0.88230 0.03200
C 	C 	0.22400 0.60890 0.96150 0.43900
C 	C 	0.30430 0.47580 0.74020 0.44200
C 	C 	0.43850 0.73730 0.79900 -0.14000
C 	C 	0.43960 0.67340 0.79900 0.06500
H 	H 	0.39940 0.65170 0.83220 0.03000
C 	C 	0.36880 0.77090 0.85120 0.39800
C 	C 	0.55000 0.69860 0.13620 0.02800
C 	C 	0.66050 0.70360 0.16200 -0.08400
H 	H 	0.69500 0.67840 0.20050 0.03900
C 	C 	0.71640 0.75030 0.12500 -0.04600
H 	H 	0.79030 0.75680 0.13980 0.05200
C 	C 	0.66180 0.78670 0.06630 -0.01600
H 	H 	0.70040 0.81670 0.04250 0.02600
C 	C 	0.55090 0.77880 0.04310 -0.11500
H 	H 	0.51500 0.80310 0.00440 0.05400
C 	C 	0.49560 0.73350 0.07960 0.07000
N 	N 	0.47200 0.65540 0.15940 -0.22300
N 	N 	0.38080 0.66770 0.11730 -0.17800
N 	N 	0.38710 0.71360 0.06900 -0.20300
O 	O 	0.26470 0.56830 0.00750 -0.48600
O 	O 	0.19000 0.65822 0.98720 -0.50500
O 	O 	0.38410 0.45410 0.78090 -0.49800
O 	O 	0.26430 0.45610 0.67610 -0.50000
O 	O 	0.33540 0.74010 0.90520 -0.42600
O 	O 	0.35110 0.82712 0.83770 -0.46900
Co	Co	0.73635 0.11574 0.10682 1.14600
C 	C 	0.71320 0.09640 0.87630 -0.16700
C 	C 	0.65380 0.13640 0.82510 0.09000
H 	H 	0.62210 0.17150 0.84350 0.00300
C 	C 	0.64210 0.12380 0.74700 -0.15700
H 	H 	0.60290 0.15060 0.71280 0.08800
C 	C 	0.68840 0.07170 0.71950 0.09200
H 	H 	0.67810 0.06280 0.66700 0.01000
C 	C 	0.75070 0.03200 0.76970 -0.16700
C 	C 	0.76340 0.04520 0.84840 0.10200
H 	H 	0.80570 0.01960 0.88230 0.03700
C 	C 	0.72400 0.10890 0.96150 0.43800
C 	C 	0.80430 0.97580 0.74020 0.43900
C 	C 	0.93850 0.23730 0.79900 -0.11900
C 	C 	0.93960 0.17340 0.79900 0.12300
H 	H 	0.89940 0.15170 0.83220 0.01500
C 	C 	0.86880 0.27090 0.85120 0.39600
C 	C 	0.05000 0.19860 0.13620 -0.08200
C 	C 	0.16050 0.20360 0.16200 -0.00600
H 	H 	0.19500 0.17840 0.20050 0.00900
C 	C 	0.21640 0.25030 0.12500 -0.12300
H 	H 	0.29030 0.25680 0.13980 0.07300
C 	C 	0.16180 0.28670 0.06630 0.06900
H 	H 	0.20040 0.31670 0.04250 -0.00800
C 	C 	0.05090 0.27880 0.04310 -0.23900
H 	H 	0.01500 0.30310 0.00440 0.08200
C 	C 	0.99560 0.23350 0.07960 0.19200
N 	N 	0.97200 0.15540 0.15940 -0.18900
N 	N 	0.88080 0.16770 0.11730 -0.17600
N 	N 	0.88710 0.21360 0.06900 -0.21800
O 	O 	0.76470 0.06830 0.00750 -0.47800
O 	O 	0.69000 0.15822 0.98720 -0.50000
O 	O 	0.88410 0.95410 0.78090 -0.48300
O 	O 	0.76430 0.95610 0.67610 -0.49400
O 	O 	0.83540 0.24010 0.90520 -0.42200
O 	O 	0.85110 0.32712 0.83770 -0.46100
Co	Co	0.76365 0.61574 0.39318 1.15500
C 	C 	0.78680 0.59640 0.62370 -0.14500
C 	C 	0.84620 0.63640 0.67490 0.07500
H 	H 	0.87790 0.67150 0.65650 0.01400
C 	C 	0.85790 0.62380 0.75300 -0.14100
H 	H 	0.89710 0.65060 0.78720 0.09000
C 	C 	0.81160 0.57170 0.78050 0.08300
H 	H 	0.82190 0.56280 0.83300 0.02000
C 	C 	0.74930 0.53200 0.73030 -0.16100
C 	C 	0.73660 0.54520 0.65160 0.08600
H 	H 	0.69430 0.51960 0.61770 0.02700
C 	C 	0.77600 0.60890 0.53850 0.36600
C 	C 	0.69570 0.47580 0.75980 0.43800
C 	C 	0.56150 0.73730 0.70100 -0.14500
C 	C 	0.56040 0.67340 0.70100 0.06500
H 	H 	0.60060 0.65170 0.66780 0.02500
C 	C 	0.63120 0.77090 0.64880 0.39900
C 	C 	0.45000 0.69860 0.36380 0.03000
C 	C 	0.33950 0.70360 0.33800 -0.08200
H 	H 	0.30500 0.67840 0.29950 0.03900
C 	C 	0.28360 0.75030 0.37500 -0.04000
H 	H 	0.20970 0.75680 0.36020 0.04800
C 	C 	0.33820 0.78670 0.43370 -0.01000
H 	H 	0.29960 0.81670 0.45750 0.03500
C 	C 	0.44910 0.77880 0.45690 -0.11200
H 	H 	0.48500 0.80310 0.49560 0.07000
C 	C 	0.50440 0.73350 0.42040 0.07900
N 	N 	0.52800 0.65540 0.34060 -0.22100
N 	N 	0.61920 0.66770 0.38270 -0.17500
N 	N 	0.61290 0.71360 0.43100 -0.19600
O 	O 	0.73530 0.56830 0.49250 -0.41400
O 	O 	0.81000 0.65822 0.51280 -0.51000
O 	O 	0.61590 0.45410 0.71910 -0.50000
O 	O 	0.73570 0.45610 0.82390 -0.49000
O 	O 	0.66460 0.74010 0.59480 -0.44900
O 	O 	0.64890 0.82712 0.66230 -0.47800
Co	Co	0.26365 0.11574 0.39318 1.15300
C 	C 	0.28680 0.09640 0.62370 -0.15200
C 	C 	0.34620 0.13640 0.67490 0.07500
H 	H 	0.37790 0.17150 0.65650 0.00800
C 	C 	0.35790 0.12380 0.75300 -0.14800
H 	H 	0.39710 0.15060 0.78720 0.08500
C 	C 	0.31160 0.07170 0.78050 0.08400
H 	H 	0.32190 0.06280 0.83300 0.01500
C 	C 	0.24930 0.03200 0.73030 -0.16800
C 	C 	0.23660 0.04520 0.65160 0.08900
H 	H 	0.19430 0.01960 0.61770 0.02200
C 	C 	0.27600 0.10890 0.53850 0.36500
C 	C 	0.19570 0.97580 0.75980 0.43900
C 	C 	0.06150 0.23730 0.70100 -0.15100
C 	C 	0.06040 0.17340 0.70100 0.08900
H 	H 	0.10060 0.15170 0.66780 0.01300
C 	C 	0.13120 0.27090 0.64880 0.39700
C 	C 	0.95000 0.19860 0.36380 0.14100
C 	C 	0.83950 0.20360 0.33800 -0.16100
H 	H 	0.80500 0.17840 0.29950 0.07000
C 	C 	0.78360 0.25030 0.37500 0.03800
H 	H 	0.70970 0.25680 0.36020 0.02400
C 	C 	0.83820 0.28670 0.43370 -0.09600
H 	H 	0.79960 0.31670 0.45750 0.06900
C 	C 	0.94910 0.27880 0.45690 0.01200
H 	H 	0.98500 0.30310 0.49560 0.04200
C 	C 	0.00440 0.23350 0.42040 -0.04400
N 	N 	0.02800 0.15540 0.34060 -0.25000
N 	N 	0.11920 0.16770 0.38270 -0.17600
N 	N 	0.11290 0.21360 0.43100 -0.18100
O 	O 	0.23530 0.06830 0.49250 -0.42100
O 	O 	0.31000 0.15822 0.51280 -0.51500
O 	O 	0.11590 0.95410 0.71910 -0.50800
O 	O 	0.23570 0.95610 0.82390 -0.49500
O 	O 	0.16460 0.24010 0.59480 -0.45200
O 	O 	0.14890 0.32712 0.66230 -0.48200
Co	Co	0.75000 0.25000 -0.00000 1.14200
Co	Co	0.25000 0.25000 0.50000 1.16700
Co	Co	0.25000 0.75000 -0.00000 1.14000
Co	Co	0.75000 0.75000 0.50000 1.16800
Co	Co	0.50000 0.40229 0.75000 1.14000
Co	Co	0.00000 0.90229 0.75000 1.12500
Co	Co	0.50000 0.59771 0.25000 1.13800
Co	Co	-0.00000 0.09771 0.25000 1.12300
C 	C 	0.50000 0.23080 0.25000 0.08000
H 	H 	0.50000 0.18800 0.25000 0.02100
C 	C 	0.50000 0.35780 0.25000 -0.13900
H 	H 	0.50000 0.40070 0.25000 0.08100
C 	C 	-0.00000 0.73080 0.25000 0.04200
H 	H 	0.00000 0.68800 0.25000 0.02200
C 	C 	0.00000 0.85780 0.25000 -0.20900
H 	H 	0.00000 0.90070 0.25000 0.09500
C 	C 	0.50000 0.76920 0.75000 0.07500
H 	H 	0.50000 0.81200 0.75000 0.02700
C 	C 	0.50000 0.64220 0.75000 -0.13000
H 	H 	0.50000 0.59930 0.75000 0.08100
C 	C 	0.00000 0.26920 0.75000 0.03800
H 	H 	0.00000 0.31200 0.75000 0.02900
C 	C 	0.00000 0.14220 0.75000 -0.19900
H 	H 	0.00000 0.09930 0.75000 0.09500
