data_crystal

_cell_length_a 12.21900
_cell_length_b 16.01500
_cell_length_c 22.01400
_cell_angle_alpha 90.00000
_cell_angle_beta  99.22300
_cell_angle_gamma 90.00000

_symmetry_space_group_name_	'P 1'
_symmetry_space_group_name_H-M	'P 1'

loop_
_symmetry_equiv_pos_as_xyz
  x,y,z

loop_
_atom_site_label
_atom_site_type_symbol
_atom_site_fract_x
_atom_site_fract_y
_atom_site_fract_z
_atom_site_charge
Cu	Cu	0.25800 0.66900 0.10889 0.82100
Cu	Cu	0.96160 0.66350 0.24734 0.80200
Cu	Cu	0.61120 0.50810 0.17476 0.79800
Cu	Cu	0.58610 0.19800 0.19689 0.81900
Cu	Cu	0.08010 0.59800 0.89341 0.80000
Cu	Cu	0.30330 0.97960 0.12349 0.78100
Cu	Cu	0.60530 0.20640 0.43022 0.82700
Cu	Cu	0.02450 0.79920 0.45396 0.80000
Cu	Cu	0.66590 0.90850 0.50148 0.79200
N 	N 	0.14900 0.60980 0.98080 -0.22500
C 	C 	0.19000 0.63200 0.02910 -0.25300
C 	C 	0.30450 0.86140 0.11480 -0.30400
C 	C 	0.29500 0.79160 0.10970 -0.19800
N 	N 	0.15190 0.66690 0.17080 -0.21000
C 	C 	0.08200 0.66290 0.19910 -0.26600
N 	N 	0.99600 0.75600 0.37150 -0.23500
C 	C 	0.97700 0.72100 0.32460 -0.27600
C 	C 	0.39700 0.60760 0.13820 -0.21900
C 	C 	0.47400 0.57110 0.14910 -0.25700
C 	C 	0.82900 0.60300 0.22280 -0.27500
C 	C 	0.74900 0.56920 0.20510 -0.24200
C 	C 	0.59700 0.38930 0.17140 -0.27600
C 	C 	0.58200 0.31800 0.17400 -0.21000
N 	N 	0.73640 0.16040 0.17420 -0.20000
C 	C 	0.18700 0.63550 0.84560 -0.27900
N 	N 	0.15600 0.03010 0.11830 -0.21100
C 	C 	0.93300 0.55600 0.88490 -0.28000
N 	N 	0.47150 0.11680 0.15960 -0.21600
C 	C 	0.40900 0.06390 0.14710 -0.25000
N 	N 	0.59850 0.19570 0.28960 -0.21100
C 	C 	0.59700 0.20300 0.34320 -0.24700
N 	N 	0.74840 0.25630 0.47270 -0.20700
C 	C 	0.17000 0.77790 0.49920 -0.27500
N 	N 	0.81390 0.86980 0.49260 -0.23300
C 	C 	0.89800 0.84700 0.47950 -0.29000
N 	N 	0.48630 0.27560 0.46010 -0.20600
C 	C 	0.57500 0.82370 0.52470 -0.29100
N 	N 	0.60690 0.08870 0.46250 -0.20900
C 	C 	0.63100 0.02100 0.47950 -0.24400
Cu	Cu	0.74200 0.16900 0.89111 0.82300
Cu	Cu	0.03840 0.16350 0.75266 0.80600
Cu	Cu	0.38880 0.00810 0.82524 0.81200
Cu	Cu	0.41390 0.69800 0.80311 0.81400
Cu	Cu	0.91990 0.09800 0.10659 0.80400
Cu	Cu	0.69670 0.47960 0.87651 0.80400
Cu	Cu	0.39470 0.70640 0.56978 0.82300
Cu	Cu	0.97550 0.29920 0.54604 0.80500
Cu	Cu	0.33410 0.40850 0.49852 0.80700
N 	N 	0.85100 0.10980 0.01920 -0.22000
C 	C 	0.81000 0.13200 0.97090 -0.24500
C 	C 	0.69550 0.36140 0.88520 -0.28600
C 	C 	0.70500 0.29160 0.89030 -0.19400
N 	N 	0.84810 0.16690 0.82920 -0.20700
C 	C 	0.91800 0.16290 0.80090 -0.25500
N 	N 	0.00400 0.25600 0.62850 -0.23100
C 	C 	0.02300 0.22100 0.67540 -0.26400
C 	C 	0.60300 0.10760 0.86180 -0.21400
C 	C 	0.52600 0.07110 0.85090 -0.24200
C 	C 	0.17100 0.10300 0.77720 -0.26700
C 	C 	0.25100 0.06920 0.79490 -0.22800
C 	C 	0.40300 0.88930 0.82860 -0.30800
C 	C 	0.41800 0.81800 0.82600 -0.21000
N 	N 	0.26360 0.66040 0.82580 -0.20400
C 	C 	0.81300 0.13550 0.15440 -0.26700
N 	N 	0.84400 0.53010 0.88170 -0.22400
C 	C 	0.06700 0.05600 0.11510 -0.26500
N 	N 	0.52850 0.61680 0.84040 -0.21600
C 	C 	0.59100 0.56390 0.85290 -0.27900
N 	N 	0.40150 0.69570 0.71040 -0.21500
C 	C 	0.40300 0.70300 0.65680 -0.25800
N 	N 	0.25160 0.75630 0.52730 -0.21000
C 	C 	0.83000 0.27790 0.50080 -0.26200
N 	N 	0.18610 0.36980 0.50740 -0.22600
C 	C 	0.10200 0.34700 0.52050 -0.27600
N 	N 	0.51370 0.77560 0.53990 -0.20900
C 	C 	0.42500 0.32370 0.47530 -0.27600
N 	N 	0.39310 0.58870 0.53750 -0.20900
C 	C 	0.36900 0.52100 0.52050 -0.27600
