data_crystal

_cell_length_a 19.69710
_cell_length_b 17.36150
_cell_length_c 13.89790
_cell_angle_alpha 90.00000
_cell_angle_beta  90.90100
_cell_angle_gamma 90.00000

_symmetry_space_group_name_	'P 1'
_symmetry_space_group_name_H-M	'P 1'

loop_
_symmetry_equiv_pos_as_xyz
  x,y,z

loop_
_atom_site_label
_atom_site_type_symbol
_atom_site_fract_x
_atom_site_fract_y
_atom_site_fract_z
_atom_site_charge
Cd	Cd	0.08837 0.26252 0.32288 1.16800
Cd	Cd	0.35982 0.39454 0.10000 1.15200
C 	C 	0.30190 0.33240 0.29880 0.07800
H 	H 	0.34650 0.33460 0.32570 -0.04900
C 	C 	0.21950 0.34290 0.20430 0.07600
H 	H 	0.19240 0.35410 0.14890 -0.07400
C 	C 	0.12980 0.33740 0.62260 0.07800
H 	H 	0.15890 0.34140 0.67770 -0.06900
C 	C 	0.04460 0.34260 0.53130 0.02300
H 	H 	0.99980 0.35110 0.50750 -0.02600
C 	C 	0.19620 0.06930 0.46060 0.09000
H 	H 	0.22910 0.04930 0.50460 -0.05600
C 	C 	0.11800 0.07760 0.36060 0.08200
H 	H 	0.08230 0.06510 0.31660 -0.03000
C 	C 	0.11880 0.17500 0.11310 0.08000
H 	H 	0.16550 0.16830 0.12880 -0.07300
C 	C 	0.02540 0.17150 0.04070 -0.04000
H 	H 	0.99100 0.16200 0.99360 0.04000
C 	C 	0.04690 0.44560 0.28680 0.07200
H 	H 	0.08740 0.46220 0.31870 -0.06300
C 	C 	0.50230 0.38490 0.23710 0.08700
H 	H 	0.52410 0.34930 0.19460 -0.05300
C 	C 	0.48320 0.46070 0.35200 0.05400
H 	H 	0.48730 0.49060 0.40990 -0.01600
N 	N 	0.24996 0.30530 0.34540 -0.23000
N 	N 	0.19519 0.31200 0.28340 -0.23100
N 	N 	0.28655 0.35690 0.20990 -0.29800
N 	N 	0.15041 0.31380 0.53770 -0.23000
N 	N 	0.09472 0.31710 0.47750 -0.22000
N 	N 	0.06380 0.35520 0.62290 -0.30000
N 	N 	0.18886 0.14350 0.44380 -0.22700
N 	N 	0.13760 0.14900 0.37830 -0.23000
N 	N 	0.15308 0.02470 0.41010 -0.27500
N 	N 	0.07517 0.20870 0.17050 -0.23300
N 	N 	0.01409 0.20650 0.12340 -0.21500
N 	N 	0.09017 0.15090 0.03000 -0.28900
N 	N 	0.03052 0.37260 0.27390 -0.24500
N 	N 	0.44160 0.41170 0.22040 -0.12400
N 	N 	0.42910 0.46170 0.29620 -0.12900
N 	N 	0.53360 0.41340 0.32030 -0.17300
Cd	Cd	0.58837 0.76252 0.32288 1.17200
Cd	Cd	0.85982 0.89454 0.10000 1.15500
C 	C 	0.80190 0.83240 0.29880 0.07900
H 	H 	0.84650 0.83460 0.32570 -0.04800
C 	C 	0.71950 0.84290 0.20430 0.07700
H 	H 	0.69240 0.85410 0.14890 -0.07200
C 	C 	0.62980 0.83740 0.62260 0.07800
H 	H 	0.65890 0.84140 0.67770 -0.06800
C 	C 	0.54460 0.84260 0.53130 0.07800
H 	H 	0.49980 0.85110 0.50750 -0.06600
C 	C 	0.69620 0.56930 0.46060 0.09000
H 	H 	0.72910 0.54930 0.50460 -0.05500
C 	C 	0.61800 0.57760 0.36060 0.08400
H 	H 	0.58230 0.56510 0.31660 -0.02300
C 	C 	0.61880 0.67500 0.11310 0.08000
H 	H 	0.66550 0.66830 0.12880 -0.07200
C 	C 	0.52540 0.67150 0.04070 0.01100
H 	H 	0.49100 0.66200 0.99360 0.00500
C 	C 	0.54690 0.94560 0.28680 0.07700
H 	H 	0.58740 0.96220 0.31870 -0.06200
C 	C 	0.00230 0.88490 0.23710 0.17100
H 	H 	0.02410 0.84930 0.19460 -0.07800
C 	C 	0.98320 0.96070 0.35200 0.08700
H 	H 	0.98730 0.99060 0.40990 -0.01700
N 	N 	0.74996 0.80530 0.34540 -0.22900
N 	N 	0.69519 0.81200 0.28340 -0.23000
N 	N 	0.78655 0.85690 0.20990 -0.29700
N 	N 	0.65041 0.81380 0.53770 -0.23000
N 	N 	0.59472 0.81710 0.47750 -0.22600
N 	N 	0.56380 0.85520 0.62290 -0.30400
N 	N 	0.68886 0.64350 0.44380 -0.22700
N 	N 	0.63760 0.64900 0.37830 -0.22700
N 	N 	0.65308 0.52470 0.41010 -0.27300
N 	N 	0.57517 0.70870 0.17050 -0.23000
N 	N 	0.51409 0.70650 0.12340 -0.21300
N 	N 	0.59017 0.65090 0.03000 -0.29500
N 	N 	0.53052 0.87260 0.27390 -0.23200
N 	N 	0.94160 0.91170 0.22040 -0.12500
N 	N 	0.92910 0.96170 0.29620 -0.13000
N 	N 	0.03360 0.91340 0.32030 -0.18700
Cd	Cd	0.91163 0.26252 0.17712 1.17400
Cd	Cd	0.64018 0.39454 0.40000 1.16100
C 	C 	0.69810 0.33240 0.20120 0.07900
H 	H 	0.65350 0.33460 0.17430 -0.05100
C 	C 	0.78050 0.34290 0.29570 0.07800
H 	H 	0.80760 0.35410 0.35110 -0.06500
C 	C 	0.87020 0.33740 0.87740 0.08100
H 	H 	0.84110 0.34140 0.82230 -0.06600
C 	C 	0.95540 0.34260 0.96870 0.17700
H 	H 	0.00020 0.35110 0.99250 -0.10500
C 	C 	0.80380 0.06930 0.03940 0.02000
H 	H 	0.77090 0.04930 0.99540 -0.00500
C 	C 	0.88200 0.07760 0.13940 0.08300
H 	H 	0.91770 0.06510 0.18340 -0.01800
C 	C 	0.88120 0.17500 0.38690 0.08100
H 	H 	0.83450 0.16830 0.37120 -0.06700
C 	C 	0.97460 0.17150 0.45930 0.13700
H 	H 	0.00900 0.16200 0.50640 -0.08200
C 	C 	0.95310 0.44560 0.21320 0.11000
H 	H 	0.91260 0.46220 0.18130 -0.07200
C 	C 	0.49770 0.38490 0.26290 0.08800
H 	H 	0.47590 0.34930 0.30540 -0.05200
C 	C 	0.51680 0.46070 0.14800 0.05400
H 	H 	0.51270 0.49060 0.09010 -0.02500
N 	N 	0.75004 0.30530 0.15460 -0.23300
N 	N 	0.80481 0.31200 0.21660 -0.23000
N 	N 	0.71345 0.35690 0.29010 -0.29500
N 	N 	0.84959 0.31380 0.96230 -0.20800
N 	N 	0.90528 0.31710 0.02250 -0.26900
N 	N 	0.93620 0.35520 0.87710 -0.30900
N 	N 	0.81114 0.14350 0.05620 -0.22300
N 	N 	0.86240 0.14900 0.12170 -0.22800
N 	N 	0.84692 0.02470 0.08990 -0.26600
N 	N 	0.92483 0.20870 0.32950 -0.22600
N 	N 	0.98591 0.20650 0.37660 -0.22000
N 	N 	0.90983 0.15090 0.47000 -0.30100
N 	N 	0.96948 0.37260 0.22610 -0.22400
N 	N 	0.55840 0.41170 0.27960 -0.12400
N 	N 	0.57090 0.46170 0.20380 -0.13100
N 	N 	0.46640 0.41340 0.17970 -0.17600
Cd	Cd	0.41163 0.76252 0.17712 1.17100
Cd	Cd	0.14018 0.89454 0.40000 1.15900
C 	C 	0.19810 0.83240 0.20120 0.07800
H 	H 	0.15350 0.83460 0.17430 -0.05200
C 	C 	0.28050 0.84290 0.29570 0.07800
H 	H 	0.30760 0.85410 0.35110 -0.06600
C 	C 	0.37020 0.83740 0.87740 0.08100
H 	H 	0.34110 0.84140 0.82230 -0.06800
C 	C 	0.45540 0.84260 0.96870 0.11900
H 	H 	0.50020 0.85110 0.99250 -0.06400
C 	C 	0.30380 0.56930 0.03940 0.02000
H 	H 	0.27090 0.54930 0.99540 -0.00600
C 	C 	0.38200 0.57760 0.13940 0.08200
H 	H 	0.41770 0.56510 0.18340 -0.02400
C 	C 	0.38120 0.67500 0.38690 0.08200
H 	H 	0.33450 0.66830 0.37120 -0.06800
C 	C 	0.47460 0.67150 0.45930 0.08200
H 	H 	0.50900 0.66200 0.50640 -0.04500
C 	C 	0.45310 0.94560 0.21320 0.07600
H 	H 	0.41260 0.96220 0.18130 -0.06600
C 	C 	0.99770 0.88490 0.26290 0.00300
H 	H 	0.97590 0.84930 0.30540 -0.02600
C 	C 	0.01680 0.96070 0.14800 0.02200
H 	H 	0.01270 0.99060 0.09010 -0.02300
N 	N 	0.25004 0.80530 0.15460 -0.23300
N 	N 	0.30481 0.81200 0.21660 -0.23100
N 	N 	0.21345 0.85690 0.29010 -0.29600
N 	N 	0.34959 0.81380 0.96230 -0.20800
N 	N 	0.40528 0.81710 0.02250 -0.26200
N 	N 	0.43620 0.85520 0.87710 -0.30800
N 	N 	0.31114 0.64350 0.05620 -0.22300
N 	N 	0.36240 0.64900 0.12170 -0.23000
N 	N 	0.34692 0.52470 0.08990 -0.26800
N 	N 	0.42483 0.70870 0.32950 -0.22900
N 	N 	0.48591 0.70650 0.37660 -0.22200
N 	N 	0.40983 0.65090 0.47000 -0.29500
N 	N 	0.46948 0.87260 0.22610 -0.23300
N 	N 	0.05840 0.91170 0.27960 -0.12300
N 	N 	0.07090 0.96170 0.20380 -0.13000
N 	N 	0.96640 0.91340 0.17970 -0.16200
Cd	Cd	0.91163 0.73748 0.67712 1.17700
Cd	Cd	0.64018 0.60546 0.90000 1.16800
C 	C 	0.69810 0.66760 0.70120 0.08000
H 	H 	0.65350 0.66540 0.67430 -0.04700
C 	C 	0.78050 0.65710 0.79570 0.08000
H 	H 	0.80760 0.64590 0.85110 -0.05800
C 	C 	0.87020 0.66260 0.37740 0.07800
H 	H 	0.84110 0.65860 0.32230 -0.06900
C 	C 	0.95540 0.65740 0.46870 0.13300
H 	H 	0.00020 0.64890 0.49250 -0.10400
C 	C 	0.80380 0.93070 0.53940 0.09100
H 	H 	0.77090 0.95070 0.49540 -0.05600
C 	C 	0.88200 0.92240 0.63940 0.08600
H 	H 	0.91770 0.93490 0.68340 -0.01600
C 	C 	0.88120 0.82500 0.88690 0.08300
H 	H 	0.83450 0.83170 0.87120 -0.06100
C 	C 	0.97460 0.82850 0.95930 0.20700
H 	H 	0.00900 0.83800 0.00640 -0.13100
C 	C 	0.95310 0.55440 0.71320 0.11600
H 	H 	0.91260 0.53780 0.68130 -0.06800
C 	C 	0.49770 0.61510 0.76290 0.08600
H 	H 	0.47590 0.65070 0.80540 -0.04800
C 	C 	0.51680 0.53930 0.64800 0.05400
H 	H 	0.51270 0.50940 0.59010 -0.01600
N 	N 	0.75004 0.69470 0.65460 -0.22900
N 	N 	0.80481 0.68800 0.71660 -0.22800
N 	N 	0.71345 0.64310 0.79010 -0.29100
N 	N 	0.84959 0.68620 0.46230 -0.23000
N 	N 	0.90528 0.68290 0.52250 -0.23200
N 	N 	0.93620 0.64480 0.37710 -0.30700
N 	N 	0.81114 0.85650 0.55620 -0.22700
N 	N 	0.86240 0.85100 0.62170 -0.22500
N 	N 	0.84692 0.97530 0.58990 -0.27100
N 	N 	0.92483 0.79130 0.82950 -0.22400
N 	N 	0.98591 0.79350 0.87660 -0.22800
N 	N 	0.90983 0.84910 0.97000 -0.29900
N 	N 	0.96948 0.62740 0.72610 -0.22100
N 	N 	0.55840 0.58830 0.77960 -0.12300
N 	N 	0.57090 0.53830 0.70380 -0.12800
N 	N 	0.46640 0.58660 0.67970 -0.17200
Cd	Cd	0.41163 0.23748 0.67712 1.17300
Cd	Cd	0.14018 0.10546 0.90000 1.16600
C 	C 	0.19810 0.16760 0.70120 0.08000
H 	H 	0.15350 0.16540 0.67430 -0.04800
C 	C 	0.28050 0.15710 0.79570 0.07900
H 	H 	0.30760 0.14590 0.85110 -0.06000
C 	C 	0.37020 0.16260 0.37740 0.07800
H 	H 	0.34110 0.15860 0.32230 -0.07100
C 	C 	0.45540 0.15740 0.46870 0.07800
H 	H 	0.50020 0.14890 0.49250 -0.06600
C 	C 	0.30380 0.43070 0.53940 0.09100
H 	H 	0.27090 0.45070 0.49540 -0.05700
C 	C 	0.38200 0.42240 0.63940 0.08400
H 	H 	0.41770 0.43490 0.68340 -0.02300
C 	C 	0.38120 0.32500 0.88690 0.08300
H 	H 	0.33450 0.33170 0.87120 -0.06300
C 	C 	0.47460 0.32850 0.95930 0.15200
H 	H 	0.50900 0.33800 0.00640 -0.09500
C 	C 	0.45310 0.05440 0.71320 0.08100
H 	H 	0.41260 0.03780 0.68130 -0.06200
C 	C 	0.99770 0.11510 0.76290 -0.00300
H 	H 	0.97590 0.15070 0.80540 -0.02100
C 	C 	0.01680 0.03930 0.64800 0.02000
H 	H 	0.01270 0.00940 0.59010 -0.01500
N 	N 	0.25004 0.19470 0.65460 -0.22900
N 	N 	0.30481 0.18800 0.71660 -0.22900
N 	N 	0.21345 0.14310 0.79010 -0.29300
N 	N 	0.34959 0.18620 0.46230 -0.23000
N 	N 	0.40528 0.18290 0.52250 -0.22600
N 	N 	0.43620 0.14480 0.37710 -0.30600
N 	N 	0.31114 0.35650 0.55620 -0.22700
N 	N 	0.36240 0.35100 0.62170 -0.22700
N 	N 	0.34692 0.47530 0.58990 -0.27300
N 	N 	0.42483 0.29130 0.82950 -0.22700
N 	N 	0.48591 0.29350 0.87660 -0.23000
N 	N 	0.40983 0.34910 0.97000 -0.29400
N 	N 	0.46948 0.12740 0.72610 -0.23000
N 	N 	0.05840 0.08830 0.77960 -0.12200
N 	N 	0.07090 0.03830 0.70380 -0.12700
N 	N 	0.96640 0.08660 0.67970 -0.15800
Cd	Cd	0.08837 0.73748 0.82288 1.17100
Cd	Cd	0.35982 0.60546 0.60000 1.16100
C 	C 	0.30190 0.66760 0.79880 0.08000
H 	H 	0.34650 0.66540 0.82570 -0.04400
C 	C 	0.21950 0.65710 0.70430 0.07900
H 	H 	0.19240 0.64590 0.64890 -0.06700
C 	C 	0.12980 0.66260 0.12260 0.07500
H 	H 	0.15890 0.65860 0.17770 -0.07200
C 	C 	0.04460 0.65740 0.03130 -0.01200
H 	H 	0.99980 0.64890 0.00750 -0.03100
C 	C 	0.19620 0.93070 0.96060 0.16100
H 	H 	0.22910 0.95070 0.00460 -0.10600
C 	C 	0.11800 0.92240 0.86060 0.08500
H 	H 	0.08230 0.93490 0.81660 -0.02900
C 	C 	0.11880 0.82500 0.61310 0.08200
H 	H 	0.16550 0.83170 0.62880 -0.06800
C 	C 	0.02540 0.82850 0.54070 0.02700
H 	H 	0.99100 0.83800 0.49360 -0.00800
C 	C 	0.04690 0.55440 0.78680 0.07600
H 	H 	0.08740 0.53780 0.81870 -0.05800
C 	C 	0.50230 0.61510 0.73710 0.08500
H 	H 	0.52410 0.65070 0.69460 -0.05000
C 	C 	0.48320 0.53930 0.85200 0.05400
H 	H 	0.48730 0.50940 0.90990 -0.00700
N 	N 	0.24996 0.69470 0.84540 -0.22300
N 	N 	0.19519 0.68800 0.78340 -0.22800
N 	N 	0.28655 0.64310 0.70990 -0.29500
N 	N 	0.15041 0.68620 0.03770 -0.24800
N 	N 	0.09472 0.68290 0.97750 -0.18600
N 	N 	0.06380 0.64480 0.12290 -0.29800
N 	N 	0.18886 0.85650 0.94380 -0.22900
N 	N 	0.13760 0.85100 0.87830 -0.22600
N 	N 	0.15308 0.97530 0.91010 -0.28000
N 	N 	0.07517 0.79130 0.67050 -0.23100
N 	N 	0.01409 0.79350 0.62340 -0.22300
N 	N 	0.09017 0.84910 0.53000 -0.28900
N 	N 	0.03052 0.62740 0.77390 -0.24300
N 	N 	0.44160 0.58830 0.72040 -0.12300
N 	N 	0.42910 0.53830 0.79620 -0.12600
N 	N 	0.53360 0.58660 0.82030 -0.16900
Cd	Cd	0.58837 0.23748 0.82288 1.17500
Cd	Cd	0.85982 0.10546 0.60000 1.16300
C 	C 	0.80190 0.16760 0.79880 0.08100
H 	H 	0.84650 0.16540 0.82570 -0.04300
C 	C 	0.71950 0.15710 0.70430 0.07900
H 	H 	0.69240 0.14590 0.64890 -0.06600
C 	C 	0.62980 0.16260 0.12260 0.07500
H 	H 	0.65890 0.15860 0.17770 -0.07000
C 	C 	0.54460 0.15740 0.03130 0.03700
H 	H 	0.49980 0.14890 0.00750 -0.06700
C 	C 	0.69620 0.43070 0.96060 0.16300
H 	H 	0.72910 0.45070 0.00460 -0.10700
C 	C 	0.61800 0.42240 0.86060 0.08600
H 	H 	0.58230 0.43490 0.81660 -0.02200
C 	C 	0.61880 0.32500 0.61310 0.08100
H 	H 	0.66550 0.33170 0.62880 -0.06700
C 	C 	0.52540 0.32850 0.54070 0.08200
H 	H 	0.49100 0.33800 0.49360 -0.04500
C 	C 	0.54690 0.05440 0.78680 0.08200
H 	H 	0.58740 0.03780 0.81870 -0.05800
C 	C 	0.00230 0.11510 0.73710 0.17500
H 	H 	0.02410 0.15070 0.69460 -0.07700
C 	C 	0.98320 0.03930 0.85200 0.08900
H 	H 	0.98730 0.00940 0.90990 -0.00900
N 	N 	0.74996 0.19470 0.84540 -0.22200
N 	N 	0.69519 0.18800 0.78340 -0.22800
N 	N 	0.78655 0.14310 0.70990 -0.29400
N 	N 	0.65041 0.18620 0.03770 -0.24800
N 	N 	0.59472 0.18290 0.97750 -0.19100
N 	N 	0.56380 0.14480 0.12290 -0.30200
N 	N 	0.68886 0.35650 0.94380 -0.22900
N 	N 	0.63760 0.35100 0.87830 -0.22400
N 	N 	0.65308 0.47530 0.91010 -0.27900
N 	N 	0.57517 0.29130 0.67050 -0.22800
N 	N 	0.51409 0.29350 0.62340 -0.22100
N 	N 	0.59017 0.34910 0.53000 -0.29500
N 	N 	0.53052 0.12740 0.77390 -0.22900
N 	N 	0.94160 0.08830 0.72040 -0.12400
N 	N 	0.92910 0.03830 0.79620 -0.12800
N 	N 	0.03360 0.08660 0.82030 -0.18500
Cd	Cd	0.25000 0.25000 0.50000 1.17300
Cd	Cd	0.75000 0.25000 -0.00000 1.16100
Cd	Cd	0.75000 0.75000 0.50000 1.17300
Cd	Cd	0.25000 0.75000 -0.00000 1.16100
Cd	Cd	-0.00000 0.37603 0.75000 1.12600
Cd	Cd	0.50000 0.87603 0.75000 1.13500
Cd	Cd	0.00000 0.62397 0.25000 1.12400
Cd	Cd	0.50000 0.12397 0.25000 1.13200
N 	N 	0.00000 0.49410 0.25000 -0.31000
N 	N 	0.50000 0.99410 0.25000 -0.29100
N 	N 	0.00000 0.50590 0.75000 -0.30900
N 	N 	0.50000 0.00590 0.75000 -0.28900
