data_crystal

_cell_length_a 9.00100
_cell_length_b 11.96600
_cell_length_c 15.10600
_cell_angle_alpha 90.00000
_cell_angle_beta  99.66000
_cell_angle_gamma 90.00000

_symmetry_space_group_name_	'P 1'
_symmetry_space_group_name_H-M	'P 1'

loop_
_symmetry_equiv_pos_as_xyz
  x,y,z

loop_
_atom_site_label
_atom_site_type_symbol
_atom_site_fract_x
_atom_site_fract_y
_atom_site_fract_z
_atom_site_charge
Fe	Fe	0.14982 0.41598 0.03243 1.12600
Na	Na	0.75706 0.46918 0.17119 0.58900
O 	O 	0.76190 0.27560 0.10880 -0.29200
O 	O 	0.94130 0.39430 0.08625 -0.40600
O 	O 	0.21800 0.27930 0.11365 -0.39000
O 	O 	0.08910 0.52340 0.92495 -0.39700
O 	O 	0.37960 0.47650 0.06390 -0.40300
O 	O 	0.92300 0.56370 0.80383 -0.33900
O 	O 	0.38110 0.14100 0.14528 -0.30500
O 	O 	0.60480 0.49630 0.02336 -0.35200
N 	N 	0.97870 0.30680 0.93105 -0.07700
N 	N 	0.29640 0.31550 0.94373 -0.11800
C 	C 	0.05690 0.23090 0.87590 -0.16500
H 	H 	0.99150 0.21590 0.81930 0.10000
H 	H 	0.07850 0.16050 0.90710 0.10000
C 	C 	0.20230 0.28230 0.85790 -0.05500
H 	H 	0.25650 0.22880 0.82710 0.05900
H 	H 	0.18030 0.34740 0.81960 0.05100
C 	C 	0.88540 0.24210 0.98450 -0.01600
H 	H 	0.93540 0.17220 0.00350 -0.00300
H 	H 	0.78910 0.22480 0.94780 0.07900
C 	C 	0.86000 0.30830 0.06640 0.23700
C 	C 	0.31880 0.21200 0.09320 0.23300
C 	C 	0.35830 0.21810 0.99890 0.01100
H 	H 	0.46720 0.21920 0.00410 -0.02500
H 	H 	0.32240 0.15040 0.96690 0.06500
C 	C 	0.88830 0.39300 0.87560 -0.36000
H 	H 	0.80000 0.40990 0.90210 0.15700
H 	H 	0.85380 0.36250 0.81620 0.14800
C 	C 	0.97330 0.50060 0.86630 0.42400
C 	C 	0.41850 0.39170 0.92820 -0.19200
H 	H 	0.38130 0.44180 0.87900 0.10100
H 	H 	0.50070 0.34850 0.91140 0.12100
C 	C 	0.47590 0.45920 0.01150 0.28500
Fe	Fe	0.64982 0.91598 0.03243 1.13400
Na	Na	0.25706 0.96918 0.17119 0.58900
O 	O 	0.26190 0.77560 0.10880 -0.29500
O 	O 	0.44130 0.89430 0.08625 -0.41200
O 	O 	0.71800 0.77930 0.11365 -0.38400
O 	O 	0.58910 0.02340 0.92495 -0.38000
O 	O 	0.87960 0.97650 0.06390 -0.40200
O 	O 	0.42300 0.06370 0.80383 -0.33800
O 	O 	0.88110 0.64100 0.14528 -0.29900
O 	O 	0.10480 0.99630 0.02336 -0.36900
N 	N 	0.47870 0.80680 0.93105 -0.09700
N 	N 	0.79640 0.81550 0.94373 -0.11600
C 	C 	0.55690 0.73090 0.87590 -0.09600
H 	H 	0.49150 0.71590 0.81930 0.06800
H 	H 	0.57850 0.66050 0.90710 0.08700
C 	C 	0.70230 0.78230 0.85790 -0.08700
H 	H 	0.75650 0.72880 0.82710 0.07300
H 	H 	0.68030 0.84740 0.81960 0.06700
C 	C 	0.38540 0.74210 0.98450 0.00200
H 	H 	0.43540 0.67220 0.00350 -0.01600
H 	H 	0.28910 0.72480 0.94780 0.07300
C 	C 	0.36000 0.80830 0.06640 0.22900
C 	C 	0.81880 0.71200 0.09320 0.23400
C 	C 	0.85830 0.71810 0.99890 0.00900
H 	H 	0.96720 0.71920 0.00410 -0.01800
H 	H 	0.82240 0.65040 0.96690 0.06900
C 	C 	0.38830 0.89300 0.87560 -0.34100
H 	H 	0.30000 0.90990 0.90210 0.15200
H 	H 	0.35380 0.86250 0.81620 0.14100
C 	C 	0.47330 0.00060 0.86630 0.39200
C 	C 	0.91850 0.89170 0.92820 -0.16800
H 	H 	0.88130 0.94180 0.87900 0.09900
H 	H 	0.00070 0.84850 0.91140 0.10100
C 	C 	0.97590 0.95920 0.01150 0.30400
Fe	Fe	0.14982 0.58402 0.53243 1.17600
Na	Na	0.75706 0.53082 0.67119 0.59100
O 	O 	0.76190 0.72440 0.60880 -0.32400
O 	O 	0.94130 0.60570 0.58625 -0.42100
O 	O 	0.21800 0.72070 0.61365 -0.41100
O 	O 	0.08910 0.47660 0.42495 -0.44900
O 	O 	0.37960 0.52350 0.56390 -0.40900
O 	O 	0.92300 0.43630 0.30383 -0.35000
O 	O 	0.38110 0.85900 0.64528 -0.33800
O 	O 	0.60480 0.50370 0.52336 -0.34900
N 	N 	0.97870 0.69320 0.43105 -0.05500
N 	N 	0.29640 0.68450 0.44373 -0.08200
C 	C 	0.05690 0.76910 0.37590 -0.16900
H 	H 	0.99150 0.78410 0.31930 0.10000
H 	H 	0.07850 0.83950 0.40710 0.07800
C 	C 	0.20230 0.71770 0.35790 -0.07400
H 	H 	0.25650 0.77120 0.32710 0.06300
H 	H 	0.18030 0.65260 0.31960 0.05300
C 	C 	0.88540 0.75790 0.48450 -0.35400
H 	H 	0.93540 0.82780 0.50350 0.16100
H 	H 	0.78910 0.77520 0.44780 0.15300
C 	C 	0.86000 0.69170 0.56640 0.39900
C 	C 	0.31880 0.78800 0.59320 0.39500
C 	C 	0.35830 0.78190 0.49890 -0.34400
H 	H 	0.46720 0.78080 0.50410 0.15200
H 	H 	0.32240 0.84960 0.46690 0.14600
C 	C 	0.88830 0.60700 0.37560 -0.37600
H 	H 	0.80000 0.59010 0.40210 0.14300
H 	H 	0.85380 0.63750 0.31620 0.15100
C 	C 	0.97330 0.49940 0.36630 0.42800
C 	C 	0.41850 0.60830 0.42820 -0.33800
H 	H 	0.38130 0.55820 0.37900 0.13000
H 	H 	0.50070 0.65150 0.41140 0.14000
C 	C 	0.47590 0.54080 0.51150 0.39200
Fe	Fe	0.64982 0.08402 0.53243 1.18000
Na	Na	0.25706 0.03082 0.67119 0.59000
O 	O 	0.26190 0.22440 0.60880 -0.33100
O 	O 	0.44130 0.10570 0.58625 -0.43000
O 	O 	0.71800 0.22070 0.61365 -0.40600
O 	O 	0.58910 0.97660 0.42495 -0.42600
O 	O 	0.87960 0.02350 0.56390 -0.41000
O 	O 	0.42300 0.93630 0.30383 -0.34900
O 	O 	0.88110 0.35900 0.64528 -0.33500
O 	O 	0.10480 0.00370 0.52336 -0.36800
N 	N 	0.47870 0.19320 0.43105 -0.07400
N 	N 	0.79640 0.18450 0.44373 -0.08000
C 	C 	0.55690 0.26910 0.37590 -0.09600
H 	H 	0.49150 0.28410 0.31930 0.06500
H 	H 	0.57850 0.33950 0.40710 0.06200
C 	C 	0.70230 0.21770 0.35790 -0.10700
H 	H 	0.75650 0.27120 0.32710 0.07700
H 	H 	0.68030 0.15260 0.31960 0.06800
C 	C 	0.38540 0.25790 0.48450 -0.35000
H 	H 	0.43540 0.32780 0.50350 0.15300
H 	H 	0.28910 0.27520 0.44780 0.14900
C 	C 	0.36000 0.19170 0.56640 0.39800
C 	C 	0.81880 0.28800 0.59320 0.39600
C 	C 	0.85830 0.28190 0.49890 -0.34600
H 	H 	0.96720 0.28080 0.50410 0.15900
H 	H 	0.82240 0.34960 0.46690 0.14800
C 	C 	0.38830 0.10700 0.37560 -0.36900
H 	H 	0.30000 0.09010 0.40210 0.13900
H 	H 	0.35380 0.13750 0.31620 0.14600
C 	C 	0.47330 0.99940 0.36630 0.40500
C 	C 	0.91850 0.10830 0.42820 -0.30900
H 	H 	0.88130 0.05820 0.37900 0.12400
H 	H 	0.00070 0.15150 0.41140 0.11600
C 	C 	0.97590 0.04080 0.51150 0.40700
