data_crystal

_cell_length_a 12.85630
_cell_length_b 12.85630
_cell_length_c 12.85630
_cell_angle_alpha 90.00000
_cell_angle_beta  90.00000
_cell_angle_gamma 90.00000

_symmetry_space_group_name_	'P 1'
_symmetry_space_group_name_H-M	'P 1'

loop_
_symmetry_equiv_pos_as_xyz
  x,y,z

loop_
_atom_site_label
_atom_site_type_symbol
_atom_site_fract_x
_atom_site_fract_y
_atom_site_fract_z
_atom_site_charge
N 	N 	0.72420 0.48120 0.03350 -0.03700
N 	N 	0.64190 0.43920 0.04460 -0.17000
N 	N 	0.80690 0.51590 0.02700 -0.09600
N 	N 	0.77580 0.51880 0.53350 -0.01400
N 	N 	0.85810 0.56080 0.54460 -0.08500
N 	N 	0.69310 0.48410 0.52700 -0.08200
N 	N 	0.27580 0.98120 0.46650 0.06500
N 	N 	0.35810 0.93920 0.45540 -0.11400
N 	N 	0.19310 0.01590 0.47300 -0.21800
N 	N 	0.22420 0.01880 0.96650 -0.09300
N 	N 	0.14190 0.06080 0.95540 -0.13200
N 	N 	0.30690 0.98410 0.97300 0.04500
N 	N 	0.03350 0.72420 0.48120 -0.03600
N 	N 	0.04460 0.64190 0.43920 -0.16900
N 	N 	0.02700 0.80690 0.51590 -0.09500
N 	N 	0.53350 0.77580 0.51880 -0.01300
N 	N 	0.54460 0.85810 0.56080 -0.08500
N 	N 	0.52700 0.69310 0.48410 -0.08200
N 	N 	0.46650 0.27580 0.98120 0.06500
N 	N 	0.45540 0.35810 0.93920 -0.11400
N 	N 	0.47300 0.19310 0.01590 -0.21800
N 	N 	0.96650 0.22420 0.01880 -0.09300
N 	N 	0.95540 0.14190 0.06080 -0.13200
N 	N 	0.97300 0.30690 0.98410 0.04500
N 	N 	0.48120 0.03350 0.72420 -0.03600
N 	N 	0.43920 0.04460 0.64190 -0.16900
N 	N 	0.51590 0.02700 0.80690 -0.09500
N 	N 	0.51880 0.53350 0.77580 -0.01300
N 	N 	0.56080 0.54460 0.85810 -0.08500
N 	N 	0.48410 0.52700 0.69310 -0.08200
N 	N 	0.98120 0.46650 0.27580 0.06500
N 	N 	0.93920 0.45540 0.35810 -0.11400
N 	N 	0.01590 0.47300 0.19310 -0.21800
N 	N 	0.01880 0.96650 0.22420 -0.09300
N 	N 	0.06080 0.95540 0.14190 -0.13200
N 	N 	0.98410 0.97300 0.30690 0.04500
N 	N 	0.27580 0.51880 0.96650 -0.00500
N 	N 	0.35810 0.56080 0.95540 -0.09300
N 	N 	0.19310 0.48410 0.97300 -0.07400
N 	N 	0.22420 0.48120 0.46650 -0.03000
N 	N 	0.14190 0.43920 0.45540 -0.17900
N 	N 	0.30690 0.51590 0.47300 -0.09800
N 	N 	0.72420 0.01880 0.53350 -0.10300
N 	N 	0.64190 0.06080 0.54460 -0.14800
N 	N 	0.80690 0.98410 0.52700 0.04200
N 	N 	0.77580 0.98120 0.03350 0.05900
N 	N 	0.85810 0.93920 0.04460 -0.08100
N 	N 	0.69310 0.01590 0.02700 -0.21700
N 	N 	0.96650 0.27580 0.51880 -0.00500
N 	N 	0.95540 0.35810 0.56080 -0.09300
N 	N 	0.97300 0.19310 0.48410 -0.07400
N 	N 	0.46650 0.22420 0.48120 -0.03000
N 	N 	0.45540 0.14190 0.43920 -0.17900
N 	N 	0.47300 0.30690 0.51590 -0.09800
N 	N 	0.53350 0.72420 0.01880 -0.10300
N 	N 	0.54460 0.64190 0.06080 -0.14800
N 	N 	0.52700 0.80690 0.98410 0.04200
N 	N 	0.03350 0.77580 0.98120 0.05900
N 	N 	0.04460 0.85810 0.93920 -0.08100
N 	N 	0.02700 0.69310 0.01590 -0.21700
N 	N 	0.51880 0.96650 0.27580 -0.00500
N 	N 	0.56080 0.95540 0.35810 -0.09300
N 	N 	0.48410 0.97300 0.19310 -0.07400
N 	N 	0.48120 0.46650 0.22420 -0.03000
N 	N 	0.43920 0.45540 0.14190 -0.17900
N 	N 	0.51590 0.47300 0.30690 -0.09800
N 	N 	0.01880 0.53350 0.72420 -0.10300
N 	N 	0.06080 0.54460 0.64190 -0.14800
N 	N 	0.98410 0.52700 0.80690 0.04200
N 	N 	0.98120 0.03350 0.77580 0.05900
N 	N 	0.93920 0.04460 0.85810 -0.08100
N 	N 	0.01590 0.02700 0.69310 -0.21700
Ru	Ru	0.50000 0.50000 -0.00000 0.88300
Ru	Ru	0.00000 0.50000 0.50000 0.88300
Ru	Ru	0.50000 0.00000 0.50000 0.88300
Ru	Ru	-0.00000 0.00000 -0.00000 0.69400
Na	Na	-0.00000 0.50000 -0.00000 0.54600
Na	Na	0.50000 0.50000 0.50000 0.58500
Na	Na	0.00000 0.00000 0.50000 0.54600
Na	Na	0.50000 0.00000 -0.00000 0.54600
