data_crystal

_cell_length_a 14.71000
_cell_length_b 13.07400
_cell_length_c 15.26100
_cell_angle_alpha 90.00000
_cell_angle_beta  111.04000
_cell_angle_gamma 90.00000

_symmetry_space_group_name_	'P 1'
_symmetry_space_group_name_H-M	'P 1'

loop_
_symmetry_equiv_pos_as_xyz
  x,y,z

loop_
_atom_site_label
_atom_site_type_symbol
_atom_site_fract_x
_atom_site_fract_y
_atom_site_fract_z
_atom_site_charge
Al	Al	0.25026 0.62905 0.58198 2.38500
Al	Al	0.08357 0.39527 0.66327 2.39200
Al	Al	0.87562 0.69070 0.62320 2.39000
P 	P 	0.09202 0.63458 0.67058 0.78400
P 	P 	0.24583 0.38831 0.57898 0.80000
P 	P 	0.12278 0.68508 0.37194 0.77300
O 	O 	0.06370 0.52660 0.63570 -0.86900
O 	O 	0.27950 0.49440 0.61270 -0.76200
O 	O 	0.17290 0.34830 0.62090 -0.82600
O 	O 	0.16150 0.67930 0.62930 -0.75700
O 	O 	0.00130 0.70240 0.64060 -0.79400
O 	O 	0.20850 0.64350 0.45420 -0.79200
O 	O 	0.12120 0.62670 0.28560 -0.80500
O 	O 	0.33510 0.31970 0.60890 -0.76500
O 	O 	0.19780 0.38780 0.47260 -0.80900
O 	O 	0.13590 0.79970 0.36240 -0.74500
O 	O 	0.14010 0.63160 0.77700 -0.79900
O 	O 	0.02760 0.67050 0.38810 -0.80500
Al	Al	0.75026 0.12905 0.58198 2.38600
Al	Al	0.58357 0.89527 0.66327 2.39300
Al	Al	0.37562 0.19070 0.62320 2.39100
P 	P 	0.59202 0.13458 0.67058 0.78500
P 	P 	0.74583 0.88831 0.57898 0.80000
P 	P 	0.62278 0.18508 0.37194 0.77300
O 	O 	0.56370 0.02660 0.63570 -0.87000
O 	O 	0.77950 0.99440 0.61270 -0.76300
O 	O 	0.67290 0.84830 0.62090 -0.82600
O 	O 	0.66150 0.17930 0.62930 -0.75700
O 	O 	0.50130 0.20240 0.64060 -0.79400
O 	O 	0.70850 0.14350 0.45420 -0.79200
O 	O 	0.62120 0.12670 0.28560 -0.80400
O 	O 	0.83510 0.81970 0.60890 -0.76500
O 	O 	0.69780 0.88780 0.47260 -0.80900
O 	O 	0.63590 0.29970 0.36240 -0.74400
O 	O 	0.64010 0.13160 0.77700 -0.79900
O 	O 	0.52760 0.17050 0.38810 -0.80500
Al	Al	0.74974 0.62905 0.91802 2.38600
Al	Al	0.91643 0.39527 0.83673 2.39300
Al	Al	0.12438 0.69070 0.87680 2.39100
P 	P 	0.90798 0.63458 0.82942 0.78500
P 	P 	0.75417 0.38831 0.92102 0.79900
P 	P 	0.87722 0.68508 0.12806 0.77300
O 	O 	0.93630 0.52660 0.86430 -0.87000
O 	O 	0.72050 0.49440 0.88730 -0.76200
O 	O 	0.82710 0.34830 0.87910 -0.82700
O 	O 	0.83850 0.67930 0.87070 -0.75700
O 	O 	0.99870 0.70240 0.85940 -0.79500
O 	O 	0.79150 0.64350 0.04580 -0.79100
O 	O 	0.87880 0.62670 0.21440 -0.80400
O 	O 	0.66490 0.31970 0.89110 -0.76500
O 	O 	0.80220 0.38780 0.02740 -0.80800
O 	O 	0.86410 0.79970 0.13760 -0.74400
O 	O 	0.85990 0.63160 0.72300 -0.79900
O 	O 	0.97240 0.67050 0.11190 -0.80500
Al	Al	0.24974 0.12905 0.91802 2.38600
Al	Al	0.41643 0.89527 0.83673 2.39300
Al	Al	0.62438 0.19070 0.87680 2.39100
P 	P 	0.40798 0.13458 0.82942 0.78500
P 	P 	0.25417 0.88831 0.92102 0.80100
P 	P 	0.37722 0.18508 0.12806 0.77300
O 	O 	0.43630 0.02660 0.86430 -0.87000
O 	O 	0.22050 0.99440 0.88730 -0.76200
O 	O 	0.32710 0.84830 0.87910 -0.82600
O 	O 	0.33850 0.17930 0.87070 -0.75700
O 	O 	0.49870 0.20240 0.85940 -0.79400
O 	O 	0.29150 0.14350 0.04580 -0.79200
O 	O 	0.37880 0.12670 0.21440 -0.80400
O 	O 	0.16490 0.81970 0.89110 -0.76500
O 	O 	0.30220 0.88780 0.02740 -0.81000
O 	O 	0.36410 0.29970 0.13760 -0.74400
O 	O 	0.35990 0.13160 0.72300 -0.79900
O 	O 	0.47240 0.17050 0.11190 -0.80400
Al	Al	0.74974 0.37095 0.41802 2.38600
Al	Al	0.91643 0.60473 0.33673 2.39300
Al	Al	0.12438 0.30930 0.37680 2.39100
P 	P 	0.90798 0.36542 0.32942 0.78500
P 	P 	0.75417 0.61169 0.42102 0.80000
P 	P 	0.87722 0.31492 0.62806 0.77300
O 	O 	0.93630 0.47340 0.36430 -0.86900
O 	O 	0.72050 0.50560 0.38730 -0.76200
O 	O 	0.82710 0.65170 0.37910 -0.82600
O 	O 	0.83850 0.32070 0.37070 -0.75700
O 	O 	0.99870 0.29760 0.35940 -0.79400
O 	O 	0.79150 0.35650 0.54580 -0.79200
O 	O 	0.87880 0.37330 0.71440 -0.80500
O 	O 	0.66490 0.68030 0.39110 -0.76500
O 	O 	0.80220 0.61220 0.52740 -0.80900
O 	O 	0.86410 0.20030 0.63760 -0.74500
O 	O 	0.85990 0.36840 0.22300 -0.79900
O 	O 	0.97240 0.32950 0.61190 -0.80500
Al	Al	0.24974 0.87095 0.41802 2.38600
Al	Al	0.41643 0.10473 0.33673 2.39300
Al	Al	0.62438 0.80930 0.37680 2.39100
P 	P 	0.40798 0.86542 0.32942 0.78500
P 	P 	0.25417 0.11169 0.42102 0.80000
P 	P 	0.37722 0.81492 0.62806 0.77300
O 	O 	0.43630 0.97340 0.36430 -0.87000
O 	O 	0.22050 0.00560 0.38730 -0.76300
O 	O 	0.32710 0.15170 0.37910 -0.82600
O 	O 	0.33850 0.82070 0.37070 -0.75700
O 	O 	0.49870 0.79760 0.35940 -0.79400
O 	O 	0.29150 0.85650 0.54580 -0.79200
O 	O 	0.37880 0.87330 0.71440 -0.80400
O 	O 	0.16490 0.18030 0.39110 -0.76500
O 	O 	0.30220 0.11220 0.52740 -0.80900
O 	O 	0.36410 0.70030 0.63760 -0.74400
O 	O 	0.35990 0.86840 0.22300 -0.79900
O 	O 	0.47240 0.82950 0.61190 -0.80500
Al	Al	0.25026 0.37095 0.08198 2.38600
Al	Al	0.08357 0.60473 0.16327 2.39300
Al	Al	0.87562 0.30930 0.12320 2.39100
P 	P 	0.09202 0.36542 0.17058 0.78500
P 	P 	0.24583 0.61169 0.07898 0.79900
P 	P 	0.12278 0.31492 0.87194 0.77300
O 	O 	0.06370 0.47340 0.13570 -0.87000
O 	O 	0.27950 0.50560 0.11270 -0.76200
O 	O 	0.17290 0.65170 0.12090 -0.82700
O 	O 	0.16150 0.32070 0.12930 -0.75700
O 	O 	0.00130 0.29760 0.14060 -0.79500
O 	O 	0.20850 0.35650 0.95420 -0.79100
O 	O 	0.12120 0.37330 0.78560 -0.80400
O 	O 	0.33510 0.68030 0.10890 -0.76500
O 	O 	0.19780 0.61220 0.97260 -0.80800
O 	O 	0.13590 0.20030 0.86240 -0.74400
O 	O 	0.14010 0.36840 0.27700 -0.79900
O 	O 	0.02760 0.32950 0.88810 -0.80500
Al	Al	0.75026 0.87095 0.08198 2.38600
Al	Al	0.58357 0.10473 0.16327 2.39300
Al	Al	0.37562 0.80930 0.12320 2.39100
P 	P 	0.59202 0.86542 0.17058 0.78500
P 	P 	0.74583 0.11169 0.07898 0.80100
P 	P 	0.62278 0.81492 0.87194 0.77300
O 	O 	0.56370 0.97340 0.13570 -0.87000
O 	O 	0.77950 0.00560 0.11270 -0.76200
O 	O 	0.67290 0.15170 0.12090 -0.82600
O 	O 	0.66150 0.82070 0.12930 -0.75700
O 	O 	0.50130 0.79760 0.14060 -0.79400
O 	O 	0.70850 0.85650 0.95420 -0.79200
O 	O 	0.62120 0.87330 0.78560 -0.80400
O 	O 	0.83510 0.18030 0.10890 -0.76500
O 	O 	0.69780 0.11220 0.97260 -0.81000
O 	O 	0.63590 0.70030 0.86240 -0.74400
O 	O 	0.64010 0.86840 0.27700 -0.79900
O 	O 	0.52760 0.82950 0.88810 -0.80400
