data_crystal

_cell_length_a 14.71800
_cell_length_b 13.06300
_cell_length_c 15.22900
_cell_angle_alpha 90.00000
_cell_angle_beta  110.92000
_cell_angle_gamma 90.00000

_symmetry_space_group_name_	'P 1'
_symmetry_space_group_name_H-M	'P 1'

loop_
_symmetry_equiv_pos_as_xyz
  x,y,z

loop_
_atom_site_label
_atom_site_type_symbol
_atom_site_fract_x
_atom_site_fract_y
_atom_site_fract_z
_atom_site_charge
Al	Al	0.37526 0.19088 0.12366 2.39100
Al	Al	0.58341 0.89416 0.16313 2.39200
Co	Co	0.08341 0.39416 0.16313 1.26000
Al	Al	0.25080 0.87215 0.91873 2.38400
Co	Co	0.24920 0.62785 0.08127 1.25000
P 	P 	0.25360 0.11202 0.92122 0.78600
P 	P 	0.59130 0.13319 0.17051 0.75400
P 	P 	0.37618 0.81418 0.12816 0.74800
O 	O 	0.56290 0.02550 0.13680 -0.80600
O 	O 	0.22120 0.00620 0.88870 -0.74800
O 	O 	0.50110 0.20090 0.14040 -0.77700
O 	O 	0.29250 0.85710 0.04660 -0.74200
O 	O 	0.66000 0.17600 0.12700 -0.47200
O 	O 	0.32680 0.15160 0.87980 -0.82300
O 	O 	0.30040 0.11390 0.02760 -0.75900
O 	O 	0.47360 0.82730 0.11380 -0.79600
O 	O 	0.36210 0.69940 0.13660 -0.47200
O 	O 	0.64070 0.13100 0.27700 -0.77300
O 	O 	0.37650 0.87080 0.21480 -0.80600
O 	O 	0.16500 0.17940 0.89080 -0.76600
Al	Al	0.87526 0.69088 0.12366 2.39100
Al	Al	0.75080 0.37215 0.91873 2.38500
Co	Co	0.74920 0.12785 0.08127 1.26200
P 	P 	0.75360 0.61202 0.92122 0.74100
P 	P 	0.09130 0.63319 0.17051 0.70300
P 	P 	0.87618 0.31418 0.12816 0.64500
O 	O 	0.06290 0.52550 0.13680 -0.54700
O 	O 	0.72120 0.50620 0.88870 -0.75000
O 	O 	0.00110 0.70090 0.14040 -0.77100
O 	O 	0.79250 0.35710 0.04660 -0.70700
O 	O 	0.16000 0.67600 0.12700 -0.47000
O 	O 	0.82680 0.65160 0.87980 -0.56000
O 	O 	0.80040 0.61390 0.02760 -0.75300
O 	O 	0.97360 0.32730 0.11380 -0.49000
O 	O 	0.86210 0.19940 0.13660 -0.43600
O 	O 	0.14070 0.63100 0.27700 -0.75800
O 	O 	0.87650 0.37080 0.21480 -0.48500
O 	O 	0.66500 0.67940 0.89080 -0.76500
Al	Al	0.62474 0.19088 0.37634 2.39100
Al	Al	0.41659 0.89416 0.33687 2.39200
Co	Co	0.91659 0.39416 0.33687 1.26000
Al	Al	0.74920 0.87215 0.58127 2.38500
Co	Co	0.75080 0.62785 0.41873 1.23700
P 	P 	0.74640 0.11202 0.57878 0.82400
P 	P 	0.40870 0.13319 0.32949 0.75400
P 	P 	0.62382 0.81418 0.37184 0.74800
O 	O 	0.43710 0.02550 0.36320 -0.81500
O 	O 	0.77880 0.00620 0.61130 -0.74000
O 	O 	0.49890 0.20090 0.35960 -0.78600
O 	O 	0.70750 0.85710 0.45340 -0.76600
O 	O 	0.34000 0.17600 0.37300 -0.48200
O 	O 	0.67320 0.15160 0.62020 -0.81800
O 	O 	0.69960 0.11390 0.47240 -0.79800
O 	O 	0.52640 0.82730 0.38620 -0.80900
O 	O 	0.63790 0.69940 0.36340 -0.47900
O 	O 	0.35930 0.13100 0.22300 -0.77100
O 	O 	0.62350 0.87080 0.28520 -0.80700
O 	O 	0.83500 0.17940 0.60920 -0.75900
Al	Al	0.12474 0.69088 0.37634 2.39100
Al	Al	0.24920 0.37215 0.58127 2.38700
Co	Co	0.25080 0.12785 0.41873 1.24800
P 	P 	0.24640 0.61202 0.57878 0.77800
P 	P 	0.90870 0.63319 0.32949 0.70300
P 	P 	0.12382 0.31418 0.37184 0.64500
O 	O 	0.93710 0.52550 0.36320 -0.55300
O 	O 	0.27880 0.50620 0.61130 -0.74400
O 	O 	0.99890 0.70090 0.35960 -0.77700
O 	O 	0.20750 0.35710 0.45340 -0.73300
O 	O 	0.84000 0.67600 0.37300 -0.48000
O 	O 	0.17320 0.65160 0.62020 -0.55600
O 	O 	0.19960 0.61390 0.47240 -0.79400
O 	O 	0.02640 0.32730 0.38620 -0.50600
O 	O 	0.13790 0.19940 0.36340 -0.44400
O 	O 	0.85930 0.63100 0.22300 -0.75500
O 	O 	0.12350 0.37080 0.28520 -0.48700
O 	O 	0.33500 0.67940 0.60920 -0.76000
Al	Al	0.62474 0.80912 0.87634 2.39000
Al	Al	0.41659 0.10584 0.83687 2.39500
Co	Co	0.91659 0.60584 0.83687 1.25600
P 	P 	0.74640 0.88798 0.07878 0.81300
P 	P 	0.40870 0.86681 0.82949 0.79900
P 	P 	0.62382 0.18582 0.87184 0.73500
O 	O 	0.43710 0.97450 0.86320 -0.90800
O 	O 	0.77880 0.99380 0.11130 -0.52400
O 	O 	0.49890 0.79910 0.85960 -0.80400
O 	O 	0.70750 0.14290 0.95340 -0.54100
O 	O 	0.34000 0.82400 0.87300 -0.78100
O 	O 	0.67320 0.84840 0.12020 -0.81100
O 	O 	0.69960 0.88610 0.97240 -0.83500
O 	O 	0.52640 0.17270 0.88620 -0.78400
O 	O 	0.63790 0.30060 0.86340 -0.73700
O 	O 	0.35930 0.86900 0.72300 -0.80900
O 	O 	0.62350 0.12920 0.78520 -0.78500
O 	O 	0.83500 0.82060 0.10920 -0.75600
Al	Al	0.12474 0.30912 0.87634 2.39000
P 	P 	0.24640 0.38798 0.07878 0.76700
P 	P 	0.90870 0.36681 0.82949 0.74800
P 	P 	0.12382 0.68582 0.87184 0.63400
O 	O 	0.93710 0.47450 0.86320 -0.58700
O 	O 	0.27880 0.49380 0.11130 -0.46800
O 	O 	0.99890 0.29910 0.85960 -0.78200
O 	O 	0.20750 0.64290 0.95340 -0.53600
O 	O 	0.84000 0.32400 0.87300 -0.76000
O 	O 	0.17320 0.34840 0.12020 -0.52900
O 	O 	0.19960 0.38610 0.97240 -0.80800
O 	O 	0.02640 0.67270 0.88620 -0.50400
O 	O 	0.13790 0.80060 0.86340 -0.72500
O 	O 	0.85930 0.36900 0.72300 -0.77000
O 	O 	0.12350 0.62920 0.78520 -0.49800
O 	O 	0.33500 0.32060 0.10920 -0.74500
Al	Al	0.37526 0.80912 0.62366 2.39100
Al	Al	0.58341 0.10584 0.66313 2.39500
Co	Co	0.08341 0.60584 0.66313 1.25600
P 	P 	0.25360 0.88798 0.42122 0.77600
P 	P 	0.59130 0.86681 0.67051 0.79900
P 	P 	0.37618 0.18582 0.62816 0.73400
O 	O 	0.56290 0.97450 0.63680 -0.89900
O 	O 	0.22120 0.99380 0.38870 -0.52900
O 	O 	0.50110 0.79910 0.64040 -0.79400
O 	O 	0.29250 0.14290 0.54660 -0.51300
O 	O 	0.66000 0.82400 0.62700 -0.76800
O 	O 	0.32680 0.84840 0.37980 -0.81600
O 	O 	0.30040 0.88610 0.52760 -0.79700
O 	O 	0.47360 0.17270 0.61380 -0.77100
O 	O 	0.36210 0.30060 0.63660 -0.72800
O 	O 	0.64070 0.86900 0.77700 -0.81100
O 	O 	0.37650 0.12920 0.71480 -0.78400
O 	O 	0.16500 0.82060 0.39080 -0.76300
Al	Al	0.87526 0.30912 0.62366 2.39100
P 	P 	0.75360 0.38798 0.42122 0.72900
P 	P 	0.09130 0.36681 0.67051 0.74800
P 	P 	0.87618 0.68582 0.62816 0.63300
O 	O 	0.06290 0.47450 0.63680 -0.58100
O 	O 	0.72120 0.49380 0.38870 -0.47100
O 	O 	0.00110 0.29910 0.64040 -0.77700
O 	O 	0.79250 0.64290 0.54660 -0.50800
O 	O 	0.16000 0.32400 0.62700 -0.74800
O 	O 	0.82680 0.34840 0.37980 -0.53200
O 	O 	0.80040 0.38610 0.52760 -0.76600
O 	O 	0.97360 0.67270 0.61380 -0.48800
O 	O 	0.86210 0.80060 0.63660 -0.71400
O 	O 	0.14070 0.36900 0.77700 -0.77400
O 	O 	0.87650 0.62920 0.71480 -0.49400
O 	O 	0.66500 0.32060 0.39080 -0.75000
