data_crystal

_cell_length_a 16.28930
_cell_length_b 16.79910
_cell_length_c 17.48290
_cell_angle_alpha 86.41900
_cell_angle_beta  87.72500
_cell_angle_gamma 66.90500

_symmetry_space_group_name_	'P 1'
_symmetry_space_group_name_H-M	'P 1'

loop_
_symmetry_equiv_pos_as_xyz
  x,y,z

loop_
_atom_site_label
_atom_site_type_symbol
_atom_site_fract_x
_atom_site_fract_y
_atom_site_fract_z
_atom_site_charge
Ag	Ag	0.77904 0.07106 0.14922 0.48300
Ag	Ag	0.60357 0.29885 0.20186 0.47600
Ag	Ag	0.73149 0.09990 0.39054 0.48200
S 	S 	0.72035 0.22555 0.10260 -0.22700
S 	S 	0.84658 0.04202 0.27879 -0.21000
S 	S 	0.59986 0.19271 0.30620 -0.24300
P 	P 	0.77354 0.12101 0.51875 0.01000
P 	P 	0.71244 0.95407 0.42098 0.02900
P 	P 	0.81842 0.95392 0.06126 0.01400
P 	P 	0.49932 0.44823 0.19426 0.00600
C 	C 	0.69369 0.10307 0.58670 -0.02000
C 	C 	0.60358 0.15000 0.57268 -0.07400
H 	H 	0.58630 0.19040 0.52990 0.02900
C 	C 	0.53853 0.13842 0.62056 -0.02200
H 	H 	0.47720 0.17160 0.61100 0.03100
C 	C 	0.56302 0.07889 0.68172 -0.07600
H 	H 	0.51850 0.07040 0.71390 0.04400
C 	C 	0.65235 0.03138 0.69645 -0.02500
H 	H 	0.66900 0.99050 0.73890 0.01600
C 	C 	0.71821 0.04325 0.64903 -0.07700
H 	H 	0.77950 0.01060 0.65930 0.04400
C 	C 	0.77962 0.21932 0.55417 -0.01400
C 	C 	0.77609 0.28703 0.50335 -0.07000
H 	H 	0.77090 0.28260 0.45000 0.01700
C 	C 	0.78020 0.36141 0.53010 -0.02800
H 	H 	0.77720 0.40790 0.49500 0.01800
C 	C 	0.78848 0.36817 0.60714 -0.05900
H 	H 	0.79150 0.41920 0.62510 0.03600
C 	C 	0.79241 0.30141 0.65797 -0.02700
H 	H 	0.79820 0.30610 0.71120 0.02300
C 	C 	0.78790 0.22705 0.63201 -0.06800
H 	H 	0.79050 0.18100 0.66750 0.03500
C 	C 	0.88143 0.03637 0.54631 -0.17300
H 	H 	0.89740 0.04730 0.59760 0.07400
H 	H 	0.87650 0.97930 0.54960 0.07000
C 	C 	0.95502 0.03422 0.48829 -0.06600
H 	H 	0.93970 0.02190 0.43730 0.03200
H 	H 	0.95880 0.09170 0.48400 0.04400
C 	C 	0.69201 0.90536 0.33670 -0.02100
C 	C 	0.66090 0.95798 0.27039 -0.07000
H 	H 	0.65230 0.01730 0.26950 0.00500
C 	C 	0.64239 0.92445 0.20565 -0.04000
H 	H 	0.62110 0.96080 0.16090 0.02000
C 	C 	0.65493 0.83830 0.20650 -0.05000
H 	H 	0.64230 0.81530 0.16220 0.03200
C 	C 	0.68578 0.78536 0.27148 -0.03500
H 	H 	0.69440 0.72600 0.27190 0.02800
C 	C 	0.70432 0.81858 0.33631 -0.05500
H 	H 	0.72560 0.78170 0.38080 0.03800
C 	C 	0.81580 0.87189 0.45894 -0.02200
C 	C 	0.82305 0.83546 0.53345 -0.06700
H 	H 	0.77110 0.84850 0.56500 0.03000
C 	C 	0.90516 0.78040 0.56199 -0.03400
H 	H 	0.90920 0.75610 0.61290 0.02100
C 	C 	0.98145 0.76072 0.51635 -0.05700
H 	H 	0.03780 0.72310 0.53600 0.03900
C 	C 	0.97532 0.79572 0.44289 -0.03000
H 	H 	0.02760 0.78180 0.41160 0.03400
C 	C 	0.89347 0.85137 0.41361 -0.06800
H 	H 	0.89020 0.87560 0.36270 0.03600
C 	C 	0.62855 0.94507 0.49083 -0.17200
H 	H 	0.63310 0.88440 0.49440 0.07300
H 	H 	0.64180 0.95910 0.54190 0.06900
C 	C 	0.53351 0.00473 0.46996 -0.06400
H 	H 	0.51940 0.99050 0.41930 0.03900
H 	H 	0.52840 0.06550 0.46630 0.03600
C 	C 	0.73681 0.93906 0.00140 -0.00600
C 	C 	0.68076 0.01046 0.95835 -0.08800
H 	H 	0.68650 0.06440 0.96040 0.04500
C 	C 	0.61669 0.00415 0.91242 -0.00800
H 	H 	0.57860 0.05380 0.88350 0.02200
C 	C 	0.60765 0.92670 0.90831 -0.08000
H 	H 	0.56340 0.92250 0.87680 0.03400
C 	C 	0.66360 0.85470 0.95050 -0.01700
H 	H 	0.65810 0.80070 0.94730 0.01300
C 	C 	0.72765 0.86037 0.99721 -0.08500
H 	H 	0.76530 0.81070 0.02640 0.05300
C 	C 	0.88497 0.84596 0.10150 -0.01900
C 	C 	0.88045 0.83058 0.17996 -0.07000
H 	H 	0.84330 0.87590 0.21090 0.03000
C 	C 	0.92940 0.74980 0.21383 -0.02600
H 	H 	0.92560 0.74010 0.26770 0.03100
C 	C 	0.98349 0.68382 0.16987 -0.06000
H 	H 	0.01670 0.62840 0.19330 0.03800
C 	C 	0.98960 0.69797 0.09174 -0.03100
H 	H 	0.02720 0.65240 0.06130 0.02500
C 	C 	0.94088 0.77868 0.05770 -0.06500
H 	H 	0.94560 0.78830 0.00390 0.03800
C 	C 	0.89364 0.97598 0.98968 -0.19100
H 	H 	0.91900 0.92680 0.95570 0.07500
H 	H 	0.85960 0.02860 0.95770 0.06500
C 	C 	0.96925 0.98905 0.02900 -0.06100
H 	H 	0.94360 0.03660 0.06470 0.01100
H 	H 	0.00450 0.93550 0.05940 0.02700
C 	C 	0.50785 0.51368 0.26999 -0.02100
C 	C 	0.43795 0.55457 0.32052 -0.07700
H 	H 	0.38280 0.54820 0.31670 0.05400
C 	C 	0.44850 0.60440 0.37623 -0.02500
H 	H 	0.40020 0.63230 0.41030 0.02900
C 	C 	0.52720 0.61396 0.38299 -0.08000
H 	H 	0.53330 0.64940 0.42080 0.04400
C 	C 	0.59840 0.57170 0.33435 -0.02400
H 	H 	0.65360 0.57740 0.33940 0.01800
C 	C 	0.58896 0.52111 0.27830 -0.08700
H 	H 	0.63810 0.49150 0.24560 0.02700
C 	C 	0.38250 0.46276 0.19258 -0.01300
C 	C 	0.36084 0.39265 0.21336 -0.07200
H 	H 	0.40610 0.33920 0.23040 0.02400
C 	C 	0.27320 0.39990 0.20940 -0.02200
H 	H 	0.25860 0.35160 0.22440 0.02200
C 	C 	0.20740 0.47670 0.18400 -0.06500
H 	H 	0.14780 0.48100 0.18050 0.03600
C 	C 	0.22787 0.54730 0.16350 -0.02200
H 	H 	0.18230 0.60060 0.14680 0.02200
C 	C 	0.31486 0.54027 0.16740 -0.06900
H 	H 	0.32890 0.58890 0.15270 0.04700
C 	C 	0.51045 0.51171 0.10832 -0.17200
H 	H 	0.46480 0.57150 0.11020 0.07500
H 	H 	0.57000 0.51480 0.10740 0.06000
C 	C 	0.49937 0.47190 0.03573 -0.06600
H 	H 	0.44210 0.46410 0.03880 0.03900
H 	H 	0.54820 0.41400 0.03180 0.03100
C 	C 	0.67253 0.23017 0.01231 -0.23700
C 	C 	0.58782 0.22834 0.00450 0.31900
C 	C 	0.55350 0.23483 0.93147 -0.45000
H 	H 	0.49510 0.23600 0.92680 0.16800
C 	C 	0.60180 0.23962 0.86562 0.45100
C 	C 	0.68620 0.23799 0.87418 -0.47600
H 	H 	0.72080 0.23950 0.82940 0.17200
C 	C 	0.72310 0.23428 0.94538 0.36100
C 	C 	0.53379 0.21650 0.07236 -0.62600
H 	H 	0.57170 0.16850 0.10620 0.16500
H 	H 	0.48420 0.20350 0.05490 0.19600
H 	H 	0.51010 0.26990 0.10040 0.16400
C 	C 	0.56120 0.24700 0.78757 -0.80900
H 	H 	0.52450 0.21250 0.78880 0.25500
H 	H 	0.60900 0.22530 0.74900 0.26000
H 	H 	0.52390 0.30780 0.77450 0.26200
C 	C 	0.81430 0.23430 0.94980 -0.71000
H 	H 	0.81010 0.28910 0.96980 0.22500
H 	H 	0.84190 0.22810 0.89850 0.21900
H 	H 	0.85070 0.18590 0.98400 0.22100
C 	C 	0.93346 0.07984 0.26062 -0.22300
C 	C 	0.91918 0.16758 0.26411 0.30000
C 	C 	0.98957 0.19360 0.24809 -0.42400
H 	H 	0.97940 0.25300 0.25120 0.15500
C 	C 	0.07424 0.13560 0.22764 0.41800
C 	C 	0.08714 0.04950 0.22404 -0.44900
H 	H 	0.14450 0.00910 0.20950 0.16600
C 	C 	0.01974 0.01966 0.24078 0.33500
C 	C 	0.82849 0.23466 0.28271 -0.58500
H 	H 	0.78670 0.23800 0.24260 0.14600
H 	H 	0.83240 0.29120 0.28550 0.17500
H 	H 	0.80720 0.21850 0.33210 0.15400
C 	C 	0.15000 0.16510 0.21040 -0.75900
H 	H 	0.12560 0.22630 0.19290 0.23100
H 	H 	0.18890 0.13040 0.17020 0.23900
H 	H 	0.18450 0.15760 0.25690 0.23100
C 	C 	0.03857 0.92529 0.23659 -0.68000
H 	H 	0.03090 0.90130 0.28760 0.22000
H 	H 	0.10000 0.89470 0.21830 0.20800
H 	H 	0.99710 0.91820 0.20110 0.21000
C 	C 	0.49736 0.24707 0.35550 -0.24200
C 	C 	0.48504 0.31777 0.40044 0.34400
C 	C 	0.40161 0.36182 0.43395 -0.46200
H 	H 	0.39290 0.41090 0.46250 0.17300
C 	C 	0.33130 0.33670 0.42710 0.44800
C 	C 	0.34498 0.26688 0.38244 -0.47000
H 	H 	0.29700 0.24910 0.37670 0.17000
C 	C 	0.42541 0.22222 0.34611 0.36200
C 	C 	0.55956 0.34594 0.41228 -0.67500
H 	H 	0.60630 0.30050 0.44210 0.19900
H 	H 	0.53700 0.39950 0.44000 0.21600
H 	H 	0.58430 0.35630 0.36240 0.19100
C 	C 	0.24200 0.38490 0.46580 -0.78400
H 	H 	0.25140 0.40880 0.51290 0.23900
H 	H 	0.21240 0.34500 0.47850 0.24300
H 	H 	0.20460 0.43220 0.43110 0.24200
C 	C 	0.43340 0.15129 0.29481 -0.70200
H 	H 	0.44590 0.16740 0.24210 0.21300
H 	H 	0.37730 0.14250 0.29650 0.21500
H 	H 	0.48210 0.09760 0.31220 0.22300
Ag	Ag	0.22096 0.92894 0.85078 0.48200
Ag	Ag	0.39643 0.70115 0.79814 0.47500
Ag	Ag	0.26851 0.90010 0.60946 0.48100
S 	S 	0.27965 0.77445 0.89740 -0.22800
S 	S 	0.15342 0.95798 0.72121 -0.21100
S 	S 	0.40014 0.80729 0.69380 -0.24400
P 	P 	0.22646 0.87899 0.48125 0.01000
P 	P 	0.28756 0.04593 0.57902 0.02900
P 	P 	0.18158 0.04608 0.93874 0.01400
P 	P 	0.50068 0.55177 0.80574 0.00600
C 	C 	0.30631 0.89693 0.41330 -0.02000
C 	C 	0.39642 0.85000 0.42732 -0.07400
H 	H 	0.41370 0.80960 0.47010 0.02900
C 	C 	0.46147 0.86158 0.37944 -0.02200
H 	H 	0.52280 0.82840 0.38900 0.03100
C 	C 	0.43698 0.92111 0.31828 -0.07600
H 	H 	0.48150 0.92960 0.28610 0.04400
C 	C 	0.34765 0.96862 0.30355 -0.02500
H 	H 	0.33100 0.00950 0.26110 0.01600
C 	C 	0.28179 0.95675 0.35097 -0.07700
H 	H 	0.22050 0.98940 0.34070 0.04400
C 	C 	0.22038 0.78068 0.44583 -0.01400
C 	C 	0.22391 0.71297 0.49665 -0.07000
H 	H 	0.22910 0.71740 0.55000 0.01700
C 	C 	0.21980 0.63859 0.46990 -0.02800
H 	H 	0.22280 0.59210 0.50500 0.01800
C 	C 	0.21152 0.63183 0.39286 -0.05900
H 	H 	0.20850 0.58080 0.37490 0.03600
C 	C 	0.20759 0.69859 0.34203 -0.02700
H 	H 	0.20180 0.69390 0.28880 0.02300
C 	C 	0.21210 0.77295 0.36799 -0.06800
H 	H 	0.20950 0.81900 0.33250 0.03500
C 	C 	0.11857 0.96363 0.45369 -0.17300
H 	H 	0.10260 0.95270 0.40240 0.07400
H 	H 	0.12350 0.02070 0.45040 0.07000
C 	C 	0.04498 0.96578 0.51171 -0.06600
H 	H 	0.06030 0.97810 0.56270 0.03200
H 	H 	0.04120 0.90830 0.51600 0.04400
C 	C 	0.30799 0.09464 0.66330 -0.02100
C 	C 	0.33910 0.04202 0.72961 -0.07000
H 	H 	0.34770 0.98270 0.73050 0.00500
C 	C 	0.35761 0.07555 0.79435 -0.04000
H 	H 	0.37890 0.03920 0.83910 0.02000
C 	C 	0.34507 0.16170 0.79350 -0.05000
H 	H 	0.35770 0.18470 0.83780 0.03200
C 	C 	0.31422 0.21464 0.72852 -0.03500
H 	H 	0.30560 0.27400 0.72810 0.02800
C 	C 	0.29568 0.18142 0.66369 -0.05500
H 	H 	0.27440 0.21830 0.61920 0.03800
C 	C 	0.18420 0.12811 0.54106 -0.02200
C 	C 	0.17695 0.16454 0.46655 -0.06700
H 	H 	0.22890 0.15150 0.43500 0.03000
C 	C 	0.09484 0.21960 0.43801 -0.03400
H 	H 	0.09080 0.24390 0.38710 0.02100
C 	C 	0.01855 0.23928 0.48365 -0.05700
H 	H 	0.96220 0.27690 0.46400 0.03900
C 	C 	0.02468 0.20428 0.55711 -0.03000
H 	H 	0.97240 0.21820 0.58840 0.03400
C 	C 	0.10653 0.14863 0.58639 -0.06800
H 	H 	0.10980 0.12440 0.63730 0.03600
C 	C 	0.37145 0.05493 0.50917 -0.17200
H 	H 	0.36690 0.11560 0.50560 0.07300
H 	H 	0.35820 0.04090 0.45810 0.06900
C 	C 	0.46649 0.99527 0.53004 -0.06400
H 	H 	0.48060 0.00950 0.58070 0.03900
H 	H 	0.47160 0.93450 0.53370 0.03600
C 	C 	0.26319 0.06094 0.99860 -0.00600
C 	C 	0.31924 0.98954 0.04165 -0.08800
H 	H 	0.31350 0.93560 0.03960 0.04500
C 	C 	0.38331 0.99585 0.08758 -0.00800
H 	H 	0.42140 0.94620 0.11650 0.02200
C 	C 	0.39235 0.07330 0.09169 -0.08000
H 	H 	0.43660 0.07750 0.12320 0.03400
C 	C 	0.33640 0.14530 0.04950 -0.01700
H 	H 	0.34190 0.19930 0.05270 0.01300
C 	C 	0.27235 0.13963 0.00279 -0.08500
H 	H 	0.23470 0.18930 0.97360 0.05300
C 	C 	0.11503 0.15404 0.89850 -0.01900
C 	C 	0.11955 0.16942 0.82004 -0.07000
H 	H 	0.15670 0.12410 0.78910 0.03000
C 	C 	0.07060 0.25020 0.78617 -0.02600
H 	H 	0.07440 0.25990 0.73230 0.03100
C 	C 	0.01651 0.31618 0.83013 -0.06000
H 	H 	0.98330 0.37160 0.80670 0.03800
C 	C 	0.01040 0.30203 0.90826 -0.03100
H 	H 	0.97280 0.34760 0.93870 0.02500
C 	C 	0.05912 0.22132 0.94230 -0.06500
H 	H 	0.05440 0.21170 0.99610 0.03800
C 	C 	0.10636 0.02402 0.01032 -0.19100
H 	H 	0.08100 0.07320 0.04430 0.07500
H 	H 	0.14040 0.97140 0.04230 0.06500
C 	C 	0.03075 0.01095 0.97100 -0.06100
H 	H 	0.05640 0.96340 0.93530 0.01100
H 	H 	0.99550 0.06450 0.94060 0.02700
C 	C 	0.49215 0.48632 0.73001 -0.02100
C 	C 	0.56205 0.44543 0.67948 -0.07700
H 	H 	0.61720 0.45180 0.68330 0.05400
C 	C 	0.55150 0.39560 0.62377 -0.02500
H 	H 	0.59980 0.36770 0.58970 0.02900
C 	C 	0.47280 0.38604 0.61701 -0.08000
H 	H 	0.46670 0.35060 0.57920 0.04400
C 	C 	0.40160 0.42830 0.66565 -0.02400
H 	H 	0.34640 0.42260 0.66060 0.01800
C 	C 	0.41104 0.47889 0.72170 -0.08700
H 	H 	0.36190 0.50850 0.75440 0.02700
C 	C 	0.61750 0.53724 0.80742 -0.01300
C 	C 	0.63916 0.60735 0.78664 -0.07200
H 	H 	0.59390 0.66080 0.76960 0.02400
C 	C 	0.72680 0.60010 0.79060 -0.02200
H 	H 	0.74140 0.64840 0.77560 0.02200
C 	C 	0.79260 0.52330 0.81600 -0.06500
H 	H 	0.85220 0.51900 0.81950 0.03600
C 	C 	0.77213 0.45270 0.83650 -0.02200
H 	H 	0.81770 0.39940 0.85320 0.02200
C 	C 	0.68514 0.45973 0.83260 -0.06900
H 	H 	0.67110 0.41110 0.84730 0.04700
C 	C 	0.48955 0.48829 0.89168 -0.17200
H 	H 	0.53520 0.42850 0.88980 0.07500
H 	H 	0.43000 0.48520 0.89260 0.06000
C 	C 	0.50063 0.52810 0.96427 -0.06600
H 	H 	0.55790 0.53590 0.96120 0.03900
H 	H 	0.45180 0.58600 0.96820 0.03100
C 	C 	0.32747 0.76983 0.98769 -0.23700
C 	C 	0.41218 0.77166 0.99550 0.31900
C 	C 	0.44650 0.76517 0.06853 -0.45000
H 	H 	0.50490 0.76400 0.07320 0.16800
C 	C 	0.39820 0.76038 0.13438 0.45100
C 	C 	0.31380 0.76201 0.12582 -0.47600
H 	H 	0.27920 0.76050 0.17060 0.17200
C 	C 	0.27690 0.76572 0.05462 0.36100
C 	C 	0.46621 0.78350 0.92764 -0.62600
H 	H 	0.42830 0.83150 0.89380 0.16500
H 	H 	0.51580 0.79650 0.94510 0.19600
H 	H 	0.48990 0.73010 0.89960 0.16400
C 	C 	0.43880 0.75300 0.21243 -0.80900
H 	H 	0.47550 0.78750 0.21120 0.25500
H 	H 	0.39100 0.77470 0.25100 0.26000
H 	H 	0.47610 0.69220 0.22550 0.26200
C 	C 	0.18570 0.76570 0.05020 -0.71000
H 	H 	0.18990 0.71090 0.03020 0.22500
H 	H 	0.15810 0.77190 0.10150 0.21900
H 	H 	0.14930 0.81410 0.01600 0.22100
C 	C 	0.06654 0.92016 0.73938 -0.22300
C 	C 	0.08082 0.83242 0.73589 0.30000
C 	C 	0.01043 0.80640 0.75191 -0.42400
H 	H 	0.02060 0.74700 0.74880 0.15500
C 	C 	0.92576 0.86440 0.77236 0.41800
C 	C 	0.91286 0.95050 0.77596 -0.44900
H 	H 	0.85550 0.99090 0.79050 0.16600
C 	C 	0.98026 0.98034 0.75922 0.33500
C 	C 	0.17151 0.76534 0.71729 -0.58500
H 	H 	0.21330 0.76200 0.75740 0.14600
H 	H 	0.16760 0.70880 0.71450 0.17500
H 	H 	0.19280 0.78150 0.66790 0.15400
C 	C 	0.85000 0.83490 0.78960 -0.75900
H 	H 	0.87440 0.77370 0.80710 0.23100
H 	H 	0.81110 0.86960 0.82980 0.23900
H 	H 	0.81550 0.84240 0.74310 0.23100
C 	C 	0.96143 0.07471 0.76341 -0.68000
H 	H 	0.96910 0.09870 0.71240 0.22000
H 	H 	0.90000 0.10530 0.78170 0.20800
H 	H 	0.00290 0.08180 0.79890 0.21000
C 	C 	0.50264 0.75293 0.64450 -0.24200
C 	C 	0.51496 0.68223 0.59956 0.34400
C 	C 	0.59839 0.63818 0.56605 -0.46200
H 	H 	0.60710 0.58910 0.53750 0.17300
C 	C 	0.66870 0.66330 0.57290 0.44800
C 	C 	0.65502 0.73312 0.61756 -0.47000
H 	H 	0.70300 0.75090 0.62330 0.17000
C 	C 	0.57459 0.77778 0.65389 0.36200
C 	C 	0.44044 0.65406 0.58772 -0.67500
H 	H 	0.39370 0.69950 0.55790 0.19900
H 	H 	0.46300 0.60050 0.56000 0.21600
H 	H 	0.41570 0.64370 0.63760 0.19100
C 	C 	0.75800 0.61510 0.53420 -0.78400
H 	H 	0.74860 0.59120 0.48710 0.23900
H 	H 	0.78760 0.65500 0.52150 0.24300
H 	H 	0.79540 0.56780 0.56890 0.24200
C 	C 	0.56660 0.84871 0.70519 -0.70200
H 	H 	0.55410 0.83260 0.75790 0.21300
H 	H 	0.62270 0.85750 0.70350 0.21500
H 	H 	0.51790 0.90240 0.68780 0.22300
