data_crystal

_cell_length_a 13.99660
_cell_length_b 13.99660
_cell_length_c 30.52100
_cell_angle_alpha 85.08280
_cell_angle_beta  85.08280
_cell_angle_gamma 88.52080

_symmetry_space_group_name_	'P 1'
_symmetry_space_group_name_H-M	'P 1'

loop_
_symmetry_equiv_pos_as_xyz
  x,y,z

loop_
_atom_site_label
_atom_site_type_symbol
_atom_site_fract_x
_atom_site_fract_y
_atom_site_fract_z
_atom_site_charge
Zn	Zn	0.60187 0.19503 0.53120 1.21700
Zn	Zn	0.81153 0.19571 0.51458 1.21700
Zn	Zn	0.19503 0.60187 0.03120 1.21700
Zn	Zn	0.19571 0.81153 0.01458 1.21700
H 	H 	0.83190 0.68910 0.71740 0.04700
H 	H 	0.80440 0.77380 0.74710 0.04500
H 	H 	0.56870 0.82290 0.67070 0.15400
H 	H 	0.57670 0.94050 0.61510 -0.03000
H 	H 	0.86160 0.94720 0.61600 -0.02300
H 	H 	0.85540 0.82720 0.67240 0.14500
H 	H 	0.81590 0.57190 0.82500 0.04800
H 	H 	0.88220 0.58320 0.78050 0.04700
H 	H 	0.95130 0.55450 0.85750 0.13900
H 	H 	0.03690 0.56330 0.91770 -0.01600
H 	H 	0.01240 0.84960 0.90610 -0.01200
H 	H 	0.92540 0.84240 0.84570 0.14300
H 	H 	0.69560 0.75040 0.81400 0.04700
H 	H 	0.61500 0.71040 0.78790 0.04500
H 	H 	0.54450 0.78270 0.84890 0.13300
H 	H 	0.42540 0.81280 0.90290 -0.01300
H 	H 	0.45880 0.54360 0.95860 -0.00700
H 	H 	0.58390 0.51770 0.90590 0.14800
H 	H 	0.65060 0.57800 0.73980 0.04500
H 	H 	0.68390 0.51170 0.78020 0.04500
H 	H 	0.89210 0.44510 0.67310 0.13500
H 	H 	0.86340 0.35240 0.61690 -0.00900
H 	H 	0.58180 0.36160 0.65310 -0.00200
H 	H 	0.60820 0.45480 0.71000 0.12300
H 	H 	0.46040 0.12300 0.47510 0.01100
H 	H 	0.29830 0.12710 0.46790 0.08200
H 	H 	0.25950 0.26250 0.57910 0.08200
H 	H 	0.42120 0.25460 0.58310 0.00500
H 	H 	0.96170 0.32170 0.54100 -0.00000
H 	H 	0.12370 0.32110 0.54640 0.08100
H 	H 	0.14680 0.07760 0.48700 0.09300
H 	H 	0.98280 0.08680 0.48130 -0.00400
H 	H 	0.68910 0.83190 0.21740 0.04700
H 	H 	0.77380 0.80440 0.24710 0.04500
H 	H 	0.82290 0.56870 0.17070 0.15400
H 	H 	0.94050 0.57670 0.11510 -0.02900
H 	H 	0.94720 0.86160 0.11600 -0.02300
H 	H 	0.82720 0.85540 0.17240 0.14500
H 	H 	0.57190 0.81590 0.32500 0.04800
H 	H 	0.58320 0.88220 0.28050 0.04700
H 	H 	0.55450 0.95130 0.35750 0.13800
H 	H 	0.56330 0.03690 0.41770 -0.01500
H 	H 	0.84960 0.01240 0.40610 -0.01100
H 	H 	0.84240 0.92540 0.34570 0.14300
H 	H 	0.75040 0.69560 0.31400 0.04700
H 	H 	0.71040 0.61500 0.28790 0.04500
H 	H 	0.78270 0.54450 0.34890 0.13300
H 	H 	0.81280 0.42540 0.40290 -0.01300
H 	H 	0.54360 0.45880 0.45860 -0.00700
H 	H 	0.51770 0.58390 0.40590 0.14800
H 	H 	0.57800 0.65060 0.23980 0.04500
H 	H 	0.51170 0.68390 0.28020 0.04500
H 	H 	0.44510 0.89210 0.17310 0.13500
H 	H 	0.35240 0.86340 0.11690 -0.00900
H 	H 	0.36160 0.58180 0.15310 -0.00200
H 	H 	0.45480 0.60820 0.21000 0.12300
H 	H 	0.12300 0.46040 0.97510 0.01100
H 	H 	0.12710 0.29830 0.96790 0.08200
H 	H 	0.26250 0.25950 0.07910 0.08200
H 	H 	0.25460 0.42120 0.08310 0.00500
H 	H 	0.32170 0.96170 0.04100 0.00000
H 	H 	0.32110 0.12370 0.04640 0.08100
H 	H 	0.07760 0.14680 0.98700 0.09300
H 	H 	0.08680 0.98280 0.98130 -0.00300
C 	C 	0.74710 0.64470 0.77423 0.02300
C 	C 	0.78060 0.71700 0.73592 0.01100
C 	C 	0.71180 0.81300 0.67761 0.31000
C 	C 	0.62770 0.84810 0.65990 -0.31600
C 	C 	0.63300 0.91880 0.62710 0.21100
C 	C 	0.71880 0.96080 0.61037 -0.24900
C 	C 	0.80250 0.92290 0.62750 0.19900
C 	C 	0.79910 0.85070 0.66100 -0.31200
C 	C 	0.71940 0.04440 0.57694 0.45000
C 	C 	0.83420 0.61500 0.79930 0.00900
C 	C 	0.92620 0.69840 0.84605 0.29900
C 	C 	0.96270 0.61390 0.86750 -0.29300
C 	C 	0.01490 0.61950 0.90310 0.18400
C 	C 	0.03600 0.70660 0.91775 -0.21800
C 	C 	0.00040 0.79040 0.89620 0.17500
C 	C 	0.94730 0.78610 0.86030 -0.28700
C 	C 	0.09310 0.71110 0.95655 0.42400
C 	C 	0.67080 0.69300 0.80380 -0.00100
C 	C 	0.57510 0.64710 0.87134 0.29100
C 	C 	0.52760 0.73500 0.87110 -0.28900
C 	C 	0.45580 0.75300 0.90320 0.16700
C 	C 	0.42870 0.68030 0.93667 -0.20800
C 	C 	0.47650 0.59210 0.93690 0.16700
C 	C 	0.55060 0.57600 0.90490 -0.27900
C 	C 	0.34530 0.69470 0.96948 0.43100
C 	C 	0.70510 0.55830 0.75618 0.00900
C 	C 	0.75350 0.46150 0.69648 0.27600
C 	C 	0.82960 0.42940 0.66890 -0.26300
C 	C 	0.81230 0.37430 0.63510 0.15700
C 	C 	0.71960 0.35140 0.62815 -0.19500
C 	C 	0.64370 0.37990 0.65688 0.14800
C 	C 	0.65930 0.43530 0.69104 -0.25700
C 	C 	0.70260 0.29320 0.59041 0.41100
C 	C 	0.41930 0.15130 0.49610 0.07300
C 	C 	0.32180 0.15340 0.49170 -0.12300
C 	C 	0.25900 0.19420 0.52249 0.05300
C 	C 	0.29870 0.23370 0.55765 -0.12600
C 	C 	0.39580 0.22880 0.55963 0.08100
C 	C 	0.99940 0.27160 0.53030 0.08100
C 	C 	0.09660 0.27100 0.53380 -0.13700
C 	C 	0.15480 0.19720 0.51880 0.06800
C 	C 	0.11070 0.12770 0.49860 -0.14300
C 	C 	0.01130 0.13350 0.49550 0.09600
C 	C 	0.64470 0.74710 0.27423 0.02300
C 	C 	0.71700 0.78060 0.23592 0.01100
C 	C 	0.81300 0.71180 0.17761 0.31000
C 	C 	0.84810 0.62770 0.15990 -0.31500
C 	C 	0.91880 0.63300 0.12710 0.21000
C 	C 	0.96080 0.71880 0.11037 -0.24800
C 	C 	0.92290 0.80250 0.12750 0.19900
C 	C 	0.85070 0.79910 0.16100 -0.31200
C 	C 	0.04440 0.71940 0.07694 0.44900
C 	C 	0.61500 0.83420 0.29930 0.00900
C 	C 	0.69840 0.92620 0.34605 0.29800
C 	C 	0.61390 0.96270 0.36750 -0.29000
C 	C 	0.61950 0.01490 0.40310 0.18100
C 	C 	0.70660 0.03600 0.41775 -0.21700
C 	C 	0.79040 0.00040 0.39620 0.17300
C 	C 	0.78610 0.94730 0.36030 -0.28500
C 	C 	0.71110 0.09310 0.45655 0.42400
C 	C 	0.69300 0.67080 0.30380 -0.00100
C 	C 	0.64710 0.57510 0.37134 0.29100
C 	C 	0.73500 0.52760 0.37110 -0.28900
C 	C 	0.75300 0.45580 0.40320 0.16700
C 	C 	0.68030 0.42870 0.43667 -0.20800
C 	C 	0.59210 0.47650 0.43690 0.16700
C 	C 	0.57600 0.55060 0.40490 -0.27900
C 	C 	0.69470 0.34530 0.46948 0.43100
C 	C 	0.55830 0.70510 0.25618 0.00900
C 	C 	0.46150 0.75350 0.19648 0.27600
C 	C 	0.42940 0.82960 0.16890 -0.26300
C 	C 	0.37430 0.81230 0.13510 0.15700
C 	C 	0.35140 0.71960 0.12815 -0.19500
C 	C 	0.37990 0.64370 0.15688 0.14800
C 	C 	0.43530 0.65930 0.19104 -0.25700
C 	C 	0.29320 0.70260 0.09041 0.41100
C 	C 	0.15130 0.41930 0.99610 0.07400
C 	C 	0.15340 0.32180 0.99170 -0.12300
C 	C 	0.19420 0.25900 0.02249 0.05400
C 	C 	0.23370 0.29870 0.05765 -0.12600
C 	C 	0.22880 0.39580 0.05963 0.08200
C 	C 	0.27160 0.99940 0.03030 0.07900
C 	C 	0.27100 0.09660 0.03380 -0.13500
C 	C 	0.19720 0.15480 0.01880 0.06700
C 	C 	0.12770 0.11070 0.99860 -0.14200
C 	C 	0.13350 0.01130 0.99550 0.09400
N 	N 	0.45660 0.18900 0.52984 -0.24800
N 	N 	0.95710 0.20130 0.51179 -0.25300
N 	N 	0.18900 0.45660 0.02984 -0.24800
N 	N 	0.20130 0.95710 0.01179 -0.25300
O 	O 	0.70020 0.74160 0.71106 -0.25300
O 	O 	0.64100 0.07320 0.56455 -0.49800
O 	O 	0.79890 0.08050 0.56273 -0.46000
O 	O 	0.87080 0.70200 0.81216 -0.25700
O 	O 	0.12870 0.63490 0.97312 -0.46900
O 	O 	0.10320 0.79340 0.96989 -0.46800
O 	O 	0.64570 0.62290 0.84100 -0.25000
O 	O 	0.30730 0.77710 0.97008 -0.46100
O 	O 	0.32030 0.62350 0.99505 -0.47900
O 	O 	0.77870 0.51730 0.72786 -0.24400
O 	O 	0.77530 0.27930 0.56392 -0.48100
O 	O 	0.61940 0.26380 0.58685 -0.45000
O 	O 	0.74160 0.70020 0.21106 -0.25300
O 	O 	0.07320 0.64100 0.06455 -0.49800
O 	O 	0.08050 0.79890 0.06273 -0.46000
O 	O 	0.70200 0.87080 0.31216 -0.25700
O 	O 	0.63490 0.12870 0.47312 -0.46900
O 	O 	0.79340 0.10320 0.46989 -0.46900
O 	O 	0.62290 0.64570 0.34100 -0.25000
O 	O 	0.77710 0.30730 0.47008 -0.46100
O 	O 	0.62350 0.32030 0.49505 -0.47900
O 	O 	0.51730 0.77870 0.22786 -0.24400
O 	O 	0.27930 0.77530 0.06392 -0.48100
O 	O 	0.26380 0.61940 0.08685 -0.45000
Zn	Zn	0.80497 0.39813 0.96880 1.21700
Zn	Zn	0.80429 0.18847 0.98542 1.21700
Zn	Zn	0.39813 0.80497 0.46880 1.21800
Zn	Zn	0.18847 0.80429 0.48542 1.21800
H 	H 	0.31090 0.16810 0.78260 0.04700
H 	H 	0.22620 0.19560 0.75290 0.04500
H 	H 	0.17710 0.43130 0.82930 0.15400
H 	H 	0.05950 0.42330 0.88490 -0.02900
H 	H 	0.05280 0.13840 0.88400 -0.02300
H 	H 	0.17280 0.14460 0.82760 0.14500
H 	H 	0.42810 0.18410 0.67500 0.04800
H 	H 	0.41680 0.11780 0.71950 0.04700
H 	H 	0.44550 0.04870 0.64250 0.13800
H 	H 	0.43670 0.96310 0.58230 -0.01500
H 	H 	0.15040 0.98760 0.59390 -0.01100
H 	H 	0.15760 0.07460 0.65430 0.14300
H 	H 	0.24960 0.30440 0.68600 0.04700
H 	H 	0.28960 0.38500 0.71210 0.04500
H 	H 	0.21730 0.45550 0.65110 0.13300
H 	H 	0.18720 0.57460 0.59710 -0.01300
H 	H 	0.45640 0.54120 0.54140 -0.00700
H 	H 	0.48230 0.41610 0.59410 0.14800
H 	H 	0.42200 0.34940 0.76020 0.04500
H 	H 	0.48830 0.31610 0.71980 0.04500
H 	H 	0.55490 0.10790 0.82690 0.13500
H 	H 	0.64760 0.13660 0.88310 -0.00900
H 	H 	0.63840 0.41820 0.84690 -0.00200
H 	H 	0.54520 0.39180 0.79000 0.12300
H 	H 	0.87700 0.53960 0.02490 0.01100
H 	H 	0.87290 0.70170 0.03210 0.08200
H 	H 	0.73750 0.74050 0.92090 0.08200
H 	H 	0.74540 0.57880 0.91690 0.00500
H 	H 	0.67830 0.03830 0.95900 0.00000
H 	H 	0.67890 0.87630 0.95360 0.08100
H 	H 	0.92240 0.85320 0.01300 0.09300
H 	H 	0.91320 0.01720 0.01870 -0.00300
H 	H 	0.16810 0.31090 0.28260 0.04700
H 	H 	0.19560 0.22620 0.25290 0.04500
H 	H 	0.43130 0.17710 0.32930 0.15400
H 	H 	0.42330 0.05950 0.38490 -0.03000
H 	H 	0.13840 0.05280 0.38400 -0.02300
H 	H 	0.14460 0.17280 0.32760 0.14500
H 	H 	0.18410 0.42810 0.17500 0.04800
H 	H 	0.11780 0.41680 0.21950 0.04700
H 	H 	0.04870 0.44550 0.14250 0.13900
H 	H 	0.96310 0.43670 0.08230 -0.01600
H 	H 	0.98760 0.15040 0.09390 -0.01200
H 	H 	0.07460 0.15760 0.15430 0.14300
H 	H 	0.30440 0.24960 0.18600 0.04700
H 	H 	0.38500 0.28960 0.21210 0.04500
H 	H 	0.45550 0.21730 0.15110 0.13300
H 	H 	0.57460 0.18720 0.09710 -0.01300
H 	H 	0.54120 0.45640 0.04140 -0.00700
H 	H 	0.41610 0.48230 0.09410 0.14800
H 	H 	0.34940 0.42200 0.26020 0.04500
H 	H 	0.31610 0.48830 0.21980 0.04500
H 	H 	0.10790 0.55490 0.32690 0.13500
H 	H 	0.13660 0.64760 0.38310 -0.00900
H 	H 	0.41820 0.63840 0.34690 -0.00200
H 	H 	0.39180 0.54520 0.29000 0.12300
H 	H 	0.53960 0.87700 0.52490 0.01100
H 	H 	0.70170 0.87290 0.53210 0.08200
H 	H 	0.74050 0.73750 0.42090 0.08200
H 	H 	0.57880 0.74540 0.41690 0.00500
H 	H 	0.03830 0.67830 0.45900 -0.00000
H 	H 	0.87630 0.67890 0.45360 0.08100
H 	H 	0.85320 0.92240 0.51300 0.09300
H 	H 	0.01720 0.91320 0.51870 -0.00400
C 	C 	0.35530 0.25290 0.72577 0.02300
C 	C 	0.28300 0.21940 0.76408 0.01100
C 	C 	0.18700 0.28820 0.82239 0.31000
C 	C 	0.15190 0.37230 0.84010 -0.31500
C 	C 	0.08120 0.36700 0.87290 0.21000
C 	C 	0.03920 0.28120 0.88963 -0.24800
C 	C 	0.07710 0.19750 0.87250 0.19900
C 	C 	0.14930 0.20090 0.83900 -0.31200
C 	C 	0.95560 0.28060 0.92306 0.44900
C 	C 	0.38500 0.16580 0.70070 0.00900
C 	C 	0.30160 0.07380 0.65395 0.29800
C 	C 	0.38610 0.03730 0.63250 -0.29000
C 	C 	0.38050 0.98510 0.59690 0.18100
C 	C 	0.29340 0.96400 0.58225 -0.21700
C 	C 	0.20960 0.99960 0.60380 0.17300
C 	C 	0.21390 0.05270 0.63970 -0.28500
C 	C 	0.28890 0.90690 0.54345 0.42400
C 	C 	0.30700 0.32920 0.69620 -0.00100
C 	C 	0.35290 0.42490 0.62866 0.29100
C 	C 	0.26500 0.47240 0.62890 -0.28900
C 	C 	0.24700 0.54420 0.59680 0.16700
C 	C 	0.31970 0.57130 0.56333 -0.20800
C 	C 	0.40790 0.52350 0.56310 0.16700
C 	C 	0.42400 0.44940 0.59510 -0.27900
C 	C 	0.30530 0.65470 0.53052 0.43100
C 	C 	0.44170 0.29490 0.74382 0.00900
C 	C 	0.53850 0.24650 0.80352 0.27600
C 	C 	0.57060 0.17040 0.83110 -0.26300
C 	C 	0.62570 0.18770 0.86490 0.15700
C 	C 	0.64860 0.28040 0.87185 -0.19500
C 	C 	0.62010 0.35630 0.84312 0.14800
C 	C 	0.56470 0.34070 0.80896 -0.25700
C 	C 	0.70680 0.29740 0.90959 0.41100
C 	C 	0.84870 0.58070 0.00390 0.07400
C 	C 	0.84660 0.67820 0.00830 -0.12300
C 	C 	0.80580 0.74100 0.97751 0.05400
C 	C 	0.76630 0.70130 0.94235 -0.12600
C 	C 	0.77120 0.60420 0.94037 0.08200
C 	C 	0.72840 0.00060 0.96970 0.07900
C 	C 	0.72900 0.90340 0.96620 -0.13500
C 	C 	0.80280 0.84520 0.98120 0.06700
C 	C 	0.87230 0.88930 0.00140 -0.14200
C 	C 	0.86650 0.98870 0.00450 0.09400
C 	C 	0.25290 0.35530 0.22577 0.02300
C 	C 	0.21940 0.28300 0.26408 0.01100
C 	C 	0.28820 0.18700 0.32239 0.31000
C 	C 	0.37230 0.15190 0.34010 -0.31600
C 	C 	0.36700 0.08120 0.37290 0.21100
C 	C 	0.28120 0.03920 0.38963 -0.24900
C 	C 	0.19750 0.07710 0.37250 0.19900
C 	C 	0.20090 0.14930 0.33900 -0.31200
C 	C 	0.28060 0.95560 0.42306 0.45000
C 	C 	0.16580 0.38500 0.20070 0.00900
C 	C 	0.07380 0.30160 0.15395 0.29900
C 	C 	0.03730 0.38610 0.13250 -0.29300
C 	C 	0.98510 0.38050 0.09690 0.18400
C 	C 	0.96400 0.29340 0.08225 -0.21800
C 	C 	0.99960 0.20960 0.10380 0.17500
C 	C 	0.05270 0.21390 0.13970 -0.28700
C 	C 	0.90690 0.28890 0.04345 0.42400
C 	C 	0.32920 0.30700 0.19620 -0.00100
C 	C 	0.42490 0.35290 0.12866 0.29100
C 	C 	0.47240 0.26500 0.12890 -0.28900
C 	C 	0.54420 0.24700 0.09680 0.16700
C 	C 	0.57130 0.31970 0.06333 -0.20800
C 	C 	0.52350 0.40790 0.06310 0.16700
C 	C 	0.44940 0.42400 0.09510 -0.27900
C 	C 	0.65470 0.30530 0.03052 0.43100
C 	C 	0.29490 0.44170 0.24382 0.00900
C 	C 	0.24650 0.53850 0.30352 0.27600
C 	C 	0.17040 0.57060 0.33110 -0.26300
C 	C 	0.18770 0.62570 0.36490 0.15700
C 	C 	0.28040 0.64860 0.37185 -0.19500
C 	C 	0.35630 0.62010 0.34312 0.14800
C 	C 	0.34070 0.56470 0.30896 -0.25700
C 	C 	0.29740 0.70680 0.40959 0.41100
C 	C 	0.58070 0.84870 0.50390 0.07300
C 	C 	0.67820 0.84660 0.50830 -0.12300
C 	C 	0.74100 0.80580 0.47751 0.05300
C 	C 	0.70130 0.76630 0.44235 -0.12600
C 	C 	0.60420 0.77120 0.44037 0.08100
C 	C 	0.00060 0.72840 0.46970 0.08100
C 	C 	0.90340 0.72900 0.46620 -0.13700
C 	C 	0.84520 0.80280 0.48120 0.06800
C 	C 	0.88930 0.87230 0.50140 -0.14300
C 	C 	0.98870 0.86650 0.50450 0.09600
N 	N 	0.81100 0.54340 0.97016 -0.24800
N 	N 	0.79870 0.04290 0.98821 -0.25300
N 	N 	0.54340 0.81100 0.47016 -0.24800
N 	N 	0.04290 0.79870 0.48821 -0.25300
O 	O 	0.25840 0.29980 0.78894 -0.25300
O 	O 	0.92680 0.35900 0.93545 -0.49800
O 	O 	0.91950 0.20110 0.93727 -0.46000
O 	O 	0.29800 0.12920 0.68784 -0.25700
O 	O 	0.36510 0.87130 0.52688 -0.46900
O 	O 	0.20660 0.89680 0.53011 -0.46900
O 	O 	0.37710 0.35430 0.65900 -0.25000
O 	O 	0.22290 0.69270 0.52992 -0.46100
O 	O 	0.37650 0.67970 0.50495 -0.47900
O 	O 	0.48270 0.22130 0.77214 -0.24400
O 	O 	0.72070 0.22470 0.93608 -0.48100
O 	O 	0.73620 0.38060 0.91315 -0.45000
O 	O 	0.29980 0.25840 0.28894 -0.25300
O 	O 	0.35900 0.92680 0.43545 -0.49800
O 	O 	0.20110 0.91950 0.43727 -0.46000
O 	O 	0.12920 0.29800 0.18784 -0.25700
O 	O 	0.87130 0.36510 0.02688 -0.46900
O 	O 	0.89680 0.20660 0.03011 -0.46800
O 	O 	0.35430 0.37710 0.15900 -0.25000
O 	O 	0.69270 0.22290 0.02992 -0.46100
O 	O 	0.67970 0.37650 0.00495 -0.47900
O 	O 	0.22130 0.48270 0.27214 -0.24400
O 	O 	0.22470 0.72070 0.43608 -0.48100
O 	O 	0.38060 0.73620 0.41315 -0.45000
