data_crystal

_cell_length_a 9.37400
_cell_length_b 21.31600
_cell_length_c 17.13000
_cell_angle_alpha 90.00000
_cell_angle_beta  118.33400
_cell_angle_gamma 90.00000

_symmetry_space_group_name_	'P 1'
_symmetry_space_group_name_H-M	'P 1'

loop_
_symmetry_equiv_pos_as_xyz
  x,y,z

loop_
_atom_site_label
_atom_site_type_symbol
_atom_site_fract_x
_atom_site_fract_y
_atom_site_fract_z
_atom_site_charge
N 	N 	0.18130 0.75410 0.18070 -0.26300
C 	C 	0.27570 0.78560 0.25250 0.13700
H 	H 	0.38450 0.77430 0.28260 -0.02800
C 	C 	0.02520 0.77040 0.14000 0.11100
H 	H 	0.95420 0.74790 0.09000 -0.01800
Cd	Cd	0.72237 0.18701 0.38881 1.21500
Cd	Cd	0.29308 0.99253 0.09029 1.16900
O 	O 	0.47020 0.13350 0.36770 -0.37300
O 	O 	0.46440 0.21040 0.28420 -0.40500
O 	O 	0.31210 0.07770 0.17960 -0.42300
O 	O 	0.10870 0.01320 0.14780 -0.41900
O 	O 	0.91010 0.11810 0.99720 -0.36000
O 	O 	0.71680 0.07070 0.01320 -0.47400
O 	O 	0.96140 0.28510 0.02760 -0.37200
O 	O 	0.72120 0.24840 0.99650 -0.39200
N 	N 	0.83180 0.09240 0.38910 -0.25200
C 	C 	0.73920 0.04520 0.33950 0.07700
H 	H 	0.62720 0.05030 0.31080 -0.02900
C 	C 	0.80180 0.98990 0.32920 -0.16900
H 	H 	0.73220 0.95850 0.29390 0.05700
C 	C 	0.97050 0.97990 0.37130 0.10300
C 	C 	0.06360 0.02910 0.42090 -0.15300
H 	H 	0.17580 0.02510 0.45020 0.08100
C 	C 	0.99060 0.08810 0.42880 0.06600
H 	H 	0.05520 0.12160 0.46120 -0.01000
C 	C 	0.04000 0.91830 0.35730 -0.12200
H 	H 	0.15680 0.91890 0.39380 0.05500
H 	H 	0.99830 0.88380 0.37750 0.06800
C 	C 	0.00270 0.90670 0.26700 -0.21500
H 	H 	0.03460 0.94380 0.24650 0.09300
H 	H 	0.88560 0.90380 0.23270 0.07600
C 	C 	0.07020 0.85200 0.24210 0.18000
C 	C 	0.96370 0.81920 0.16840 -0.22100
H 	H 	0.85410 0.82940 0.13860 0.09200
C 	C 	0.22690 0.83310 0.28620 -0.25300
H 	H 	0.29950 0.85260 0.33880 0.11100
C 	C 	0.87290 0.24990 0.04470 0.29900
C 	C 	0.95150 0.21060 0.12960 -0.07100
H 	H 	0.93220 0.23450 0.17260 0.05900
C 	C 	0.13140 0.20680 0.16990 -0.08400
H 	H 	0.17620 0.24890 0.18180 0.07100
H 	H 	0.15990 0.18730 0.12800 0.08200
C 	C 	0.20680 0.16900 0.25650 -0.08400
H 	H 	0.17340 0.19000 0.29610 0.05900
C 	C 	0.39320 0.16910 0.30530 0.33000
C 	C 	0.13420 0.10320 0.24100 -0.11300
H 	H 	0.17670 0.08300 0.29920 0.07200
C 	C 	0.94860 0.10860 0.20300 -0.02900
H 	H 	0.90270 0.06670 0.19000 0.03700
H 	H 	0.92640 0.12620 0.24830 0.02500
C 	C 	0.86260 0.14830 0.11940 -0.13500
H 	H 	0.75570 0.15870 0.11300 0.07500
C 	C 	0.18720 0.06250 0.18420 0.31900
C 	C 	0.83360 0.11110 0.03760 0.35300
N 	N 	0.81870 0.25410 0.31930 -0.26600
C 	C 	0.72430 0.28560 0.24750 0.14100
H 	H 	0.61550 0.27430 0.21740 -0.03000
C 	C 	0.97480 0.27040 0.36000 0.12000
H 	H 	0.04580 0.24790 0.41000 -0.02300
Cd	Cd	0.27763 0.68701 0.11119 1.21400
Cd	Cd	0.70692 0.49253 0.40971 1.17100
O 	O 	0.52980 0.63350 0.13230 -0.37400
O 	O 	0.53560 0.71040 0.21580 -0.40500
O 	O 	0.68790 0.57770 0.32040 -0.42400
O 	O 	0.89130 0.51320 0.35220 -0.42000
O 	O 	0.08990 0.61810 0.50280 -0.35400
O 	O 	0.28320 0.57070 0.48680 -0.47500
O 	O 	0.03860 0.78510 0.47240 -0.37300
O 	O 	0.27880 0.74840 0.50350 -0.38900
N 	N 	0.16820 0.59240 0.11090 -0.25000
C 	C 	0.26080 0.54520 0.16050 0.07200
H 	H 	0.37280 0.55030 0.18920 -0.02700
C 	C 	0.19820 0.48990 0.17080 -0.16100
H 	H 	0.26780 0.45850 0.20610 0.05400
C 	C 	0.02950 0.47990 0.12870 0.09200
C 	C 	0.93640 0.52910 0.07910 -0.14400
H 	H 	0.82420 0.52510 0.04980 0.07700
C 	C 	0.00940 0.58810 0.07120 0.05900
H 	H 	0.94480 0.62160 0.03880 -0.00700
C 	C 	0.96000 0.41830 0.14270 -0.10600
H 	H 	0.84320 0.41890 0.10620 0.05000
H 	H 	0.00170 0.38380 0.12250 0.06200
C 	C 	0.99730 0.40670 0.23300 -0.22700
H 	H 	0.96540 0.44380 0.25350 0.09800
H 	H 	0.11440 0.40380 0.26730 0.07900
C 	C 	0.92980 0.35200 0.25790 0.19100
C 	C 	0.03630 0.31920 0.33160 -0.23300
H 	H 	0.14590 0.32940 0.36140 0.09700
C 	C 	0.77310 0.33310 0.21380 -0.26100
H 	H 	0.70050 0.35260 0.16120 0.11400
C 	C 	0.12710 0.74990 0.45530 0.29700
C 	C 	0.04850 0.71060 0.37040 -0.07400
H 	H 	0.06780 0.73450 0.32740 0.06000
C 	C 	0.86860 0.70680 0.33010 -0.08100
H 	H 	0.82380 0.74890 0.31820 0.07000
H 	H 	0.84010 0.68730 0.37200 0.08100
C 	C 	0.79320 0.66900 0.24350 -0.08600
H 	H 	0.82660 0.69000 0.20390 0.06000
C 	C 	0.60680 0.66910 0.19470 0.33100
C 	C 	0.86580 0.60320 0.25900 -0.11100
H 	H 	0.82330 0.58300 0.20080 0.07100
C 	C 	0.05140 0.60860 0.29700 -0.03200
H 	H 	0.09730 0.56670 0.31000 0.03700
H 	H 	0.07360 0.62620 0.25170 0.02500
C 	C 	0.13740 0.64830 0.38060 -0.13200
H 	H 	0.24430 0.65870 0.38700 0.07400
C 	C 	0.81280 0.56250 0.31580 0.31900
C 	C 	0.16640 0.61110 0.46240 0.34700
N 	N 	0.81870 0.24590 0.81930 -0.26400
C 	C 	0.72430 0.21440 0.74750 0.13600
H 	H 	0.61550 0.22570 0.71740 -0.02900
C 	C 	0.97480 0.22960 0.86000 0.11000
H 	H 	0.04580 0.25210 0.91000 -0.01900
Cd	Cd	0.27763 0.81299 0.61119 1.21400
Cd	Cd	0.70692 0.00747 0.90971 1.16900
O 	O 	0.52980 0.86650 0.63230 -0.37300
O 	O 	0.53560 0.78960 0.71580 -0.40500
O 	O 	0.68790 0.92230 0.82040 -0.42300
O 	O 	0.89130 0.98680 0.85220 -0.41900
O 	O 	0.08990 0.88190 0.00280 -0.36000
O 	O 	0.28320 0.92930 0.98680 -0.47400
O 	O 	0.03860 0.71490 0.97240 -0.37200
O 	O 	0.27880 0.75160 0.00350 -0.39200
N 	N 	0.16820 0.90760 0.61090 -0.25200
C 	C 	0.26080 0.95480 0.66050 0.07700
H 	H 	0.37280 0.94970 0.68920 -0.02900
C 	C 	0.19820 0.01010 0.67080 -0.16900
H 	H 	0.26780 0.04150 0.70610 0.05700
C 	C 	0.02950 0.02010 0.62870 0.10300
C 	C 	0.93640 0.97090 0.57910 -0.15300
H 	H 	0.82420 0.97490 0.54980 0.08100
C 	C 	0.00940 0.91190 0.57120 0.06600
H 	H 	0.94480 0.87840 0.53880 -0.01000
C 	C 	0.96000 0.08170 0.64270 -0.12200
H 	H 	0.84320 0.08110 0.60620 0.05500
H 	H 	0.00170 0.11620 0.62250 0.06800
C 	C 	0.99730 0.09330 0.73300 -0.21500
H 	H 	0.96540 0.05620 0.75350 0.09300
H 	H 	0.11440 0.09620 0.76730 0.07600
C 	C 	0.92980 0.14800 0.75790 0.18000
C 	C 	0.03630 0.18080 0.83160 -0.22100
H 	H 	0.14590 0.17060 0.86140 0.09200
C 	C 	0.77310 0.16690 0.71380 -0.25300
H 	H 	0.70050 0.14740 0.66120 0.11100
C 	C 	0.12710 0.75010 0.95530 0.29900
C 	C 	0.04850 0.78940 0.87040 -0.07100
H 	H 	0.06780 0.76550 0.82740 0.05900
C 	C 	0.86860 0.79320 0.83010 -0.08400
H 	H 	0.82380 0.75110 0.81820 0.07100
H 	H 	0.84010 0.81270 0.87200 0.08200
C 	C 	0.79320 0.83100 0.74350 -0.08400
H 	H 	0.82660 0.81000 0.70390 0.05900
C 	C 	0.60680 0.83090 0.69470 0.33000
C 	C 	0.86580 0.89680 0.75900 -0.11300
H 	H 	0.82330 0.91700 0.70080 0.07200
C 	C 	0.05140 0.89140 0.79700 -0.02900
H 	H 	0.09730 0.93330 0.81000 0.03700
H 	H 	0.07360 0.87380 0.75170 0.02500
C 	C 	0.13740 0.85170 0.88060 -0.13500
H 	H 	0.24430 0.84130 0.88700 0.07500
C 	C 	0.81280 0.93750 0.81580 0.31900
C 	C 	0.16640 0.88890 0.96240 0.35300
N 	N 	0.18130 0.74590 0.68070 -0.26600
C 	C 	0.27570 0.71440 0.75250 0.14100
H 	H 	0.38450 0.72570 0.78260 -0.03000
C 	C 	0.02520 0.72960 0.64000 0.12000
H 	H 	0.95420 0.75210 0.59000 -0.02300
Cd	Cd	0.72237 0.31299 0.88881 1.21400
Cd	Cd	0.29308 0.50747 0.59029 1.17100
O 	O 	0.47020 0.36650 0.86770 -0.37400
O 	O 	0.46440 0.28960 0.78420 -0.40500
O 	O 	0.31210 0.42230 0.67960 -0.42400
O 	O 	0.10870 0.48680 0.64780 -0.42000
O 	O 	0.91010 0.38190 0.49720 -0.35400
O 	O 	0.71680 0.42930 0.51320 -0.47500
O 	O 	0.96140 0.21490 0.52760 -0.37300
O 	O 	0.72120 0.25160 0.49650 -0.38900
N 	N 	0.83180 0.40760 0.88910 -0.25000
C 	C 	0.73920 0.45480 0.83950 0.07200
H 	H 	0.62720 0.44970 0.81080 -0.02700
C 	C 	0.80180 0.51010 0.82920 -0.16100
H 	H 	0.73220 0.54150 0.79390 0.05400
C 	C 	0.97050 0.52010 0.87130 0.09200
C 	C 	0.06360 0.47090 0.92090 -0.14400
H 	H 	0.17580 0.47490 0.95020 0.07700
C 	C 	0.99060 0.41190 0.92880 0.05900
H 	H 	0.05520 0.37840 0.96120 -0.00700
C 	C 	0.04000 0.58170 0.85730 -0.10600
H 	H 	0.15680 0.58110 0.89380 0.05000
H 	H 	0.99830 0.61620 0.87750 0.06200
C 	C 	0.00270 0.59330 0.76700 -0.22700
H 	H 	0.03460 0.55620 0.74650 0.09800
H 	H 	0.88560 0.59620 0.73270 0.07900
C 	C 	0.07020 0.64800 0.74210 0.19100
C 	C 	0.96370 0.68080 0.66840 -0.23300
H 	H 	0.85410 0.67060 0.63860 0.09700
C 	C 	0.22690 0.66690 0.78620 -0.26100
H 	H 	0.29950 0.64740 0.83880 0.11400
C 	C 	0.87290 0.25010 0.54470 0.29700
C 	C 	0.95150 0.28940 0.62960 -0.07400
H 	H 	0.93220 0.26550 0.67260 0.06000
C 	C 	0.13140 0.29320 0.66990 -0.08100
H 	H 	0.17620 0.25110 0.68180 0.07000
H 	H 	0.15990 0.31270 0.62800 0.08100
C 	C 	0.20680 0.33100 0.75650 -0.08600
H 	H 	0.17340 0.31000 0.79610 0.06000
C 	C 	0.39320 0.33090 0.80530 0.33100
C 	C 	0.13420 0.39680 0.74100 -0.11100
H 	H 	0.17670 0.41700 0.79920 0.07100
C 	C 	0.94860 0.39140 0.70300 -0.03200
H 	H 	0.90270 0.43330 0.69000 0.03700
H 	H 	0.92640 0.37380 0.74830 0.02500
C 	C 	0.86260 0.35170 0.61940 -0.13200
H 	H 	0.75570 0.34130 0.61300 0.07400
C 	C 	0.18720 0.43750 0.68420 0.31900
C 	C 	0.83360 0.38890 0.53760 0.34700
