data_crystal

_cell_length_a 10.10000
_cell_length_b 13.97800
_cell_length_c 14.48100
_cell_angle_alpha 63.11900
_cell_angle_beta  71.81100
_cell_angle_gamma 79.58800

_symmetry_space_group_name_	'P 1'
_symmetry_space_group_name_H-M	'P 1'

loop_
_symmetry_equiv_pos_as_xyz
  x,y,z

loop_
_atom_site_label
_atom_site_type_symbol
_atom_site_fract_x
_atom_site_fract_y
_atom_site_fract_z
_atom_site_charge
Cd	Cd	0.19568 0.03405 0.39392 1.21900
Cd	Cd	0.76810 0.92863 0.02594 1.18300
O 	O 	0.43370 0.03580 0.34570 -0.38900
O 	O 	0.38050 0.15610 0.19570 -0.32200
O 	O 	0.88990 0.04330 0.42090 -0.47600
O 	O 	0.06290 0.12330 0.27980 -0.42700
O 	O 	0.11230 0.22270 0.00300 -0.38200
O 	O 	0.01960 0.06630 0.11510 -0.38800
O 	O 	0.65300 0.04190 0.09920 -0.41900
O 	O 	0.81100 0.14870 0.96100 -0.34600
N 	N 	0.19490 0.86640 0.39730 -0.24400
N 	N 	0.19130 0.19070 0.41770 -0.23400
N 	N 	0.60730 0.80750 0.17250 -0.24800
C 	C 	0.19630 0.77280 0.48530 0.10100
H 	H 	0.21260 0.77340 0.54480 -0.02300
C 	C 	0.17430 0.67810 0.48870 -0.18000
H 	H 	0.17830 0.61600 0.55060 0.09300
C 	C 	0.14650 0.66850 0.40610 0.13200
C 	C 	0.15730 0.76030 0.31620 -0.18400
H 	H 	0.15200 0.75770 0.25450 0.09700
C 	C 	0.17660 0.86150 0.31070 0.09300
H 	H 	0.17670 0.92370 0.24810 -0.03600
C 	C 	0.09400 0.56680 0.41480 -0.09100
H 	H 	0.04170 0.57570 0.36890 0.05700
C 	C 	0.12100 0.46350 0.48620 -0.08000
H 	H 	0.11500 0.45140 0.55600 0.05400
C 	C 	0.15880 0.37070 0.45790 0.11500
C 	C 	0.17540 0.26960 0.54090 -0.17100
H 	H 	0.17700 0.26060 0.60830 0.08200
C 	C 	0.18900 0.18540 0.51390 0.08800
H 	H 	0.19750 0.11700 0.56760 -0.00900
C 	C 	0.18100 0.28730 0.34150 0.10000
H 	H 	0.18460 0.29400 0.27390 -0.00500
C 	C 	0.16490 0.37870 0.35750 -0.17900
H 	H 	0.15820 0.44570 0.30140 0.09200
C 	C 	0.58770 0.80220 0.26990 0.07900
H 	H 	0.60210 0.86260 0.27620 -0.00800
C 	C 	0.54570 0.70790 0.36420 -0.18300
H 	H 	0.53350 0.70680 0.43110 0.09200
C 	C 	0.52350 0.62020 0.35730 0.13500
C 	C 	0.53620 0.62630 0.25960 -0.18800
H 	H 	0.51780 0.56700 0.25330 0.09300
C 	C 	0.57640 0.72020 0.16820 0.09100
H 	H 	0.58230 0.72280 0.10170 -0.01900
C 	C 	0.49510 0.51130 0.45240 -0.09200
H 	H 	0.46910 0.45740 0.44170 0.05900
C 	C 	0.46430 0.11340 0.25010 0.30100
C 	C 	0.60840 0.16240 0.21610 -0.08200
H 	H 	0.58570 0.22390 0.23450 0.05900
C 	C 	0.71660 0.09520 0.27660 -0.05700
H 	H 	0.67210 0.06310 0.35290 0.05400
H 	H 	0.75510 0.03760 0.25460 0.06400
C 	C 	0.83330 0.16320 0.25480 -0.11800
H 	H 	0.78640 0.21800 0.28010 0.06400
C 	C 	0.90340 0.22750 0.13570 -0.08700
H 	H 	0.94930 0.28550 0.13230 0.07000
C 	C 	0.79520 0.28370 0.06830 -0.07400
H 	H 	0.75430 0.34690 0.08020 0.04800
H 	H 	0.84380 0.30760 0.99290 0.06300
C 	C 	0.67660 0.21250 0.09420 -0.10000
H 	H 	0.60520 0.26010 0.06000 0.07000
C 	C 	0.93720 0.10350 0.32370 0.37300
C 	C 	0.01920 0.16570 0.08310 0.31600
C 	C 	0.71990 0.12790 0.04990 0.30600
Cd	Cd	0.80432 0.96595 0.60608 1.21800
Cd	Cd	0.23190 0.07137 0.97406 1.18200
O 	O 	0.56630 0.96420 0.65430 -0.39000
O 	O 	0.61950 0.84390 0.80430 -0.32300
O 	O 	0.11010 0.95670 0.57910 -0.47600
O 	O 	0.93710 0.87670 0.72020 -0.42700
O 	O 	0.88770 0.77730 0.99700 -0.38200
O 	O 	0.98040 0.93370 0.88490 -0.38800
O 	O 	0.34700 0.95810 0.90080 -0.41900
O 	O 	0.18900 0.85130 0.03900 -0.34600
N 	N 	0.80510 0.13360 0.60270 -0.24400
N 	N 	0.80870 0.80930 0.58230 -0.23400
N 	N 	0.39270 0.19250 0.82750 -0.24800
C 	C 	0.80370 0.22720 0.51470 0.10100
H 	H 	0.78740 0.22660 0.45520 -0.02300
C 	C 	0.82570 0.32190 0.51130 -0.18000
H 	H 	0.82170 0.38400 0.44940 0.09300
C 	C 	0.85350 0.33150 0.59390 0.13200
C 	C 	0.84270 0.23970 0.68380 -0.18400
H 	H 	0.84800 0.24230 0.74550 0.09700
C 	C 	0.82340 0.13850 0.68930 0.09300
H 	H 	0.82330 0.07630 0.75190 -0.03600
C 	C 	0.90600 0.43320 0.58520 -0.09100
H 	H 	0.95830 0.42430 0.63110 0.05700
C 	C 	0.87900 0.53650 0.51380 -0.08000
H 	H 	0.88500 0.54860 0.44400 0.05400
C 	C 	0.84120 0.62930 0.54210 0.11500
C 	C 	0.82460 0.73040 0.45910 -0.17100
H 	H 	0.82300 0.73940 0.39170 0.08200
C 	C 	0.81100 0.81460 0.48610 0.08800
H 	H 	0.80250 0.88300 0.43240 -0.00900
C 	C 	0.81900 0.71270 0.65850 0.10000
H 	H 	0.81540 0.70600 0.72610 -0.00500
C 	C 	0.83510 0.62130 0.64250 -0.17900
H 	H 	0.84180 0.55430 0.69860 0.09200
C 	C 	0.41230 0.19780 0.73010 0.07900
H 	H 	0.39790 0.13740 0.72380 -0.00800
C 	C 	0.45430 0.29210 0.63580 -0.18300
H 	H 	0.46650 0.29320 0.56890 0.09200
C 	C 	0.47650 0.37980 0.64270 0.13500
C 	C 	0.46380 0.37370 0.74040 -0.18800
H 	H 	0.48220 0.43300 0.74670 0.09300
C 	C 	0.42360 0.27980 0.83180 0.09100
H 	H 	0.41770 0.27720 0.89830 -0.01900
C 	C 	0.50490 0.48870 0.54760 -0.09200
H 	H 	0.53090 0.54260 0.55830 0.05900
C 	C 	0.53570 0.88660 0.74990 0.30100
C 	C 	0.39160 0.83760 0.78390 -0.08200
H 	H 	0.41430 0.77610 0.76550 0.05900
C 	C 	0.28340 0.90480 0.72340 -0.05700
H 	H 	0.32790 0.93690 0.64710 0.05400
H 	H 	0.24490 0.96240 0.74540 0.06400
C 	C 	0.16670 0.83680 0.74520 -0.11800
H 	H 	0.21360 0.78200 0.71990 0.06400
C 	C 	0.09660 0.77250 0.86430 -0.08700
H 	H 	0.05070 0.71450 0.86770 0.07000
C 	C 	0.20480 0.71630 0.93170 -0.07400
H 	H 	0.24570 0.65310 0.91980 0.04800
H 	H 	0.15620 0.69240 0.00710 0.06300
C 	C 	0.32340 0.78750 0.90580 -0.10000
H 	H 	0.39480 0.73990 0.94000 0.07000
C 	C 	0.06280 0.89650 0.67630 0.37300
C 	C 	0.98080 0.83430 0.91690 0.31600
C 	C 	0.28010 0.87210 0.95010 0.30600
