data_crystal

_cell_length_a 9.14280
_cell_length_b 16.01290
_cell_length_c 15.13240
_cell_angle_alpha 90.00000
_cell_angle_beta  93.15100
_cell_angle_gamma 90.00000

_symmetry_space_group_name_	'P 1'
_symmetry_space_group_name_H-M	'P 1'

loop_
_symmetry_equiv_pos_as_xyz
  x,y,z

loop_
_atom_site_label
_atom_site_type_symbol
_atom_site_fract_x
_atom_site_fract_y
_atom_site_fract_z
_atom_site_charge
Co	Co	0.39054 0.36526 0.66464 1.15200
Co	Co	0.46907 0.14219 0.70795 1.16000
O 	O 	0.56425 0.19854 0.60208 -0.42800
O 	O 	0.58925 0.33727 0.62083 -0.43400
O 	O 	0.15350 0.36657 0.65418 -0.39100
O 	O 	0.27910 0.32131 0.54710 -0.39200
O 	O 	0.92740 0.12364 0.30286 -0.40900
O 	O 	0.87369 0.24821 0.25251 -0.52100
O 	O 	0.45660 0.97570 0.33358 -0.45300
O 	O 	0.29960 0.03756 0.23626 -0.52600
H 	H 	0.26720 0.99010 0.22970 0.32000
O 	O 	0.16097 0.32466 0.28306 -0.42200
O 	O 	0.34110 0.41472 0.31521 -0.31400
N 	N 	0.27950 0.11145 0.62480 -0.23000
C 	C 	0.62570 0.26678 0.59051 0.39200
C 	C 	0.76210 0.26685 0.53825 -0.13900
C 	C 	0.89120 0.29787 0.57963 0.05800
H 	H 	0.88920 0.32220 0.63540 0.04700
C 	C 	0.02270 0.29267 0.53815 -0.11600
C 	C 	0.15900 0.32936 0.58220 0.32200
C 	C 	0.02590 0.25574 0.45502 0.06600
H 	H 	0.11490 0.24830 0.42900 0.03300
C 	C 	0.89610 0.22996 0.41067 -0.15900
C 	C 	0.90070 0.19898 0.31698 0.36600
C 	C 	0.76170 0.23550 0.45136 0.10600
C 	C 	0.61900 0.21705 0.40192 -0.04200
C 	C 	0.57870 0.13657 0.37476 0.02600
H 	H 	0.64150 0.09180 0.38690 0.03900
C 	C 	0.44380 0.12359 0.32935 -0.12400
C 	C 	0.40050 0.03796 0.29895 0.43700
C 	C 	0.34850 0.18988 0.31020 0.06000
H 	H 	0.25820 0.18030 0.28060 0.04300
C 	C 	0.38930 0.27032 0.33563 -0.10800
C 	C 	0.52400 0.28320 0.38188 0.01900
H 	H 	0.55070 0.33700 0.39960 0.03200
C 	C 	0.28860 0.34151 0.30940 0.36800
C 	C 	0.30080 0.08060 0.54455 0.08300
H 	H 	0.39190 0.08830 0.52130 0.01800
C 	C 	0.19460 0.03780 0.49407 -0.12800
H 	H 	0.21590 0.01740 0.43870 0.09000
C 	C 	0.05720 0.02512 0.52526 0.06900
C 	C 	0.03230 0.06060 0.60690 -0.12100
H 	H 	0.94050 0.05630 0.63010 0.08300
C 	C 	0.14460 0.10240 0.65360 0.07300
H 	H 	0.12500 0.12550 0.70810 -0.00600
Co	Co	0.10946 0.86526 0.83536 1.15000
Co	Co	0.03093 0.64219 0.79205 1.15800
O 	O 	0.93575 0.69854 0.89792 -0.42300
O 	O 	0.91075 0.83727 0.87917 -0.42900
O 	O 	0.34650 0.86657 0.84582 -0.39100
O 	O 	0.22090 0.82131 0.95290 -0.39500
O 	O 	0.57260 0.62364 0.19714 -0.40600
O 	O 	0.62631 0.74821 0.24749 -0.51900
O 	O 	0.04340 0.47570 0.16642 -0.44800
O 	O 	0.20040 0.53756 0.26374 -0.52900
H 	H 	0.23280 0.49010 0.27030 0.32300
O 	O 	0.33903 0.82466 0.21694 -0.42300
O 	O 	0.15890 0.91472 0.18479 -0.31300
N 	N 	0.22050 0.61145 0.87520 -0.23000
C 	C 	0.87430 0.76678 0.90949 0.39000
C 	C 	0.73790 0.76685 0.96175 -0.13100
C 	C 	0.60880 0.79787 0.92037 0.05400
H 	H 	0.61080 0.82220 0.86460 0.04800
C 	C 	0.47730 0.79267 0.96185 -0.11200
C 	C 	0.34100 0.82936 0.91780 0.32000
C 	C 	0.47410 0.75574 0.04498 0.05700
H 	H 	0.38510 0.74830 0.07100 0.03600
C 	C 	0.60390 0.72996 0.08933 -0.15100
C 	C 	0.59930 0.69898 0.18302 0.36300
C 	C 	0.73830 0.73550 0.04864 0.09600
C 	C 	0.88100 0.71705 0.09808 -0.03400
C 	C 	0.92130 0.63657 0.12524 0.01400
H 	H 	0.85850 0.59180 0.11310 0.04200
C 	C 	0.05620 0.62359 0.17065 -0.11400
C 	C 	0.09950 0.53796 0.20105 0.43400
C 	C 	0.15150 0.68988 0.18980 0.05300
H 	H 	0.24180 0.68030 0.21940 0.04500
C 	C 	0.11070 0.77032 0.16437 -0.10000
C 	C 	0.97600 0.78320 0.11812 0.01000
H 	H 	0.94930 0.83700 0.10040 0.03400
C 	C 	0.21140 0.84151 0.19060 0.36600
C 	C 	0.19920 0.58060 0.95545 0.07700
H 	H 	0.10810 0.58830 0.97870 0.01700
C 	C 	0.30540 0.53780 0.00593 -0.12000
H 	H 	0.28410 0.51740 0.06130 0.08700
C 	C 	0.44280 0.52512 0.97474 0.06600
C 	C 	0.46770 0.56060 0.89310 -0.12400
H 	H 	0.55950 0.55630 0.86990 0.08600
C 	C 	0.35540 0.60240 0.84640 0.07300
H 	H 	0.37500 0.62550 0.79190 -0.00600
Co	Co	0.60946 0.63474 0.33536 1.15200
Co	Co	0.53093 0.85781 0.29205 1.16000
O 	O 	0.43575 0.80146 0.39792 -0.42800
O 	O 	0.41075 0.66273 0.37917 -0.43400
O 	O 	0.84650 0.63343 0.34582 -0.39100
O 	O 	0.72090 0.67869 0.45290 -0.39200
O 	O 	0.07260 0.87636 0.69714 -0.40900
O 	O 	0.12631 0.75179 0.74749 -0.52100
O 	O 	0.54340 0.02430 0.66642 -0.45300
O 	O 	0.70040 0.96244 0.76374 -0.52600
H 	H 	0.73280 0.00990 0.77030 0.32000
O 	O 	0.83903 0.67534 0.71694 -0.42200
O 	O 	0.65890 0.58528 0.68479 -0.31400
N 	N 	0.72050 0.88855 0.37520 -0.23000
C 	C 	0.37430 0.73322 0.40949 0.39200
C 	C 	0.23790 0.73315 0.46175 -0.13900
C 	C 	0.10880 0.70213 0.42037 0.05800
H 	H 	0.11080 0.67780 0.36460 0.04700
C 	C 	0.97730 0.70733 0.46185 -0.11600
C 	C 	0.84100 0.67064 0.41780 0.32200
C 	C 	0.97410 0.74426 0.54498 0.06600
H 	H 	0.88510 0.75170 0.57100 0.03300
C 	C 	0.10390 0.77004 0.58933 -0.15900
C 	C 	0.09930 0.80102 0.68302 0.36600
C 	C 	0.23830 0.76450 0.54864 0.10600
C 	C 	0.38100 0.78295 0.59808 -0.04200
C 	C 	0.42130 0.86343 0.62524 0.02600
H 	H 	0.35850 0.90820 0.61310 0.03900
C 	C 	0.55620 0.87641 0.67065 -0.12400
C 	C 	0.59950 0.96204 0.70105 0.43700
C 	C 	0.65150 0.81012 0.68980 0.06000
H 	H 	0.74180 0.81970 0.71940 0.04300
C 	C 	0.61070 0.72968 0.66437 -0.10800
C 	C 	0.47600 0.71680 0.61812 0.01900
H 	H 	0.44930 0.66300 0.60040 0.03200
C 	C 	0.71140 0.65849 0.69060 0.36800
C 	C 	0.69920 0.91940 0.45545 0.08300
H 	H 	0.60810 0.91170 0.47870 0.01800
C 	C 	0.80540 0.96220 0.50593 -0.12800
H 	H 	0.78410 0.98260 0.56130 0.09000
C 	C 	0.94280 0.97488 0.47474 0.06900
C 	C 	0.96770 0.93940 0.39310 -0.12100
H 	H 	0.05950 0.94370 0.36990 0.08300
C 	C 	0.85540 0.89760 0.34640 0.07300
H 	H 	0.87500 0.87450 0.29190 -0.00600
Co	Co	0.89054 0.13474 0.16464 1.15000
Co	Co	0.96907 0.35781 0.20795 1.15800
O 	O 	0.06425 0.30146 0.10208 -0.42300
O 	O 	0.08925 0.16273 0.12083 -0.42900
O 	O 	0.65350 0.13343 0.15418 -0.39100
O 	O 	0.77910 0.17869 0.04710 -0.39500
O 	O 	0.42740 0.37636 0.80286 -0.40600
O 	O 	0.37369 0.25179 0.75251 -0.51900
O 	O 	0.95660 0.52430 0.83358 -0.44800
O 	O 	0.79960 0.46244 0.73626 -0.52900
H 	H 	0.76720 0.50990 0.72970 0.32300
O 	O 	0.66097 0.17534 0.78306 -0.42300
O 	O 	0.84110 0.08528 0.81521 -0.31300
N 	N 	0.77950 0.38855 0.12480 -0.23000
C 	C 	0.12570 0.23322 0.09051 0.39000
C 	C 	0.26210 0.23315 0.03825 -0.13100
C 	C 	0.39120 0.20213 0.07963 0.05400
H 	H 	0.38920 0.17780 0.13540 0.04800
C 	C 	0.52270 0.20733 0.03815 -0.11200
C 	C 	0.65900 0.17064 0.08220 0.32000
C 	C 	0.52590 0.24426 0.95502 0.05700
H 	H 	0.61490 0.25170 0.92900 0.03600
C 	C 	0.39610 0.27004 0.91067 -0.15100
C 	C 	0.40070 0.30102 0.81698 0.36300
C 	C 	0.26170 0.26450 0.95136 0.09600
C 	C 	0.11900 0.28295 0.90192 -0.03400
C 	C 	0.07870 0.36343 0.87476 0.01400
H 	H 	0.14150 0.40820 0.88690 0.04200
C 	C 	0.94380 0.37641 0.82935 -0.11400
C 	C 	0.90050 0.46204 0.79895 0.43400
C 	C 	0.84850 0.31012 0.81020 0.05300
H 	H 	0.75820 0.31970 0.78060 0.04500
C 	C 	0.88930 0.22968 0.83563 -0.10000
C 	C 	0.02400 0.21680 0.88188 0.01000
H 	H 	0.05070 0.16300 0.89960 0.03400
C 	C 	0.78860 0.15849 0.80940 0.36600
C 	C 	0.80080 0.41940 0.04455 0.07700
H 	H 	0.89190 0.41170 0.02130 0.01700
C 	C 	0.69460 0.46220 0.99407 -0.12000
H 	H 	0.71590 0.48260 0.93870 0.08700
C 	C 	0.55720 0.47488 0.02526 0.06600
C 	C 	0.53230 0.43940 0.10690 -0.12400
H 	H 	0.44050 0.44370 0.13010 0.08600
C 	C 	0.64460 0.39760 0.15360 0.07300
H 	H 	0.62500 0.37450 0.20810 -0.00600
