data_crystal

_cell_length_a 10.84160
_cell_length_b 17.64980
_cell_length_c 18.50490
_cell_angle_alpha 90.00000
_cell_angle_beta  92.70700
_cell_angle_gamma 90.00000

_symmetry_space_group_name_	'P 1'
_symmetry_space_group_name_H-M	'P 1'

loop_
_symmetry_equiv_pos_as_xyz
  x,y,z

loop_
_atom_site_label
_atom_site_type_symbol
_atom_site_fract_x
_atom_site_fract_y
_atom_site_fract_z
_atom_site_charge
Ba	Ba	0.19912 0.81875 0.24691 2.04100
Fe	Fe	0.75151 0.04535 0.25202 1.22700
Fe	Fe	0.69683 0.65608 0.25204 1.23500
O 	O 	0.66850 0.99322 0.33260 -0.42500
O 	O 	0.70730 0.13736 0.31177 -0.41700
O 	O 	0.57910 0.01531 0.43654 -0.51900
O 	O 	0.64440 0.16576 0.42191 -0.41900
O 	O 	0.78680 0.11603 0.17178 -0.41800
O 	O 	0.59510 0.02781 0.18747 -0.43200
O 	O 	0.71610 0.14981 0.06117 -0.41400
O 	O 	0.52900 0.04349 0.07397 -0.54600
O 	O 	0.92240 0.03479 0.29843 -0.37400
O 	O 	0.81180 0.95180 0.20107 -0.39900
O 	O 	0.08920 0.95734 0.30327 -0.38300
O 	O 	0.98360 0.88600 0.18130 -0.36500
O 	O 	0.62430 0.56916 0.19302 -0.41300
O 	O 	0.74350 0.56980 0.31860 -0.39400
O 	O 	0.63100 0.44254 0.18810 -0.50900
O 	O 	0.72540 0.44450 0.32889 -0.53400
O 	O 	0.55820 0.68239 0.31742 -0.38200
O 	O 	0.60480 0.73088 0.18853 -0.42500
O 	O 	0.39980 0.76163 0.32496 -0.50700
O 	O 	0.44050 0.80656 0.18558 -0.52500
O 	O 	0.80200 0.72780 0.31284 -0.38000
O 	O 	0.84380 0.65999 0.19220 -0.37300
O 	O 	0.98520 0.78310 0.31726 -0.40400
O 	O 	0.03170 0.71208 0.18876 -0.36000
C 	C 	0.63250 0.03630 0.38310 0.25800
C 	C 	0.66280 0.12080 0.37290 0.23600
C 	C 	0.71000 0.11280 0.11780 0.22100
C 	C 	0.59950 0.05700 0.12650 0.28000
C 	C 	0.98730 0.97820 0.27850 0.23800
C 	C 	0.92280 0.93380 0.21440 0.23700
C 	C 	0.65030 0.50310 0.21860 0.27000
C 	C 	0.71050 0.50440 0.29460 0.24200
C 	C 	0.48580 0.73280 0.29200 0.22800
C 	C 	0.50910 0.76040 0.21530 0.27100
C 	C 	0.90840 0.74120 0.28810 0.24400
C 	C 	0.93270 0.70160 0.21730 0.22800
Ba	Ba	0.44355 0.87865 0.44560 1.72700
Ba	Ba	0.58057 0.10490 0.93862 1.92800
O 	O 	0.21960 0.79881 0.09336 -0.39800
O 	O 	0.53490 0.72240 0.47411 -0.40200
Ba	Ba	0.80088 0.31875 0.25309 2.04300
Fe	Fe	0.24849 0.54535 0.24798 1.22800
Fe	Fe	0.30317 0.15608 0.24796 1.23500
O 	O 	0.33150 0.49322 0.16740 -0.42400
O 	O 	0.29270 0.63736 0.18823 -0.41700
O 	O 	0.42090 0.51531 0.06346 -0.51900
O 	O 	0.35560 0.66576 0.07809 -0.41900
O 	O 	0.21320 0.61603 0.32822 -0.41800
O 	O 	0.40490 0.52781 0.31253 -0.43300
O 	O 	0.28390 0.64981 0.43883 -0.41600
O 	O 	0.47100 0.54349 0.42603 -0.54800
O 	O 	0.07760 0.53479 0.20157 -0.37300
O 	O 	0.18820 0.45180 0.29893 -0.39900
O 	O 	0.91080 0.45734 0.19673 -0.38100
O 	O 	0.01640 0.38600 0.31870 -0.36500
O 	O 	0.37570 0.06916 0.30698 -0.41300
O 	O 	0.25650 0.06980 0.18140 -0.39300
O 	O 	0.36900 0.94254 0.31190 -0.51000
O 	O 	0.27460 0.94450 0.17111 -0.53600
O 	O 	0.44180 0.18239 0.18258 -0.38200
O 	O 	0.39520 0.23088 0.31147 -0.42500
O 	O 	0.60020 0.26163 0.17504 -0.50700
O 	O 	0.55950 0.30656 0.31442 -0.52500
O 	O 	0.19800 0.22780 0.18716 -0.38000
O 	O 	0.15620 0.15999 0.30780 -0.37300
O 	O 	0.01480 0.28310 0.18274 -0.40400
O 	O 	0.96830 0.21208 0.31124 -0.36000
C 	C 	0.36750 0.53630 0.11690 0.25700
C 	C 	0.33720 0.62080 0.12710 0.23600
C 	C 	0.29000 0.61280 0.38220 0.22000
C 	C 	0.40050 0.55700 0.37350 0.28000
C 	C 	0.01270 0.47820 0.22150 0.23600
C 	C 	0.07720 0.43380 0.28560 0.23800
C 	C 	0.34970 0.00310 0.28140 0.27100
C 	C 	0.28950 0.00440 0.20540 0.24600
C 	C 	0.51420 0.23280 0.20800 0.22700
C 	C 	0.49090 0.26040 0.28470 0.27100
C 	C 	0.09160 0.24120 0.21190 0.24400
C 	C 	0.06730 0.20160 0.28270 0.22900
Ba	Ba	0.55645 0.37865 0.05440 1.73000
Ba	Ba	0.41943 0.60490 0.56138 1.93300
O 	O 	0.78040 0.29881 0.40664 -0.39800
O 	O 	0.46510 0.22240 0.02589 -0.40100
Ba	Ba	0.80088 0.18125 0.75309 2.04200
Fe	Fe	0.24849 0.95465 0.74798 1.22800
Fe	Fe	0.30317 0.34392 0.74796 1.23500
O 	O 	0.33150 0.00678 0.66740 -0.42500
O 	O 	0.29270 0.86264 0.68823 -0.41700
O 	O 	0.42090 0.98469 0.56346 -0.51900
O 	O 	0.35560 0.83424 0.57809 -0.41900
O 	O 	0.21320 0.88397 0.82822 -0.41800
O 	O 	0.40490 0.97219 0.81253 -0.43200
O 	O 	0.28390 0.85019 0.93883 -0.41400
O 	O 	0.47100 0.95651 0.92603 -0.54600
O 	O 	0.07760 0.96521 0.70157 -0.37400
O 	O 	0.18820 0.04820 0.79893 -0.39900
O 	O 	0.91080 0.04266 0.69673 -0.38300
O 	O 	0.01640 0.11400 0.81870 -0.36500
O 	O 	0.37570 0.43084 0.80698 -0.41300
O 	O 	0.25650 0.43020 0.68140 -0.39400
O 	O 	0.36900 0.55746 0.81190 -0.50900
O 	O 	0.27460 0.55550 0.67111 -0.53400
O 	O 	0.44180 0.31761 0.68258 -0.38200
O 	O 	0.39520 0.26912 0.81147 -0.42500
O 	O 	0.60020 0.23837 0.67504 -0.50700
O 	O 	0.55950 0.19344 0.81442 -0.52500
O 	O 	0.19800 0.27220 0.68716 -0.38000
O 	O 	0.15620 0.34001 0.80780 -0.37300
O 	O 	0.01480 0.21690 0.68274 -0.40400
O 	O 	0.96830 0.28792 0.81124 -0.36000
C 	C 	0.36750 0.96370 0.61690 0.25800
C 	C 	0.33720 0.87920 0.62710 0.23600
C 	C 	0.29000 0.88720 0.88220 0.22100
C 	C 	0.40050 0.94300 0.87350 0.28000
C 	C 	0.01270 0.02180 0.72150 0.23800
C 	C 	0.07720 0.06620 0.78560 0.23700
C 	C 	0.34970 0.49690 0.78140 0.27000
C 	C 	0.28950 0.49560 0.70540 0.24200
C 	C 	0.51420 0.26720 0.70800 0.22800
C 	C 	0.49090 0.23960 0.78470 0.27100
C 	C 	0.09160 0.25880 0.71190 0.24400
C 	C 	0.06730 0.29840 0.78270 0.22800
Ba	Ba	0.55645 0.12135 0.55440 1.72700
Ba	Ba	0.41943 0.89510 0.06138 1.92800
O 	O 	0.78040 0.20119 0.90664 -0.39800
O 	O 	0.46510 0.27760 0.52589 -0.40200
Ba	Ba	0.19912 0.68125 0.74691 2.04300
Fe	Fe	0.75151 0.45465 0.75202 1.22800
Fe	Fe	0.69683 0.84392 0.75204 1.23500
O 	O 	0.66850 0.50678 0.83260 -0.42400
O 	O 	0.70730 0.36264 0.81177 -0.41700
O 	O 	0.57910 0.48469 0.93654 -0.51900
O 	O 	0.64440 0.33424 0.92191 -0.41900
O 	O 	0.78680 0.38397 0.67178 -0.41800
O 	O 	0.59510 0.47219 0.68747 -0.43300
O 	O 	0.71610 0.35019 0.56117 -0.41600
O 	O 	0.52900 0.45651 0.57397 -0.54800
O 	O 	0.92240 0.46521 0.79843 -0.37300
O 	O 	0.81180 0.54820 0.70107 -0.39900
O 	O 	0.08920 0.54266 0.80327 -0.38100
O 	O 	0.98360 0.61400 0.68130 -0.36500
O 	O 	0.62430 0.93084 0.69302 -0.41300
O 	O 	0.74350 0.93020 0.81860 -0.39300
O 	O 	0.63100 0.05746 0.68810 -0.51000
O 	O 	0.72540 0.05550 0.82889 -0.53600
O 	O 	0.55820 0.81761 0.81742 -0.38200
O 	O 	0.60480 0.76912 0.68853 -0.42500
O 	O 	0.39980 0.73837 0.82496 -0.50700
O 	O 	0.44050 0.69344 0.68558 -0.52500
O 	O 	0.80200 0.77220 0.81284 -0.38000
O 	O 	0.84380 0.84001 0.69220 -0.37300
O 	O 	0.98520 0.71690 0.81726 -0.40400
O 	O 	0.03170 0.78792 0.68876 -0.36000
C 	C 	0.63250 0.46370 0.88310 0.25700
C 	C 	0.66280 0.37920 0.87290 0.23600
C 	C 	0.71000 0.38720 0.61780 0.22000
C 	C 	0.59950 0.44300 0.62650 0.28000
C 	C 	0.98730 0.52180 0.77850 0.23600
C 	C 	0.92280 0.56620 0.71440 0.23800
C 	C 	0.65030 0.99690 0.71860 0.27100
C 	C 	0.71050 0.99560 0.79460 0.24600
C 	C 	0.48580 0.76720 0.79200 0.22700
C 	C 	0.50910 0.73960 0.71530 0.27100
C 	C 	0.90840 0.75880 0.78810 0.24400
C 	C 	0.93270 0.79840 0.71730 0.22900
Ba	Ba	0.44355 0.62135 0.94560 1.73000
Ba	Ba	0.58057 0.39510 0.43862 1.93300
O 	O 	0.21960 0.70119 0.59336 -0.39800
O 	O 	0.53490 0.77760 0.97411 -0.40100
