data_crystal

_cell_length_a 22.92060
_cell_length_b 7.70470
_cell_length_c 19.32080
_cell_angle_alpha 90.00000
_cell_angle_beta  114.59600
_cell_angle_gamma 90.00000

_symmetry_space_group_name_	'P 1'
_symmetry_space_group_name_H-M	'P 1'

loop_
_symmetry_equiv_pos_as_xyz
  x,y,z

loop_
_atom_site_label
_atom_site_type_symbol
_atom_site_fract_x
_atom_site_fract_y
_atom_site_fract_z
_atom_site_charge
Cd	Cd	0.24758 0.28420 0.27249 1.21000
O 	O 	0.24950 0.08010 0.17776 -0.49600
O 	O 	0.25425 0.85920 0.11015 -0.39900
C 	C 	0.25129 0.01800 0.11836 0.35500
C 	C 	0.25072 0.13790 0.05730 -0.09100
C 	C 	0.24870 0.31750 0.06520 0.00000
H 	H 	0.24780 0.36380 0.10980 0.02200
C 	C 	0.25200 0.07160 0.99125 -0.02100
H 	H 	0.25330 0.95090 0.98490 0.05800
N 	N 	0.32783 0.09100 0.34824 -0.20300
N 	N 	0.33439 0.92090 0.33077 -0.20300
C 	C 	0.37493 0.12460 0.41360 0.09500
H 	H 	0.38190 0.23170 0.43910 -0.00800
C 	C 	0.38510 0.85880 0.38650 0.09600
H 	H 	0.40040 0.74460 0.38940 -0.00900
N 	N 	0.41237 0.98270 0.43945 -0.13200
C 	C 	0.47250 0.97020 0.50910 -0.05500
H 	H 	0.47960 0.84990 0.52730 0.05000
H 	H 	0.46980 0.04320 0.54920 0.05100
N 	N 	0.16821 0.08520 0.26511 -0.20400
N 	N 	0.16871 0.91150 0.24930 -0.20300
C 	C 	0.11980 0.11160 0.28230 0.09600
H 	H 	0.10880 0.21940 0.29630 -0.00900
C 	C 	0.12038 0.84160 0.25750 0.09900
H 	H 	0.10970 0.72310 0.25050 -0.00900
N 	N 	0.08769 0.96210 0.27730 -0.13300
C 	C 	0.02840 0.94050 0.28850 -0.05400
H 	H 	0.02420 0.03560 0.31980 0.05200
H 	H 	0.02990 0.83090 0.31490 0.04900
Cd	Cd	0.74758 0.78420 0.27249 1.20900
O 	O 	0.74950 0.58010 0.17776 -0.49700
O 	O 	0.75425 0.35920 0.11015 -0.40000
C 	C 	0.75129 0.51800 0.11836 0.35300
C 	C 	0.75072 0.63790 0.05730 -0.08800
C 	C 	0.74870 0.81750 0.06520 -0.00300
H 	H 	0.74780 0.86380 0.10980 0.02300
C 	C 	0.75200 0.57160 0.99125 -0.02500
H 	H 	0.75330 0.45090 0.98490 0.06000
N 	N 	0.82783 0.59100 0.34824 -0.20300
N 	N 	0.83439 0.42090 0.33077 -0.20300
C 	C 	0.87493 0.62460 0.41360 0.09500
H 	H 	0.88190 0.73170 0.43910 -0.00800
C 	C 	0.88510 0.35880 0.38650 0.09600
H 	H 	0.90040 0.24460 0.38940 -0.00900
N 	N 	0.91237 0.48270 0.43945 -0.13200
C 	C 	0.97250 0.47020 0.50910 -0.05500
H 	H 	0.97960 0.34990 0.52730 0.05000
H 	H 	0.96980 0.54320 0.54920 0.05100
N 	N 	0.66821 0.58520 0.26511 -0.20400
N 	N 	0.66871 0.41150 0.24930 -0.20300
C 	C 	0.61980 0.61160 0.28230 0.09600
H 	H 	0.60880 0.71940 0.29630 -0.00900
C 	C 	0.62038 0.34160 0.25750 0.09900
H 	H 	0.60970 0.22310 0.25050 -0.00900
N 	N 	0.58769 0.46210 0.27730 -0.13300
C 	C 	0.52840 0.44050 0.28850 -0.05400
H 	H 	0.52420 0.53560 0.31980 0.05200
H 	H 	0.52990 0.33090 0.31490 0.05000
Cd	Cd	0.75242 0.28420 0.22751 1.20900
O 	O 	0.75050 0.08010 0.32224 -0.49700
O 	O 	0.74575 0.85920 0.38985 -0.40000
C 	C 	0.74871 0.01800 0.38164 0.35400
C 	C 	0.74928 0.13790 0.44270 -0.08900
C 	C 	0.75130 0.31750 0.43480 -0.00100
H 	H 	0.75220 0.36380 0.39020 0.02200
C 	C 	0.74800 0.07160 0.50875 -0.02400
H 	H 	0.74670 0.95090 0.51510 0.05900
N 	N 	0.67217 0.09100 0.15176 -0.20300
N 	N 	0.66561 0.92090 0.16923 -0.20300
C 	C 	0.62507 0.12460 0.08640 0.09400
H 	H 	0.61810 0.23170 0.06090 -0.00800
C 	C 	0.61490 0.85880 0.11350 0.09600
H 	H 	0.59960 0.74460 0.11060 -0.00900
N 	N 	0.58763 0.98270 0.06055 -0.13200
C 	C 	0.52750 0.97020 0.99090 -0.05600
H 	H 	0.52040 0.84990 0.97270 0.05000
H 	H 	0.53020 0.04320 0.95080 0.05200
N 	N 	0.83179 0.08520 0.23489 -0.20400
N 	N 	0.83129 0.91150 0.25070 -0.20300
C 	C 	0.88020 0.11160 0.21770 0.09600
H 	H 	0.89120 0.21940 0.20370 -0.00900
C 	C 	0.87962 0.84160 0.24250 0.09900
H 	H 	0.89030 0.72310 0.24950 -0.00900
N 	N 	0.91231 0.96210 0.22270 -0.13300
C 	C 	0.97160 0.94050 0.21150 -0.05300
H 	H 	0.97580 0.03560 0.18020 0.05100
H 	H 	0.97010 0.83090 0.18510 0.04900
Cd	Cd	0.25242 0.78420 0.22751 1.20900
O 	O 	0.25050 0.58010 0.32224 -0.49700
O 	O 	0.24575 0.35920 0.38985 -0.40000
C 	C 	0.24871 0.51800 0.38164 0.35400
C 	C 	0.24928 0.63790 0.44270 -0.08900
C 	C 	0.25130 0.81750 0.43480 -0.00100
H 	H 	0.25220 0.86380 0.39020 0.02200
C 	C 	0.24800 0.57160 0.50875 -0.02400
H 	H 	0.24670 0.45090 0.51510 0.06000
N 	N 	0.17217 0.59100 0.15176 -0.20300
N 	N 	0.16561 0.42090 0.16923 -0.20300
C 	C 	0.12507 0.62460 0.08640 0.09500
H 	H 	0.11810 0.73170 0.06090 -0.00800
C 	C 	0.11490 0.35880 0.11350 0.09600
H 	H 	0.09960 0.24460 0.11060 -0.00900
N 	N 	0.08763 0.48270 0.06055 -0.13200
C 	C 	0.02750 0.47020 0.99090 -0.05500
H 	H 	0.02040 0.34990 0.97270 0.05000
H 	H 	0.03020 0.54320 0.95080 0.05100
N 	N 	0.33179 0.58520 0.23489 -0.20400
N 	N 	0.33129 0.41150 0.25070 -0.20300
C 	C 	0.38020 0.61160 0.21770 0.09600
H 	H 	0.39120 0.71940 0.20370 -0.00900
C 	C 	0.37962 0.34160 0.24250 0.09900
H 	H 	0.39030 0.22310 0.24950 -0.00900
N 	N 	0.41231 0.46210 0.22270 -0.13300
C 	C 	0.47160 0.44050 0.21150 -0.05400
H 	H 	0.47580 0.53560 0.18020 0.05200
H 	H 	0.47010 0.33090 0.18510 0.05000
Cd	Cd	0.75242 0.71580 0.72751 1.20900
O 	O 	0.75050 0.91990 0.82224 -0.49700
O 	O 	0.74575 0.14080 0.88985 -0.40000
C 	C 	0.74871 0.98200 0.88164 0.35400
C 	C 	0.74928 0.86210 0.94270 -0.09100
C 	C 	0.75130 0.68250 0.93480 0.00000
H 	H 	0.75220 0.63620 0.89020 0.02200
C 	C 	0.74800 0.92840 0.00875 -0.02100
H 	H 	0.74670 0.04910 0.01510 0.05800
N 	N 	0.67217 0.90900 0.65176 -0.20300
N 	N 	0.66561 0.07910 0.66923 -0.20300
C 	C 	0.62507 0.87540 0.58640 0.09500
H 	H 	0.61810 0.76830 0.56090 -0.00800
C 	C 	0.61490 0.14120 0.61350 0.09600
H 	H 	0.59960 0.25540 0.61060 -0.00900
N 	N 	0.58763 0.01730 0.56055 -0.13200
C 	C 	0.52750 0.02980 0.49090 -0.05500
H 	H 	0.52040 0.15010 0.47270 0.05000
H 	H 	0.53020 0.95680 0.45080 0.05100
N 	N 	0.83179 0.91480 0.73489 -0.20400
N 	N 	0.83129 0.08850 0.75070 -0.20300
C 	C 	0.88020 0.88840 0.71770 0.09600
H 	H 	0.89120 0.78060 0.70370 -0.00900
C 	C 	0.87962 0.15840 0.74250 0.09900
H 	H 	0.89030 0.27690 0.74950 -0.00900
N 	N 	0.91231 0.03790 0.72270 -0.13300
C 	C 	0.97160 0.05950 0.71150 -0.05400
H 	H 	0.97580 0.96440 0.68020 0.05200
H 	H 	0.97010 0.16910 0.68510 0.04900
Cd	Cd	0.25242 0.21580 0.72751 1.20900
O 	O 	0.25050 0.41990 0.82224 -0.49700
O 	O 	0.24575 0.64080 0.88985 -0.40000
C 	C 	0.24871 0.48200 0.88164 0.35300
C 	C 	0.24928 0.36210 0.94270 -0.08800
C 	C 	0.25130 0.18250 0.93480 -0.00300
H 	H 	0.25220 0.13620 0.89020 0.02300
C 	C 	0.24800 0.42840 0.00875 -0.02500
H 	H 	0.24670 0.54910 0.01510 0.06000
N 	N 	0.17217 0.40900 0.65176 -0.20300
N 	N 	0.16561 0.57910 0.66923 -0.20300
C 	C 	0.12507 0.37540 0.58640 0.09500
H 	H 	0.11810 0.26830 0.56090 -0.00800
C 	C 	0.11490 0.64120 0.61350 0.09600
H 	H 	0.09960 0.75540 0.61060 -0.00900
N 	N 	0.08763 0.51730 0.56055 -0.13200
C 	C 	0.02750 0.52980 0.49090 -0.05500
H 	H 	0.02040 0.65010 0.47270 0.05000
H 	H 	0.03020 0.45680 0.45080 0.05100
N 	N 	0.33179 0.41480 0.73489 -0.20400
N 	N 	0.33129 0.58850 0.75070 -0.20300
C 	C 	0.38020 0.38840 0.71770 0.09600
H 	H 	0.39120 0.28060 0.70370 -0.00900
C 	C 	0.37962 0.65840 0.74250 0.09900
H 	H 	0.39030 0.77690 0.74950 -0.00900
N 	N 	0.41231 0.53790 0.72270 -0.13300
C 	C 	0.47160 0.55950 0.71150 -0.05400
H 	H 	0.47580 0.46440 0.68020 0.05200
H 	H 	0.47010 0.66910 0.68510 0.05000
Cd	Cd	0.24758 0.71580 0.77249 1.20900
O 	O 	0.24950 0.91990 0.67776 -0.49700
O 	O 	0.25425 0.14080 0.61015 -0.40000
C 	C 	0.25129 0.98200 0.61836 0.35400
C 	C 	0.25072 0.86210 0.55730 -0.08900
C 	C 	0.24870 0.68250 0.56520 -0.00100
H 	H 	0.24780 0.63620 0.60980 0.02200
C 	C 	0.25200 0.92840 0.49125 -0.02400
H 	H 	0.25330 0.04910 0.48490 0.05900
N 	N 	0.32783 0.90900 0.84824 -0.20300
N 	N 	0.33439 0.07910 0.83077 -0.20300
C 	C 	0.37493 0.87540 0.91360 0.09400
H 	H 	0.38190 0.76830 0.93910 -0.00800
C 	C 	0.38510 0.14120 0.88650 0.09600
H 	H 	0.40040 0.25540 0.88940 -0.00900
N 	N 	0.41237 0.01730 0.93945 -0.13200
C 	C 	0.47250 0.02980 0.00910 -0.05600
H 	H 	0.47960 0.15010 0.02730 0.05000
H 	H 	0.46980 0.95680 0.04920 0.05200
N 	N 	0.16821 0.91480 0.76511 -0.20400
N 	N 	0.16871 0.08850 0.74930 -0.20300
C 	C 	0.11980 0.88840 0.78230 0.09600
H 	H 	0.10880 0.78060 0.79630 -0.00900
C 	C 	0.12038 0.15840 0.75750 0.09900
H 	H 	0.10970 0.27690 0.75050 -0.00900
N 	N 	0.08769 0.03790 0.77730 -0.13300
C 	C 	0.02840 0.05950 0.78850 -0.05300
H 	H 	0.02420 0.96440 0.81980 0.05100
H 	H 	0.02990 0.16910 0.81490 0.04900
Cd	Cd	0.74758 0.21580 0.77249 1.20900
O 	O 	0.74950 0.41990 0.67776 -0.49700
O 	O 	0.75425 0.64080 0.61015 -0.40000
C 	C 	0.75129 0.48200 0.61836 0.35400
C 	C 	0.75072 0.36210 0.55730 -0.08900
C 	C 	0.74870 0.18250 0.56520 -0.00100
H 	H 	0.74780 0.13620 0.60980 0.02200
C 	C 	0.75200 0.42840 0.49125 -0.02400
H 	H 	0.75330 0.54910 0.48490 0.06000
N 	N 	0.82783 0.40900 0.84824 -0.20300
N 	N 	0.83439 0.57910 0.83077 -0.20300
C 	C 	0.87493 0.37540 0.91360 0.09500
H 	H 	0.88190 0.26830 0.93910 -0.00800
C 	C 	0.88510 0.64120 0.88650 0.09600
H 	H 	0.90040 0.75540 0.88940 -0.00900
N 	N 	0.91237 0.51730 0.93945 -0.13200
C 	C 	0.97250 0.52980 0.00910 -0.05500
H 	H 	0.97960 0.65010 0.02730 0.05000
H 	H 	0.96980 0.45680 0.04920 0.05100
N 	N 	0.66821 0.41480 0.76511 -0.20400
N 	N 	0.66871 0.58850 0.74930 -0.20300
C 	C 	0.61980 0.38840 0.78230 0.09600
H 	H 	0.60880 0.28060 0.79630 -0.00900
C 	C 	0.62038 0.65840 0.75750 0.09900
H 	H 	0.60970 0.77690 0.75050 -0.00900
N 	N 	0.58769 0.53790 0.77730 -0.13300
C 	C 	0.52840 0.55950 0.78850 -0.05400
H 	H 	0.52420 0.46440 0.81980 0.05200
H 	H 	0.52990 0.66910 0.81490 0.05000
