data_crystal

_cell_length_a 15.63700
_cell_length_b 15.69100
_cell_length_c 16.29100
_cell_angle_alpha 90.09700
_cell_angle_beta  90.06700
_cell_angle_gamma 90.01500

_symmetry_space_group_name_	'P 1'
_symmetry_space_group_name_H-M	'P 1'

loop_
_symmetry_equiv_pos_as_xyz
  x,y,z

loop_
_atom_site_label
_atom_site_type_symbol
_atom_site_fract_x
_atom_site_fract_y
_atom_site_fract_z
_atom_site_charge
Zn	Zn	0.12529 0.00007 0.46407 1.22900
Zn	Zn	0.37470 0.99988 0.96416 1.22600
O 	O 	0.37360 0.99890 0.08886 -0.43600
O 	O 	0.12640 0.00040 0.58781 -0.46200
O 	O 	0.24000 0.99930 0.95880 -0.38300
O 	O 	0.26040 0.99960 0.45930 -0.37700
O 	O 	0.19750 0.00080 0.33946 -0.34700
O 	O 	0.30254 0.00050 0.83900 -0.35300
C 	C 	0.06710 0.99970 0.72000 -0.05500
C 	C 	0.43410 0.99850 0.21980 -0.01500
O 	O 	0.98710 0.99950 0.59675 -0.48800
O 	O 	0.51210 0.00070 0.09745 -0.50100
C 	C 	0.35500 0.00030 0.25690 -0.08300
H 	H 	0.30550 0.00190 0.22520 0.09000
C 	C 	0.44170 0.00120 0.12830 0.39000
C 	C 	0.14510 0.99840 0.75860 -0.03300
H 	H 	0.19470 0.99580 0.72730 0.06100
C 	C 	0.07750 0.99940 0.89000 -0.15200
H 	H 	0.08150 0.99780 0.94690 0.12900
C 	C 	0.42190 0.00080 0.38950 -0.17300
H 	H 	0.41820 0.00170 0.44650 0.13100
O 	O 	0.92870 0.00420 0.90230 -0.19200
C 	C 	0.05910 0.99910 0.62840 0.40500
O 	O 	0.57090 0.00020 0.40270 -0.19900
C 	C 	0.26280 0.00000 0.38400 0.26400
C 	C 	0.23680 0.99910 0.88440 0.28600
C 	C 	0.99040 0.00080 0.76650 -0.13000
H 	H 	0.93720 0.00170 0.74090 0.10400
C 	C 	0.15120 0.00070 0.84170 0.00000
C 	C 	0.34970 0.99980 0.34290 0.04300
C 	C 	0.50910 0.99900 0.26510 -0.13700
H 	H 	0.56220 0.99840 0.23940 0.10300
C 	C 	0.50260 0.00030 0.35070 0.19400
C 	C 	0.99760 0.00060 0.85150 0.20100
N 	N 	0.38080 0.13180 0.96140 -0.23700
N 	N 	0.11910 0.87050 0.46080 -0.24900
N 	N 	0.37920 0.86630 0.96060 -0.24100
N 	N 	0.11990 0.13120 0.46190 -0.24000
C 	C 	0.11770 0.68210 0.45970 0.12100
C 	C 	0.38350 0.68440 0.95980 0.12100
C 	C 	0.11720 0.58980 0.45940 -0.08000
C 	C 	0.38210 0.59370 0.95970 -0.04800
C 	C 	0.35250 0.81280 0.02480 0.09900
H 	H 	0.33260 0.83970 0.07200 0.00600
C 	C 	0.35230 0.18380 0.02510 0.07000
H 	H 	0.33170 0.15640 0.07170 0.01000
C 	C 	0.35270 0.72750 0.02570 -0.17500
H 	H 	0.33190 0.69810 0.07100 0.09400
C 	C 	0.14990 0.81260 0.52290 0.09000
H 	H 	0.17590 0.83780 0.56810 0.00200
C 	C 	0.14600 0.72720 0.52390 -0.17400
H 	H 	0.16360 0.69840 0.57090 0.09500
C 	C 	0.14830 0.18290 0.52360 0.07600
H 	H 	0.16990 0.15590 0.57000 0.00900
C 	C 	0.14830 0.27110 0.52490 -0.13500
H 	H 	0.16950 0.30000 0.57050 0.07700
C 	C 	0.08600 0.17960 0.39930 0.07300
H 	H 	0.06190 0.15050 0.35520 0.00700
C 	C 	0.41450 0.81890 0.89780 0.09100
H 	H 	0.43910 0.84760 0.85380 0.00100
C 	C 	0.08760 0.73810 0.39590 -0.15800
H 	H 	0.06410 0.71260 0.34950 0.08800
C 	C 	0.09020 0.82720 0.39690 0.09700
H 	H 	0.07100 0.85690 0.35120 -0.00100
C 	C 	0.41530 0.73100 0.89690 -0.17100
H 	H 	0.43820 0.70290 0.85170 0.09100
C 	C 	0.41160 0.18430 0.89840 0.09200
H 	H 	0.42820 0.15630 0.85070 0.00200
C 	C 	0.11780 0.31540 0.46040 0.06400
C 	C 	0.38280 0.31860 0.95930 0.07300
C 	C 	0.38240 0.40990 0.95870 0.00800
C 	C 	0.11840 0.40840 0.45940 0.04300
C 	C 	0.35130 0.26900 0.02630 -0.13600
H 	H 	0.32950 0.29680 0.07220 0.07800
C 	C 	0.42000 0.26630 0.89740 -0.14900
H 	H 	0.45110 0.29160 0.85530 0.08300
C 	C 	0.08460 0.26750 0.39630 -0.13100
H 	H 	0.06120 0.29480 0.35090 0.07600
C 	C 	0.36970 0.45500 0.02620 -0.06700
H 	H 	0.36220 0.42570 0.07520 0.05100
C 	C 	0.40140 0.46360 0.89250 -0.07000
H 	H 	0.40810 0.43850 0.84120 0.05300
C 	C 	0.09810 0.54100 0.39340 0.02200
H 	H 	0.08170 0.56870 0.34550 0.02100
C 	C 	0.10100 0.45620 0.39170 -0.10400
H 	H 	0.09070 0.42850 0.34220 0.06400
C 	C 	0.41030 0.54600 0.89750 -0.00700
H 	H 	0.43820 0.57360 0.85470 0.02900
C 	C 	0.13120 0.45780 0.52580 -0.12500
H 	H 	0.13750 0.43090 0.57620 0.07100
C 	C 	0.36670 0.54310 0.02860 -0.01400
H 	H 	0.35400 0.56980 0.07810 0.03300
C 	C 	0.13540 0.53820 0.52450 0.05500
C 	C 	0.65090 0.05940 0.37050 -0.11700
H 	H 	0.69670 0.04810 0.40930 0.09500
H 	H 	0.66860 0.03280 0.31950 0.08100
C 	C 	0.73060 0.18420 0.30880 -0.15200
H 	H 	0.76950 0.14250 0.29290 0.08800
C 	C 	0.65780 0.16150 0.35260 0.10800
C 	C 	0.59960 0.22370 0.37640 -0.14800
H 	H 	0.55090 0.20860 0.40570 0.09300
C 	C 	0.61420 0.30860 0.35660 0.05300
H 	H 	0.57530 0.35020 0.37250 0.01100
C 	C 	0.68700 0.33130 0.31280 -0.13000
H 	H 	0.69680 0.38800 0.29950 0.07300
C 	C 	0.74520 0.26900 0.28900 0.05400
H 	H 	0.79390 0.28420 0.25970 0.01100
Zn	Zn	0.87471 0.99993 0.53593 1.23200
Zn	Zn	0.62530 0.00012 0.03584 1.22500
O 	O 	0.62640 0.00110 0.91114 -0.45400
O 	O 	0.87360 0.99960 0.41219 -0.44700
O 	O 	0.76000 0.00070 0.04120 -0.37500
O 	O 	0.73960 0.00040 0.54070 -0.39100
O 	O 	0.80250 0.99920 0.66054 -0.34500
O 	O 	0.69746 0.99950 0.16100 -0.33400
C 	C 	0.93290 0.00030 0.28000 -0.03600
C 	C 	0.56590 0.00150 0.78020 -0.06300
O 	O 	0.01290 0.00050 0.40325 -0.49000
O 	O 	0.48790 0.99930 0.90255 -0.50500
C 	C 	0.64500 0.99970 0.74310 -0.02200
H 	H 	0.69450 0.99810 0.77480 0.07300
C 	C 	0.55830 0.99880 0.87170 0.42600
C 	C 	0.85490 0.00160 0.24140 -0.08100
H 	H 	0.80530 0.00420 0.27270 0.07500
C 	C 	0.92250 0.00060 0.11000 -0.20400
H 	H 	0.91850 0.00220 0.05310 0.14400
C 	C 	0.57810 0.99920 0.61050 -0.13200
H 	H 	0.58180 0.99830 0.55350 0.12100
O 	O 	0.07130 0.99580 0.09770 -0.19500
C 	C 	0.94090 0.00090 0.37160 0.38800
O 	O 	0.42910 0.99980 0.59730 -0.19200
C 	C 	0.73720 0.00000 0.61600 0.28700
C 	C 	0.76320 0.00090 0.11560 0.24800
C 	C 	0.00960 0.99920 0.23350 -0.14600
H 	H 	0.06280 0.99830 0.25910 0.11200
C 	C 	0.84880 0.99930 0.15830 0.06000
C 	C 	0.65030 0.00020 0.65710 -0.01100
C 	C 	0.49090 0.00100 0.73490 -0.12000
H 	H 	0.43780 0.00160 0.76060 0.09300
C 	C 	0.49740 0.99970 0.64930 0.18200
C 	C 	0.00240 0.99940 0.14850 0.23000
N 	N 	0.61920 0.86820 0.03860 -0.23500
N 	N 	0.88090 0.12950 0.53920 -0.25100
N 	N 	0.62080 0.13370 0.03940 -0.24200
N 	N 	0.88010 0.86880 0.53810 -0.23900
C 	C 	0.88230 0.31790 0.54030 0.12200
C 	C 	0.61650 0.31560 0.04020 0.12100
C 	C 	0.88280 0.41020 0.54060 -0.08100
C 	C 	0.61790 0.40630 0.04030 -0.04900
C 	C 	0.64750 0.18720 0.97520 0.09900
H 	H 	0.66740 0.16030 0.92800 0.00500
C 	C 	0.64770 0.81620 0.97490 0.07000
H 	H 	0.66830 0.84360 0.92830 0.01200
C 	C 	0.64730 0.27250 0.97430 -0.17500
H 	H 	0.66810 0.30190 0.92900 0.09400
C 	C 	0.85010 0.18740 0.47710 0.09000
H 	H 	0.82410 0.16220 0.43190 0.00100
C 	C 	0.85400 0.27280 0.47610 -0.17500
H 	H 	0.83640 0.30160 0.42910 0.09500
C 	C 	0.85170 0.81710 0.47640 0.07700
H 	H 	0.83010 0.84410 0.43000 0.01000
C 	C 	0.85170 0.72890 0.47510 -0.13500
H 	H 	0.83050 0.70000 0.42950 0.07800
C 	C 	0.91400 0.82040 0.60070 0.07400
H 	H 	0.93810 0.84950 0.64480 0.00900
C 	C 	0.58550 0.18110 0.10220 0.09100
H 	H 	0.56090 0.15240 0.14620 -0.00000
C 	C 	0.91240 0.26190 0.60410 -0.15900
H 	H 	0.93590 0.28740 0.65050 0.08800
C 	C 	0.90980 0.17280 0.60310 0.09800
H 	H 	0.92900 0.14310 0.64880 -0.00200
C 	C 	0.58470 0.26900 0.10310 -0.17100
H 	H 	0.56180 0.29710 0.14830 0.09100
C 	C 	0.58840 0.81570 0.10160 0.09300
H 	H 	0.57180 0.84370 0.14930 0.00300
C 	C 	0.88220 0.68460 0.53960 0.06400
C 	C 	0.61720 0.68140 0.04070 0.07300
C 	C 	0.61760 0.59010 0.04130 0.00900
C 	C 	0.88160 0.59160 0.54060 0.04400
C 	C 	0.64870 0.73100 0.97370 -0.13500
H 	H 	0.67050 0.70320 0.92780 0.07800
C 	C 	0.58000 0.73370 0.10260 -0.14900
H 	H 	0.54890 0.70840 0.14470 0.08400
C 	C 	0.91540 0.73250 0.60370 -0.13000
H 	H 	0.93880 0.70520 0.64910 0.07600
C 	C 	0.63030 0.54500 0.97380 -0.06800
H 	H 	0.63780 0.57430 0.92480 0.05200
C 	C 	0.59860 0.53640 0.10750 -0.07100
H 	H 	0.59190 0.56150 0.15880 0.05300
C 	C 	0.90190 0.45900 0.60660 0.02300
H 	H 	0.91830 0.43130 0.65450 0.02100
C 	C 	0.89900 0.54380 0.60830 -0.10400
H 	H 	0.90930 0.57150 0.65780 0.06500
C 	C 	0.58970 0.45400 0.10250 -0.00700
H 	H 	0.56180 0.42640 0.14530 0.02900
C 	C 	0.86880 0.54220 0.47420 -0.12600
H 	H 	0.86250 0.56910 0.42380 0.07200
C 	C 	0.63330 0.45690 0.97140 -0.01300
H 	H 	0.64600 0.43020 0.92190 0.03200
C 	C 	0.86460 0.46180 0.47550 0.05600
C 	C 	0.34910 0.94060 0.62950 -0.12100
H 	H 	0.30330 0.95190 0.59070 0.09700
H 	H 	0.33140 0.96720 0.68050 0.08600
C 	C 	0.26940 0.81580 0.69120 -0.15400
H 	H 	0.23050 0.85750 0.70710 0.08900
C 	C 	0.34220 0.83850 0.64740 0.11100
C 	C 	0.40040 0.77630 0.62360 -0.15000
H 	H 	0.44910 0.79140 0.59430 0.09500
C 	C 	0.38580 0.69140 0.64340 0.05500
H 	H 	0.42470 0.64980 0.62750 0.01000
C 	C 	0.31300 0.66870 0.68720 -0.13100
H 	H 	0.30320 0.61200 0.70050 0.07400
C 	C 	0.25480 0.73100 0.71100 0.05600
H 	H 	0.20610 0.71580 0.74030 0.01100
