data_crystal

_cell_length_a 25.64500
_cell_length_b 11.55500
_cell_length_c 7.01200
_cell_angle_alpha 90.00000
_cell_angle_beta  99.98200
_cell_angle_gamma 90.00000

_symmetry_space_group_name_	'P 1'
_symmetry_space_group_name_H-M	'P 1'

loop_
_symmetry_equiv_pos_as_xyz
  x,y,z

loop_
_atom_site_label
_atom_site_type_symbol
_atom_site_fract_x
_atom_site_fract_y
_atom_site_fract_z
_atom_site_charge
O 	O 	0.56868 0.97568 0.72490 -0.52100
C 	C 	0.56941 0.07630 0.65580 0.86900
C 	C 	0.65686 0.11700 0.84900 1.53800
C 	C 	0.62042 0.14090 0.70020 -1.44000
C 	C 	0.72300 0.27340 0.81570 0.46900
H 	H 	0.70540 0.28940 0.69110 -0.16600
C 	C 	0.70525 0.18390 0.92160 -0.70200
C 	C 	0.73324 0.16140 0.10480 0.43100
H 	H 	0.72240 0.10100 0.17650 -0.12100
O 	O 	0.53095 0.12764 0.55690 -0.58100
H 	H 	0.65660 0.06300 0.90700 -0.66800
H 	H 	0.62500 0.20000 0.63500 0.60900
O 	O 	0.06868 0.47568 0.72490 -0.53800
C 	C 	0.06941 0.57630 0.65580 0.88200
C 	C 	0.15686 0.61700 0.84900 1.57900
C 	C 	0.12042 0.64090 0.70020 -1.47700
C 	C 	0.22300 0.77340 0.81570 0.48300
H 	H 	0.20540 0.78940 0.69110 -0.17400
C 	C 	0.20525 0.68390 0.92160 -0.72500
C 	C 	0.23324 0.66140 0.10480 0.44500
H 	H 	0.22240 0.60100 0.17650 -0.12700
O 	O 	0.03095 0.62764 0.55690 -0.61100
H 	H 	0.15660 0.56300 0.90700 -0.68900
H 	H 	0.12500 0.70000 0.63500 0.62000
O 	O 	0.43132 0.97568 0.77510 -0.46200
C 	C 	0.43059 0.07630 0.84420 0.58200
C 	C 	0.34314 0.11700 0.65100 0.50400
C 	C 	0.37958 0.14090 0.79980 -0.67900
C 	C 	0.27700 0.27340 0.68430 -0.02500
H 	H 	0.29460 0.28940 0.80890 0.03300
C 	C 	0.29475 0.18390 0.57840 -0.15200
C 	C 	0.26676 0.16140 0.39520 -0.02500
H 	H 	0.27760 0.10100 0.32350 0.02900
O 	O 	0.46905 0.12764 0.94310 -0.47800
H 	H 	0.34340 0.06300 0.59300 -0.19700
H 	H 	0.37500 0.20000 0.86500 0.31100
O 	O 	0.93132 0.47568 0.77510 -0.43800
C 	C 	0.93059 0.57630 0.84420 0.57800
C 	C 	0.84314 0.61700 0.65100 0.50600
C 	C 	0.87958 0.64090 0.79980 -0.67100
C 	C 	0.77700 0.77340 0.68430 -0.01700
H 	H 	0.79460 0.78940 0.80890 0.03300
C 	C 	0.79475 0.68390 0.57840 -0.15500
C 	C 	0.76676 0.66140 0.39520 -0.01700
H 	H 	0.77760 0.60100 0.32350 0.02800
O 	O 	0.96905 0.62764 0.94310 -0.43700
H 	H 	0.84340 0.56300 0.59300 -0.19600
H 	H 	0.87500 0.70000 0.86500 0.31300
O 	O 	0.43132 0.02432 0.27510 -0.42700
C 	C 	0.43059 0.92370 0.34420 0.31800
C 	C 	0.34314 0.88300 0.15100 -0.46500
C 	C 	0.37958 0.85910 0.29980 0.04800
C 	C 	0.27700 0.72660 0.18430 -0.47600
H 	H 	0.29460 0.71060 0.30890 0.19500
C 	C 	0.29475 0.81610 0.07840 0.35400
C 	C 	0.26676 0.83860 0.89520 -0.42800
H 	H 	0.27760 0.89900 0.82350 0.18600
O 	O 	0.46905 0.87236 0.44310 -0.43000
H 	H 	0.34340 0.93700 0.09300 0.25500
H 	H 	0.37500 0.80000 0.36500 0.01200
O 	O 	0.93132 0.52432 0.27510 -0.40100
C 	C 	0.93059 0.42370 0.34420 0.31400
C 	C 	0.84314 0.38300 0.15100 -0.45600
C 	C 	0.87958 0.35910 0.29980 0.05100
C 	C 	0.77700 0.22660 0.18430 -0.46300
H 	H 	0.79460 0.21060 0.30890 0.19300
C 	C 	0.79475 0.31610 0.07840 0.34800
C 	C 	0.76676 0.33860 0.89520 -0.41600
H 	H 	0.77760 0.39900 0.82350 0.18300
O 	O 	0.96905 0.37236 0.44310 -0.38800
H 	H 	0.84340 0.43700 0.09300 0.25200
H 	H 	0.87500 0.30000 0.36500 0.01700
O 	O 	0.56868 0.02432 0.22490 -0.48700
C 	C 	0.56941 0.92370 0.15580 0.60600
C 	C 	0.65686 0.88300 0.34900 0.57600
C 	C 	0.62042 0.85910 0.20020 -0.72000
C 	C 	0.72300 0.72660 0.31570 0.02200
H 	H 	0.70540 0.71060 0.19110 -0.00600
C 	C 	0.70525 0.81610 0.42160 -0.20000
C 	C 	0.73324 0.83860 0.60480 0.03200
H 	H 	0.72240 0.89900 0.67650 0.03400
O 	O 	0.53095 0.87236 0.05690 -0.53300
H 	H 	0.65660 0.93700 0.40700 -0.22000
H 	H 	0.62500 0.80000 0.13500 0.31300
O 	O 	0.06868 0.52432 0.22490 -0.50100
C 	C 	0.06941 0.42370 0.15580 0.61400
C 	C 	0.15686 0.38300 0.34900 0.60500
C 	C 	0.12042 0.35910 0.20020 -0.74700
C 	C 	0.22300 0.22660 0.31570 0.03100
H 	H 	0.20540 0.21060 0.19110 -0.01200
C 	C 	0.20525 0.31610 0.42160 -0.21700
C 	C 	0.23324 0.33860 0.60480 0.04100
H 	H 	0.22240 0.39900 0.67650 0.02900
O 	O 	0.03095 0.37236 0.05690 -0.56100
H 	H 	0.15660 0.43700 0.40700 -0.23500
H 	H 	0.12500 0.30000 0.13500 0.32000
Co	Co	0.50000 0.87966 0.75000 1.14900
Co	Co	-0.00000 0.37966 0.75000 1.11900
Co	Co	0.50000 0.12034 0.25000 1.12400
Co	Co	0.00000 0.62034 0.25000 1.09500
