data_crystal

_cell_length_a 20.00340
_cell_length_b 20.21880
_cell_length_c 20.97310
_cell_angle_alpha 90.00000
_cell_angle_beta  90.00000
_cell_angle_gamma 90.00000

_symmetry_space_group_name_	'P 1'
_symmetry_space_group_name_H-M	'P 1'

loop_
_symmetry_equiv_pos_as_xyz
  x,y,z

loop_
_atom_site_label
_atom_site_type_symbol
_atom_site_fract_x
_atom_site_fract_y
_atom_site_fract_z
_atom_site_charge
Be	Be	0.59820 0.49290 0.63710 1.48200
Be	Be	0.54310 0.29360 0.62110 1.48100
Be	Be	0.36930 0.36280 0.55020 1.48200
Be	Be	0.18020 0.40950 0.48990 1.48200
Be	Be	0.13880 0.43900 0.67940 1.48200
Be	Be	0.04970 0.61080 0.62630 1.48200
P 	P 	0.63286 0.36973 0.70394 0.56300
H 	H 	0.69410 0.34570 0.71370 -0.02400
P 	P 	0.50339 0.41899 0.56226 0.55800
H 	H 	0.51920 0.43170 0.49450 0.00300
P 	P 	0.40938 0.25026 0.62333 0.57500
H 	H 	0.36330 0.26140 0.66420 -0.04200
P 	P 	0.31267 0.41712 0.43430 0.59900
H 	H 	0.30170 0.38720 0.38230 -0.05800
P 	P 	0.23799 0.36396 0.60771 0.57100
H 	H 	0.23950 0.30160 0.63550 -0.01900
P 	P 	0.08055 0.48376 0.56331 0.56900
H 	H 	0.02220 0.45750 0.53650 -0.01500
P 	P 	0.11249 0.56223 0.74204 0.57900
H 	H 	0.15240 0.61260 0.75270 -0.03600
P 	P 	0.92854 0.65773 0.57157 -0.69700
H 	H 	0.95660 0.64840 0.52090 0.21000
O 	O 	0.60455 0.38764 0.76922 -0.52800
O 	O 	0.59491 0.31141 0.67760 -0.56100
O 	O 	0.63947 0.42824 0.66052 -0.56900
O 	O 	0.52648 0.47162 0.60793 -0.54100
O 	O 	0.47168 0.27748 0.65453 -0.57300
O 	O 	0.39043 0.28720 0.56320 -0.55900
O 	O 	0.53748 0.35302 0.56989 -0.57200
O 	O 	0.42807 0.41560 0.56540 -0.54000
O 	O 	0.30967 0.38408 0.59782 -0.54900
O 	O 	0.34553 0.36612 0.47632 -0.56100
O 	O 	0.35714 0.47429 0.41898 -0.55200
O 	O 	0.24695 0.44195 0.46009 -0.55300
O 	O 	0.19757 0.35799 0.54736 -0.56500
O 	O 	0.20865 0.40870 0.65724 -0.56300
O 	O 	0.13441 0.46990 0.51515 -0.54600
O 	O 	0.08481 0.44201 0.62282 -0.57500
O 	O 	0.15474 0.50904 0.71185 -0.58500
O 	O 	0.08364 0.54396 0.80594 -0.55800
O 	O 	0.07713 0.55685 0.57591 -0.55000
O 	O 	0.05743 0.58768 0.69956 -0.56100
O 	O 	0.41118 0.17743 0.61014 -0.56200
O 	O 	0.96861 0.61869 0.61815 -0.55700
O 	O 	0.85772 0.63135 0.56605 -0.59900
O 	O 	0.92842 0.73093 0.58221 -0.56400
P 	P 	0.90950 0.66210 0.60310 1.22200
Be	Be	0.90180 0.50710 0.13710 1.48100
Be	Be	0.95690 0.70640 0.12110 1.48000
Be	Be	0.13070 0.63720 0.05020 1.48100
Be	Be	0.31980 0.59050 0.98990 1.48100
Be	Be	0.36120 0.56100 0.17940 1.48100
Be	Be	0.45030 0.38920 0.12630 1.48100
P 	P 	0.86714 0.63027 0.20394 0.56200
H 	H 	0.80590 0.65430 0.21370 -0.02500
P 	P 	0.99661 0.58101 0.06226 0.55600
H 	H 	0.98080 0.56830 0.99450 0.00400
P 	P 	0.09062 0.74974 0.12333 0.57500
H 	H 	0.13670 0.73860 0.16420 -0.04200
P 	P 	0.18733 0.58288 0.93430 0.59900
H 	H 	0.19830 0.61280 0.88230 -0.05800
P 	P 	0.26201 0.63604 0.10771 0.57200
H 	H 	0.26050 0.69840 0.13550 -0.01800
P 	P 	0.41945 0.51624 0.06331 0.56900
H 	H 	0.47780 0.54250 0.03650 -0.01500
P 	P 	0.38751 0.43777 0.24204 0.57900
H 	H 	0.34760 0.38740 0.25270 -0.03600
P 	P 	0.57146 0.34227 0.07157 -0.69800
H 	H 	0.54340 0.35160 0.02090 0.21000
O 	O 	0.89545 0.61236 0.26922 -0.52900
O 	O 	0.90509 0.68859 0.17760 -0.56200
O 	O 	0.86053 0.57176 0.16052 -0.56900
O 	O 	0.97352 0.52838 0.10793 -0.54100
O 	O 	0.02832 0.72252 0.15453 -0.57100
O 	O 	0.10957 0.71280 0.06320 -0.55700
O 	O 	0.96252 0.64698 0.06989 -0.57200
O 	O 	0.07193 0.58440 0.06540 -0.53800
O 	O 	0.19033 0.61592 0.09782 -0.54800
O 	O 	0.15447 0.63388 0.97632 -0.56300
O 	O 	0.14286 0.52571 0.91898 -0.55300
O 	O 	0.25305 0.55805 0.96009 -0.55300
O 	O 	0.30243 0.64201 0.04736 -0.56300
O 	O 	0.29135 0.59130 0.15724 -0.56300
O 	O 	0.36559 0.53010 0.01515 -0.54500
O 	O 	0.41519 0.55799 0.12282 -0.57500
O 	O 	0.34526 0.49096 0.21185 -0.58500
O 	O 	0.41636 0.45604 0.30594 -0.55800
O 	O 	0.42287 0.44315 0.07591 -0.55000
O 	O 	0.44257 0.41232 0.19956 -0.56100
O 	O 	0.08882 0.82257 0.11014 -0.56100
O 	O 	0.53139 0.38131 0.11815 -0.55700
O 	O 	0.64228 0.36865 0.06605 -0.60000
O 	O 	0.57158 0.26907 0.08221 -0.56400
P 	P 	0.59050 0.33790 0.10310 1.22200
Be	Be	0.40180 0.99290 0.86290 1.48100
Be	Be	0.45690 0.79360 0.87890 1.48000
Be	Be	0.63070 0.86280 0.94980 1.48100
Be	Be	0.81980 0.90950 0.01010 1.48100
Be	Be	0.86120 0.93900 0.82060 1.48100
Be	Be	0.95030 0.11080 0.87370 1.48100
P 	P 	0.36714 0.86973 0.79606 0.56200
H 	H 	0.30590 0.84570 0.78630 -0.02600
P 	P 	0.49661 0.91899 0.93774 0.55600
H 	H 	0.48080 0.93170 0.00550 0.00600
P 	P 	0.59062 0.75026 0.87667 0.57500
H 	H 	0.63670 0.76140 0.83580 -0.04200
P 	P 	0.68733 0.91712 0.06570 0.59900
H 	H 	0.69830 0.88720 0.11770 -0.05700
P 	P 	0.76201 0.86396 0.89229 0.57200
H 	H 	0.76050 0.80160 0.86450 -0.01900
P 	P 	0.91945 0.98376 0.93669 0.56400
H 	H 	0.97780 0.95750 0.96350 -0.01600
P 	P 	0.88751 0.06223 0.75796 0.57800
H 	H 	0.84760 0.11260 0.74730 -0.03500
P 	P 	0.07146 0.15773 0.92843 -0.69300
H 	H 	0.04340 0.14840 0.97910 0.20900
O 	O 	0.39545 0.88764 0.73078 -0.52900
O 	O 	0.40509 0.81141 0.82240 -0.56100
O 	O 	0.36053 0.92824 0.83948 -0.57000
O 	O 	0.47352 0.97162 0.89207 -0.54200
O 	O 	0.52832 0.77748 0.84547 -0.57300
O 	O 	0.60957 0.78720 0.93680 -0.56000
O 	O 	0.46252 0.85302 0.93011 -0.57200
O 	O 	0.57193 0.91560 0.93460 -0.54100
O 	O 	0.69033 0.88408 0.90218 -0.55000
O 	O 	0.65447 0.86612 0.02368 -0.56000
O 	O 	0.64286 0.97429 0.08102 -0.55100
O 	O 	0.75305 0.94195 0.03991 -0.55200
O 	O 	0.80243 0.85799 0.95264 -0.56500
O 	O 	0.79135 0.90870 0.84276 -0.56400
O 	O 	0.86559 0.96990 0.98485 -0.54700
O 	O 	0.91519 0.94201 0.87718 -0.57600
O 	O 	0.84526 0.00904 0.78815 -0.58200
O 	O 	0.91636 0.04396 0.69406 -0.55500
O 	O 	0.92287 0.05685 0.92409 -0.54400
O 	O 	0.94257 0.08768 0.80044 -0.55900
O 	O 	0.58882 0.67743 0.88986 -0.56200
O 	O 	0.03139 0.11869 0.88185 -0.55900
O 	O 	0.14228 0.13135 0.93395 -0.59900
O 	O 	0.07158 0.23093 0.91779 -0.56500
P 	P 	0.09050 0.16210 0.89690 1.21700
Be	Be	0.09820 0.00710 0.36290 1.48100
Be	Be	0.04310 0.20640 0.37890 1.48000
Be	Be	0.86930 0.13720 0.44980 1.48100
Be	Be	0.68020 0.09050 0.51010 1.48100
Be	Be	0.63880 0.06100 0.32060 1.48100
Be	Be	0.54970 0.88920 0.37370 1.48100
P 	P 	0.13286 0.13027 0.29606 0.56200
H 	H 	0.19410 0.15430 0.28630 -0.02600
P 	P 	0.00339 0.08101 0.43774 0.55600
H 	H 	0.01920 0.06830 0.50550 0.00200
P 	P 	0.90938 0.24974 0.37667 0.57500
H 	H 	0.86330 0.23860 0.33580 -0.04200
P 	P 	0.81267 0.08288 0.56570 0.59900
H 	H 	0.80170 0.11280 0.61770 -0.05700
P 	P 	0.73799 0.13604 0.39229 0.57200
H 	H 	0.73950 0.19840 0.36450 -0.01900
P 	P 	0.58055 0.01624 0.43669 0.56900
H 	H 	0.52220 0.04250 0.46350 -0.01500
P 	P 	0.61249 0.93777 0.25796 0.57900
H 	H 	0.65240 0.88740 0.24730 -0.03600
P 	P 	0.42854 0.84227 0.42843 -0.70000
H 	H 	0.45660 0.85160 0.47910 0.21100
O 	O 	0.10455 0.11236 0.23078 -0.53000
O 	O 	0.09491 0.18859 0.32240 -0.56200
O 	O 	0.13947 0.07176 0.33948 -0.57100
O 	O 	0.02648 0.02838 0.39207 -0.54300
O 	O 	0.97168 0.22252 0.34547 -0.57200
O 	O 	0.89043 0.21280 0.43680 -0.55900
O 	O 	0.03748 0.14698 0.43011 -0.57200
O 	O 	0.92807 0.08440 0.43460 -0.53800
O 	O 	0.80967 0.11592 0.40218 -0.54900
O 	O 	0.84553 0.13388 0.52368 -0.56100
O 	O 	0.85714 0.02571 0.58102 -0.55000
O 	O 	0.74695 0.05805 0.53991 -0.55200
O 	O 	0.69757 0.14201 0.45264 -0.56400
O 	O 	0.70865 0.09130 0.34276 -0.56300
O 	O 	0.63441 0.03010 0.48485 -0.54600
O 	O 	0.58481 0.05799 0.37718 -0.57500
O 	O 	0.65474 0.99096 0.28815 -0.58500
O 	O 	0.58364 0.95604 0.19406 -0.55700
O 	O 	0.57713 0.94315 0.42409 -0.55000
O 	O 	0.55743 0.91232 0.30044 -0.56100
O 	O 	0.91118 0.32257 0.38986 -0.56200
O 	O 	0.46861 0.88131 0.38185 -0.55700
O 	O 	0.35772 0.86865 0.43395 -0.59900
O 	O 	0.42842 0.76907 0.41779 -0.56400
P 	P 	0.40950 0.83790 0.39690 1.22500
Be	Be	0.40180 0.50710 0.36290 1.48100
Be	Be	0.45690 0.70640 0.37890 1.48000
Be	Be	0.63070 0.63720 0.44980 1.48100
Be	Be	0.81980 0.59050 0.51010 1.48100
Be	Be	0.86120 0.56100 0.32060 1.48100
Be	Be	0.95030 0.38920 0.37370 1.48100
P 	P 	0.36714 0.63027 0.29606 0.56200
H 	H 	0.30590 0.65430 0.28630 -0.02500
P 	P 	0.49661 0.58101 0.43774 0.55800
H 	H 	0.48080 0.56830 0.50550 0.00300
P 	P 	0.59062 0.74974 0.37667 0.57500
H 	H 	0.63670 0.73860 0.33580 -0.04200
P 	P 	0.68733 0.58288 0.56570 0.59900
H 	H 	0.69830 0.61280 0.61770 -0.05800
P 	P 	0.76201 0.63604 0.39229 0.57100
H 	H 	0.76050 0.69840 0.36450 -0.01900
P 	P 	0.91945 0.51624 0.43669 0.56900
H 	H 	0.97780 0.54250 0.46350 -0.01500
P 	P 	0.88751 0.43777 0.25796 0.57900
H 	H 	0.84760 0.38740 0.24730 -0.03600
P 	P 	0.07146 0.34227 0.42843 -0.69700
H 	H 	0.04340 0.35160 0.47910 0.21000
O 	O 	0.39545 0.61236 0.23078 -0.52800
O 	O 	0.40509 0.68859 0.32240 -0.56100
O 	O 	0.36053 0.57176 0.33948 -0.56900
O 	O 	0.47352 0.52838 0.39207 -0.54100
O 	O 	0.52832 0.72252 0.34547 -0.57300
O 	O 	0.60957 0.71280 0.43680 -0.55900
O 	O 	0.46252 0.64698 0.43011 -0.57200
O 	O 	0.57193 0.58440 0.43460 -0.54000
O 	O 	0.69033 0.61592 0.40218 -0.54900
O 	O 	0.65447 0.63388 0.52368 -0.56100
O 	O 	0.64286 0.52571 0.58102 -0.55200
O 	O 	0.75305 0.55805 0.53991 -0.55300
O 	O 	0.80243 0.64201 0.45264 -0.56500
O 	O 	0.79135 0.59130 0.34276 -0.56300
O 	O 	0.86559 0.53010 0.48485 -0.54600
O 	O 	0.91519 0.55799 0.37718 -0.57500
O 	O 	0.84526 0.49096 0.28815 -0.58500
O 	O 	0.91636 0.45604 0.19406 -0.55800
O 	O 	0.92287 0.44315 0.42409 -0.55000
O 	O 	0.94257 0.41232 0.30044 -0.56100
O 	O 	0.58882 0.82257 0.38986 -0.56200
O 	O 	0.03139 0.38131 0.38185 -0.55700
O 	O 	0.14228 0.36865 0.43395 -0.59900
O 	O 	0.07158 0.26907 0.41779 -0.56400
P 	P 	0.09050 0.33790 0.39690 1.22200
Be	Be	0.09820 0.49290 0.86290 1.48100
Be	Be	0.04310 0.29360 0.87890 1.48000
Be	Be	0.86930 0.36280 0.94980 1.48100
Be	Be	0.68020 0.40950 0.01010 1.48100
Be	Be	0.63880 0.43900 0.82060 1.48100
Be	Be	0.54970 0.61080 0.87370 1.48100
P 	P 	0.13286 0.36973 0.79606 0.56200
H 	H 	0.19410 0.34570 0.78630 -0.02500
P 	P 	0.00339 0.41899 0.93774 0.55600
H 	H 	0.01920 0.43170 0.00550 0.00400
P 	P 	0.90938 0.25026 0.87667 0.57500
H 	H 	0.86330 0.26140 0.83580 -0.04200
P 	P 	0.81267 0.41712 0.06570 0.59900
H 	H 	0.80170 0.38720 0.11770 -0.05800
P 	P 	0.73799 0.36396 0.89229 0.57200
H 	H 	0.73950 0.30160 0.86450 -0.01800
P 	P 	0.58055 0.48376 0.93669 0.56900
H 	H 	0.52220 0.45750 0.96350 -0.01500
P 	P 	0.61249 0.56223 0.75796 0.57900
H 	H 	0.65240 0.61260 0.74730 -0.03600
P 	P 	0.42854 0.65773 0.92843 -0.69800
H 	H 	0.45660 0.64840 0.97910 0.21000
O 	O 	0.10455 0.38764 0.73078 -0.52900
O 	O 	0.09491 0.31141 0.82240 -0.56200
O 	O 	0.13947 0.42824 0.83948 -0.56900
O 	O 	0.02648 0.47162 0.89207 -0.54100
O 	O 	0.97168 0.27748 0.84547 -0.57100
O 	O 	0.89043 0.28720 0.93680 -0.55700
O 	O 	0.03748 0.35302 0.93011 -0.57200
O 	O 	0.92807 0.41560 0.93460 -0.53800
O 	O 	0.80967 0.38408 0.90218 -0.54800
O 	O 	0.84553 0.36612 0.02368 -0.56300
O 	O 	0.85714 0.47429 0.08102 -0.55300
O 	O 	0.74695 0.44195 0.03991 -0.55300
O 	O 	0.69757 0.35799 0.95264 -0.56300
O 	O 	0.70865 0.40870 0.84276 -0.56300
O 	O 	0.63441 0.46990 0.98485 -0.54500
O 	O 	0.58481 0.44201 0.87718 -0.57500
O 	O 	0.65474 0.50904 0.78815 -0.58500
O 	O 	0.58364 0.54396 0.69406 -0.55800
O 	O 	0.57713 0.55685 0.92409 -0.55000
O 	O 	0.55743 0.58768 0.80044 -0.56100
O 	O 	0.91118 0.17743 0.88986 -0.56100
O 	O 	0.46861 0.61869 0.88185 -0.55700
O 	O 	0.35772 0.63135 0.93395 -0.60000
O 	O 	0.42842 0.73093 0.91779 -0.56400
P 	P 	0.40950 0.66210 0.89690 1.22200
Be	Be	0.59820 0.00710 0.13710 1.48100
Be	Be	0.54310 0.20640 0.12110 1.48000
Be	Be	0.36930 0.13720 0.05020 1.48100
Be	Be	0.18020 0.09050 0.98990 1.48100
Be	Be	0.13880 0.06100 0.17940 1.48100
Be	Be	0.04970 0.88920 0.12630 1.48100
P 	P 	0.63286 0.13027 0.20394 0.56200
H 	H 	0.69410 0.15430 0.21370 -0.02600
P 	P 	0.50339 0.08101 0.06226 0.55600
H 	H 	0.51920 0.06830 0.99450 0.00600
P 	P 	0.40938 0.24974 0.12333 0.57500
H 	H 	0.36330 0.23860 0.16420 -0.04200
P 	P 	0.31267 0.08288 0.93430 0.59900
H 	H 	0.30170 0.11280 0.88230 -0.05700
P 	P 	0.23799 0.13604 0.10771 0.57200
H 	H 	0.23950 0.19840 0.13550 -0.01900
P 	P 	0.08055 0.01624 0.06331 0.56400
H 	H 	0.02220 0.04250 0.03650 -0.01600
P 	P 	0.11249 0.93777 0.24204 0.57800
H 	H 	0.15240 0.88740 0.25270 -0.03500
P 	P 	0.92854 0.84227 0.07157 -0.69300
H 	H 	0.95660 0.85160 0.02090 0.20900
O 	O 	0.60455 0.11236 0.26922 -0.52900
O 	O 	0.59491 0.18859 0.17760 -0.56100
O 	O 	0.63947 0.07176 0.16052 -0.57000
O 	O 	0.52648 0.02838 0.10793 -0.54200
O 	O 	0.47168 0.22252 0.15453 -0.57300
O 	O 	0.39043 0.21280 0.06320 -0.56000
O 	O 	0.53748 0.14698 0.06989 -0.57200
O 	O 	0.42807 0.08440 0.06540 -0.54100
O 	O 	0.30967 0.11592 0.09782 -0.55000
O 	O 	0.34553 0.13388 0.97632 -0.56000
O 	O 	0.35714 0.02571 0.91898 -0.55100
O 	O 	0.24695 0.05805 0.96009 -0.55200
O 	O 	0.19757 0.14201 0.04736 -0.56500
O 	O 	0.20865 0.09130 0.15724 -0.56400
O 	O 	0.13441 0.03010 0.01515 -0.54700
O 	O 	0.08481 0.05799 0.12282 -0.57600
O 	O 	0.15474 0.99096 0.21185 -0.58200
O 	O 	0.08364 0.95604 0.30594 -0.55500
O 	O 	0.07713 0.94315 0.07591 -0.54400
O 	O 	0.05743 0.91232 0.19956 -0.55900
O 	O 	0.41118 0.32257 0.11014 -0.56200
O 	O 	0.96861 0.88131 0.11815 -0.55900
O 	O 	0.85772 0.86865 0.06605 -0.59900
O 	O 	0.92842 0.76907 0.08221 -0.56500
P 	P 	0.90950 0.83790 0.10310 1.21700
Be	Be	0.90180 0.99290 0.63710 1.48100
Be	Be	0.95690 0.79360 0.62110 1.48000
Be	Be	0.13070 0.86280 0.55020 1.48100
Be	Be	0.31980 0.90950 0.48990 1.48100
Be	Be	0.36120 0.93900 0.67940 1.48100
Be	Be	0.45030 0.11080 0.62630 1.48100
P 	P 	0.86714 0.86973 0.70394 0.56200
H 	H 	0.80590 0.84570 0.71370 -0.02600
P 	P 	0.99661 0.91899 0.56226 0.55600
H 	H 	0.98080 0.93170 0.49450 0.00200
P 	P 	0.09062 0.75026 0.62333 0.57500
H 	H 	0.13670 0.76140 0.66420 -0.04200
P 	P 	0.18733 0.91712 0.43430 0.59900
H 	H 	0.19830 0.88720 0.38230 -0.05700
P 	P 	0.26201 0.86396 0.60771 0.57200
H 	H 	0.26050 0.80160 0.63550 -0.01900
P 	P 	0.41945 0.98376 0.56331 0.56900
H 	H 	0.47780 0.95750 0.53650 -0.01500
P 	P 	0.38751 0.06223 0.74204 0.57900
H 	H 	0.34760 0.11260 0.75270 -0.03600
P 	P 	0.57146 0.15773 0.57157 -0.70000
H 	H 	0.54340 0.14840 0.52090 0.21100
O 	O 	0.89545 0.88764 0.76922 -0.53000
O 	O 	0.90509 0.81141 0.67760 -0.56200
O 	O 	0.86053 0.92824 0.66052 -0.57100
O 	O 	0.97352 0.97162 0.60793 -0.54300
O 	O 	0.02832 0.77748 0.65453 -0.57200
O 	O 	0.10957 0.78720 0.56320 -0.55900
O 	O 	0.96252 0.85302 0.56989 -0.57200
O 	O 	0.07193 0.91560 0.56540 -0.53800
O 	O 	0.19033 0.88408 0.59782 -0.54900
O 	O 	0.15447 0.86612 0.47632 -0.56100
O 	O 	0.14286 0.97429 0.41898 -0.55000
O 	O 	0.25305 0.94195 0.46009 -0.55200
O 	O 	0.30243 0.85799 0.54736 -0.56400
O 	O 	0.29135 0.90870 0.65724 -0.56300
O 	O 	0.36559 0.96990 0.51515 -0.54600
O 	O 	0.41519 0.94201 0.62282 -0.57500
O 	O 	0.34526 0.00904 0.71185 -0.58500
O 	O 	0.41636 0.04396 0.80594 -0.55700
O 	O 	0.42287 0.05685 0.57591 -0.55000
O 	O 	0.44257 0.08768 0.69956 -0.56100
O 	O 	0.08882 0.67743 0.61014 -0.56200
O 	O 	0.53139 0.11869 0.61815 -0.55700
O 	O 	0.64228 0.13135 0.56605 -0.59900
O 	O 	0.57158 0.23093 0.58221 -0.56400
P 	P 	0.59050 0.16210 0.60310 1.22500
