data_crystal

_cell_length_a 16.04020
_cell_length_b 16.04020
_cell_length_c 17.79760
_cell_angle_alpha 90.00000
_cell_angle_beta  90.00000
_cell_angle_gamma 120.00000

_symmetry_space_group_name_	'P 1'
_symmetry_space_group_name_H-M	'P 1'

loop_
_symmetry_equiv_pos_as_xyz
  x,y,z

loop_
_atom_site_label
_atom_site_type_symbol
_atom_site_fract_x
_atom_site_fract_y
_atom_site_fract_z
_atom_site_charge
C 	C 	0.27110 0.62250 0.19160 0.03100
H 	H 	0.22110 0.58440 0.15720 0.01300
C 	C 	0.34280 0.59470 0.20860 -0.06700
C 	C 	0.34340 0.52060 0.16630 -0.02100
C 	C 	0.40350 0.48710 0.18800 0.01800
H 	H 	0.40520 0.43750 0.16010 0.02200
N 	N 	0.46000 0.52460 0.24901 -0.20000
H 	H 	0.49600 0.50010 0.26240 0.07300
C 	C 	0.46510 0.59640 0.29060 0.10900
C 	C 	0.40580 0.63400 0.27000 0.09700
C 	C 	0.52770 0.62930 0.35860 -0.42800
H 	H 	0.56110 0.59240 0.36350 0.11100
H 	H 	0.48810 0.61920 0.40330 0.13300
H 	H 	0.57520 0.69790 0.35370 0.14400
C 	C 	0.28340 0.48060 0.09650 0.06200
H 	H 	0.29650 0.43230 0.07320 0.02300
H 	H 	0.21420 0.44840 0.10970 0.00800
C 	C 	0.19760 0.77810 0.23730 0.14900
C 	C 	0.05840 0.76670 0.17140 0.03500
H 	H 	0.06420 0.72680 0.13470 0.00500
C 	C 	0.11420 0.85990 0.28530 0.03600
H 	H 	0.15990 0.88640 0.32490 0.02400
C 	C 	0.98420 0.78690 0.16680 -0.26400
H 	H 	0.94150 0.76480 0.12510 -0.30000
C 	C 	0.97250 0.83970 0.22350 0.17900
H 	H 	0.91970 0.85080 0.22130 -0.04400
C 	C 	0.03560 0.87630 0.28290 -0.14600
H 	H 	0.02640 0.91190 0.32150 0.05700
C 	C 	0.12440 0.80500 0.22980 0.06900
N 	N 	0.19660 0.71040 0.20183 -0.13300
N 	N 	0.27280 0.69670 0.22130 -0.16900
O 	O 	0.28130 0.84120 0.28036 -0.38500
O 	O 	0.40940 0.70250 0.31384 -0.39900
O 	O 	0.30616 0.55766 0.04405 -0.38600
H 	H 	0.37050 0.60720 0.04090 0.17800
Mo	Mo	0.38065 0.80508 0.30019 1.06600
C 	C 	0.21950 0.79830 0.23230 0.02000
C 	C 	0.15730 0.83980 0.21640 -0.12600
C 	C 	0.17480 0.92680 0.24690 -0.06200
H 	H 	0.22840 0.96240 0.27910 0.04800
C 	C 	0.11350 0.96090 0.23000 0.06400
H 	H 	0.12700 0.02080 0.25100 -0.00000
C 	C 	0.03630 0.91500 0.18590 -0.14500
H 	H 	0.99570 0.94080 0.17520 0.05500
C 	C 	0.01920 0.83090 0.15770 -0.02300
H 	H 	0.96440 0.79640 0.12640 0.44600
C 	C 	0.07640 0.79120 0.17120 0.01800
H 	H 	0.06060 0.73090 0.14970 0.00400
C 	C 	0.37750 0.64860 0.85827 0.03200
H 	H 	0.41560 0.63670 0.82387 0.01400
C 	C 	0.40530 0.74810 0.87527 -0.06600
C 	C 	0.47940 0.82280 0.83297 -0.02000
C 	C 	0.51290 0.91640 0.85467 0.01900
H 	H 	0.56250 0.96770 0.82677 0.02300
N 	N 	0.47540 0.93540 0.91568 -0.20000
H 	H 	0.49990 0.99590 0.92907 0.07200
C 	C 	0.40360 0.86870 0.95727 0.10700
C 	C 	0.36600 0.77180 0.93667 0.09700
C 	C 	0.37070 0.89840 0.02527 -0.42600
H 	H 	0.40760 0.96870 0.03017 0.11100
H 	H 	0.38080 0.86890 0.06997 0.13200
H 	H 	0.30210 0.87730 0.02037 0.14300
C 	C 	0.51940 0.80280 0.76317 0.06200
H 	H 	0.56770 0.86420 0.73987 0.02300
H 	H 	0.55160 0.76580 0.77637 0.00800
C 	C 	0.22190 0.41950 0.90397 0.14900
C 	C 	0.23330 0.29170 0.83807 0.03500
H 	H 	0.27320 0.33740 0.80137 0.00500
C 	C 	0.14010 0.25430 0.95197 0.03700
H 	H 	0.11360 0.27350 0.99157 0.02400
C 	C 	0.21310 0.19730 0.83347 -0.26600
H 	H 	0.23520 0.17670 0.79177 -0.29900
C 	C 	0.16030 0.13280 0.89017 0.18200
H 	H 	0.14920 0.06890 0.88797 -0.04500
C 	C 	0.12370 0.15930 0.94957 -0.14900
H 	H 	0.08810 0.11450 0.98817 0.05800
C 	C 	0.19500 0.31940 0.89647 0.06900
N 	N 	0.28960 0.48620 0.86850 -0.13300
N 	N 	0.30330 0.57610 0.88797 -0.16900
O 	O 	0.15880 0.44010 0.94703 -0.38600
O 	O 	0.29750 0.70690 0.98051 -0.40000
O 	O 	0.44234 0.74850 0.71072 -0.38700
H 	H 	0.39280 0.76330 0.70757 0.17800
Mo	Mo	0.19492 0.57557 0.96686 1.06600
C 	C 	0.20170 0.42120 0.89897 0.02000
C 	C 	0.16020 0.31750 0.88307 -0.12600
C 	C 	0.07320 0.24800 0.91357 -0.06200
H 	H 	0.03760 0.26600 0.94577 0.04800
C 	C 	0.03910 0.15260 0.89667 0.06300
H 	H 	0.97920 0.10620 0.91767 0.00200
C 	C 	0.08500 0.12130 0.85257 -0.14800
H 	H 	0.05920 0.05490 0.84187 0.05600
C 	C 	0.16910 0.18830 0.82437 -0.02200
H 	H 	0.20360 0.16800 0.79307 0.44500
C 	C 	0.20880 0.28520 0.83787 0.01800
H 	H 	0.26910 0.32970 0.81637 0.00400
C 	C 	0.35140 0.72890 0.52493 0.03200
H 	H 	0.36330 0.77890 0.49053 0.01400
C 	C 	0.25190 0.65720 0.54193 -0.06600
C 	C 	0.17720 0.65660 0.49963 -0.02000
C 	C 	0.08360 0.59650 0.52133 0.01900
H 	H 	0.03230 0.59480 0.49343 0.02300
N 	N 	0.06460 0.54000 0.58234 -0.20000
H 	H 	0.00410 0.50400 0.59573 0.07300
C 	C 	0.13130 0.53490 0.62393 0.10800
C 	C 	0.22820 0.59420 0.60333 0.09700
C 	C 	0.10160 0.47230 0.69193 -0.42800
H 	H 	0.03130 0.43890 0.69683 0.11100
H 	H 	0.13110 0.51190 0.73663 0.13200
H 	H 	0.12270 0.42480 0.68703 0.14300
C 	C 	0.19720 0.71660 0.42983 0.06200
H 	H 	0.13580 0.70350 0.40653 0.02300
H 	H 	0.23420 0.78580 0.44303 0.00800
C 	C 	0.58050 0.80240 0.57063 0.14900
C 	C 	0.70830 0.94160 0.50473 0.03500
H 	H 	0.66260 0.93580 0.46803 0.00500
C 	C 	0.74570 0.88580 0.61863 0.03800
H 	H 	0.72650 0.84010 0.65823 0.02300
C 	C 	0.80270 0.01580 0.50013 -0.26800
H 	H 	0.82330 0.05850 0.45843 -0.30300
C 	C 	0.86720 0.02750 0.55683 0.18600
H 	H 	0.93110 0.08030 0.55463 -0.04700
C 	C 	0.84070 0.96440 0.61623 -0.15200
H 	H 	0.88550 0.97360 0.65483 0.06000
C 	C 	0.68060 0.87560 0.56313 0.07100
N 	N 	0.51380 0.80340 0.53516 -0.13300
N 	N 	0.42390 0.72720 0.55463 -0.16900
O 	O 	0.55990 0.71870 0.61369 -0.38500
O 	O 	0.29310 0.59060 0.64717 -0.39900
O 	O 	0.25150 0.69384 0.37738 -0.38700
H 	H 	0.23670 0.62950 0.37423 0.17800
Mo	Mo	0.42443 0.61935 0.63352 1.06600
C 	C 	0.57880 0.78050 0.56563 0.02000
C 	C 	0.68250 0.84270 0.54973 -0.12900
C 	C 	0.75200 0.82520 0.58023 -0.06300
H 	H 	0.73400 0.77160 0.61243 0.04900
C 	C 	0.84740 0.88650 0.56333 0.06700
H 	H 	0.89380 0.87300 0.58433 -0.00100
C 	C 	0.87870 0.96370 0.51923 -0.15000
H 	H 	0.94510 0.00430 0.50853 0.05700
C 	C 	0.81170 0.98080 0.49103 -0.02300
H 	H 	0.83200 0.03560 0.45973 0.45100
C 	C 	0.71480 0.92360 0.50453 0.01900
H 	H 	0.67030 0.93940 0.48303 0.00400
C 	C 	0.62250 0.27110 0.80840 0.03200
H 	H 	0.58440 0.22110 0.84280 0.01400
C 	C 	0.59470 0.34280 0.79140 -0.06600
C 	C 	0.52060 0.34340 0.83370 -0.02000
C 	C 	0.48710 0.40350 0.81200 0.01900
H 	H 	0.43750 0.40520 0.83990 0.02300
N 	N 	0.52460 0.46000 0.75099 -0.20000
H 	H 	0.50010 0.49600 0.73760 0.07300
C 	C 	0.59640 0.46510 0.70940 0.10900
C 	C 	0.63400 0.40580 0.73000 0.09700
C 	C 	0.62930 0.52770 0.64140 -0.42800
H 	H 	0.59240 0.56110 0.63650 0.11100
H 	H 	0.61920 0.48810 0.59670 0.13300
H 	H 	0.69790 0.57520 0.64630 0.14400
C 	C 	0.48060 0.28340 0.90350 0.06200
H 	H 	0.43230 0.29650 0.92680 0.02300
H 	H 	0.44840 0.21420 0.89030 0.00800
C 	C 	0.77810 0.19760 0.76270 0.14900
C 	C 	0.76670 0.05840 0.82860 0.03500
H 	H 	0.72680 0.06420 0.86530 0.00500
C 	C 	0.85990 0.11420 0.71470 0.03600
H 	H 	0.88640 0.15990 0.67510 0.02400
C 	C 	0.78690 0.98420 0.83320 -0.26400
H 	H 	0.76480 0.94150 0.87490 -0.30000
C 	C 	0.83970 0.97250 0.77650 0.17900
H 	H 	0.85080 0.91970 0.77870 -0.04400
C 	C 	0.87630 0.03560 0.71710 -0.14600
H 	H 	0.91190 0.02640 0.67850 0.05700
C 	C 	0.80500 0.12440 0.77020 0.06900
N 	N 	0.71040 0.19660 0.79817 -0.13300
N 	N 	0.69670 0.27280 0.77870 -0.16900
O 	O 	0.84120 0.28130 0.71964 -0.38500
O 	O 	0.70250 0.40940 0.68616 -0.39900
O 	O 	0.55766 0.30616 0.95595 -0.38600
H 	H 	0.60720 0.37050 0.95910 0.17800
Mo	Mo	0.80508 0.38065 0.69981 1.06600
C 	C 	0.79830 0.21950 0.76770 0.02000
C 	C 	0.83980 0.15730 0.78360 -0.12600
C 	C 	0.92680 0.17480 0.75310 -0.06200
H 	H 	0.96240 0.22840 0.72090 0.04800
C 	C 	0.96090 0.11350 0.77000 0.06400
H 	H 	0.02080 0.12700 0.74900 -0.00000
C 	C 	0.91500 0.03630 0.81410 -0.14500
H 	H 	0.94080 0.99570 0.82480 0.05500
C 	C 	0.83090 0.01920 0.84230 -0.02300
H 	H 	0.79640 0.96440 0.87360 0.44600
C 	C 	0.79120 0.07640 0.82880 0.01800
H 	H 	0.73090 0.06060 0.85030 0.00400
C 	C 	0.64860 0.37750 0.14173 0.03200
H 	H 	0.63670 0.41560 0.17613 0.01400
C 	C 	0.74810 0.40530 0.12473 -0.06600
C 	C 	0.82280 0.47940 0.16703 -0.02000
C 	C 	0.91640 0.51290 0.14533 0.01900
H 	H 	0.96770 0.56250 0.17323 0.02300
N 	N 	0.93540 0.47540 0.08432 -0.20000
H 	H 	0.99590 0.49990 0.07093 0.07200
C 	C 	0.86870 0.40360 0.04273 0.10700
C 	C 	0.77180 0.36600 0.06333 0.09700
C 	C 	0.89840 0.37070 0.97473 -0.42600
H 	H 	0.96870 0.40760 0.96983 0.11100
H 	H 	0.86890 0.38080 0.93003 0.13200
H 	H 	0.87730 0.30210 0.97963 0.14300
C 	C 	0.80280 0.51940 0.23683 0.06200
H 	H 	0.86420 0.56770 0.26013 0.02300
H 	H 	0.76580 0.55160 0.22363 0.00800
C 	C 	0.41950 0.22190 0.09603 0.14900
C 	C 	0.29170 0.23330 0.16193 0.03500
H 	H 	0.33740 0.27320 0.19863 0.00500
C 	C 	0.25430 0.14010 0.04803 0.03700
H 	H 	0.27350 0.11360 0.00843 0.02400
C 	C 	0.19730 0.21310 0.16653 -0.26600
H 	H 	0.17670 0.23520 0.20823 -0.29900
C 	C 	0.13280 0.16030 0.10983 0.18200
H 	H 	0.06890 0.14920 0.11203 -0.04500
C 	C 	0.15930 0.12370 0.05043 -0.14900
H 	H 	0.11450 0.08810 0.01183 0.05800
C 	C 	0.31940 0.19500 0.10353 0.06900
N 	N 	0.48620 0.28960 0.13150 -0.13300
N 	N 	0.57610 0.30330 0.11203 -0.16900
O 	O 	0.44010 0.15880 0.05297 -0.38600
O 	O 	0.70690 0.29750 0.01949 -0.40000
O 	O 	0.74850 0.44234 0.28928 -0.38700
H 	H 	0.76330 0.39280 0.29243 0.17800
Mo	Mo	0.57557 0.19492 0.03314 1.06600
C 	C 	0.42120 0.20170 0.10103 0.02000
C 	C 	0.31750 0.16020 0.11693 -0.12600
C 	C 	0.24800 0.07320 0.08643 -0.06200
H 	H 	0.26600 0.03760 0.05423 0.04800
C 	C 	0.15260 0.03910 0.10333 0.06300
H 	H 	0.10620 0.97920 0.08233 0.00200
C 	C 	0.12130 0.08500 0.14743 -0.14800
H 	H 	0.05490 0.05920 0.15813 0.05600
C 	C 	0.18830 0.16910 0.17563 -0.02200
H 	H 	0.16800 0.20360 0.20693 0.44500
C 	C 	0.28520 0.20880 0.16213 0.01800
H 	H 	0.32970 0.26910 0.18363 0.00400
C 	C 	0.72890 0.35140 0.47507 0.03200
H 	H 	0.77890 0.36330 0.50947 0.01400
C 	C 	0.65720 0.25190 0.45807 -0.06600
C 	C 	0.65660 0.17720 0.50037 -0.02000
C 	C 	0.59650 0.08360 0.47867 0.01900
H 	H 	0.59480 0.03230 0.50657 0.02300
N 	N 	0.54000 0.06460 0.41766 -0.20000
H 	H 	0.50400 0.00410 0.40427 0.07300
C 	C 	0.53490 0.13130 0.37607 0.10800
C 	C 	0.59420 0.22820 0.39667 0.09700
C 	C 	0.47230 0.10160 0.30807 -0.42800
H 	H 	0.43890 0.03130 0.30317 0.11100
H 	H 	0.51190 0.13110 0.26337 0.13200
H 	H 	0.42480 0.12270 0.31297 0.14300
C 	C 	0.71660 0.19720 0.57017 0.06200
H 	H 	0.70350 0.13580 0.59347 0.02300
H 	H 	0.78580 0.23420 0.55697 0.00800
C 	C 	0.80240 0.58050 0.42937 0.14900
C 	C 	0.94160 0.70830 0.49527 0.03500
H 	H 	0.93580 0.66260 0.53197 0.00500
C 	C 	0.88580 0.74570 0.38137 0.03800
H 	H 	0.84010 0.72650 0.34177 0.02300
C 	C 	0.01580 0.80270 0.49987 -0.26800
H 	H 	0.05850 0.82330 0.54157 -0.30300
C 	C 	0.02750 0.86720 0.44317 0.18600
H 	H 	0.08030 0.93110 0.44537 -0.04700
C 	C 	0.96440 0.84070 0.38377 -0.15200
H 	H 	0.97360 0.88550 0.34517 0.06000
C 	C 	0.87560 0.68060 0.43687 0.07100
N 	N 	0.80340 0.51380 0.46484 -0.13300
N 	N 	0.72720 0.42390 0.44537 -0.16900
O 	O 	0.71870 0.55990 0.38631 -0.38500
O 	O 	0.59060 0.29310 0.35283 -0.39900
O 	O 	0.69384 0.25150 0.62262 -0.38700
H 	H 	0.62950 0.23670 0.62577 0.17800
Mo	Mo	0.61935 0.42443 0.36648 1.06600
C 	C 	0.78050 0.57880 0.43437 0.02000
C 	C 	0.84270 0.68250 0.45027 -0.12900
C 	C 	0.82520 0.75200 0.41977 -0.06300
H 	H 	0.77160 0.73400 0.38757 0.04900
C 	C 	0.88650 0.84740 0.43667 0.06700
H 	H 	0.87300 0.89380 0.41567 -0.00100
C 	C 	0.96370 0.87870 0.48077 -0.15000
H 	H 	0.00430 0.94510 0.49147 0.05700
C 	C 	0.98080 0.81170 0.50897 -0.02300
H 	H 	0.03560 0.83200 0.54027 0.45100
C 	C 	0.92360 0.71480 0.49547 0.01900
H 	H 	0.93940 0.67030 0.51697 0.00400
