data_crystal

_cell_length_a 14.46810
_cell_length_b 17.81620
_cell_length_c 6.80470
_cell_angle_alpha 90.00000
_cell_angle_beta  90.86800
_cell_angle_gamma 90.00000

_symmetry_space_group_name_	'P 1'
_symmetry_space_group_name_H-M	'P 1'

loop_
_symmetry_equiv_pos_as_xyz
  x,y,z

loop_
_atom_site_label
_atom_site_type_symbol
_atom_site_fract_x
_atom_site_fract_y
_atom_site_fract_z
_atom_site_charge
C 	C 	0.25329 0.69968 0.31420 0.07900
C 	C 	0.18640 0.64628 0.26110 -0.07300
H 	H 	0.20020 0.59540 0.26930 0.04800
C 	C 	0.09904 0.66949 0.19580 -0.06000
C 	C 	0.07826 0.74507 0.18020 0.00400
H 	H 	0.02040 0.76030 0.13440 0.02600
C 	C 	0.14436 0.79799 0.23340 -0.08100
C 	C 	0.23090 0.77512 0.30110 -0.05100
H 	H 	0.27450 0.81100 0.33810 0.07000
C 	C 	0.02712 0.61299 0.14440 0.19400
C 	C 	0.12040 0.87984 0.22450 0.37200
C 	C 	0.36040 0.60310 0.43850 0.33900
H 	H 	0.36250 0.57150 0.32240 -0.07500
H 	H 	0.31110 0.58470 0.52080 -0.05700
C 	C 	0.45090 0.59740 0.54910 -0.34200
C 	C 	0.53320 0.60580 0.45470 0.51600
H 	H 	0.53280 0.61790 0.32170 -0.12600
C 	C 	0.61670 0.59690 0.55340 0.11100
H 	H 	0.67170 0.60000 0.48470 -0.07200
C 	C 	0.61900 0.58330 0.75200 -0.11000
C 	C 	0.53650 0.57760 0.84730 -0.24800
H 	H 	0.53660 0.56930 0.98230 0.12700
C 	C 	0.45310 0.58400 0.74650 0.20500
H 	H 	0.39810 0.57910 0.81400 -0.03700
C 	C 	0.70870 0.57047 0.86000 0.36200
Cd	Cd	0.13579 0.03195 0.44281 1.18700
N 	N 	0.34058 0.67842 0.38080 -0.05300
H 	H 	0.38380 0.71150 0.38740 -0.29500
O 	O 	0.17337 0.92524 0.31270 -0.45000
O 	O 	0.04744 0.89685 0.13340 -0.50700
O 	O 	0.95233 0.63451 0.06690 -0.32700
O 	O 	0.04087 0.54314 0.18100 -0.57900
O 	O 	0.77977 0.55182 0.76730 -0.40400
O 	O 	0.71111 0.57481 0.04270 -0.42400
C 	C 	0.41800 0.72400 0.43300 0.64400
H 	H 	0.39820 0.76290 0.52230 -0.15300
H 	H 	0.44080 0.74810 0.31530 -0.16100
C 	C 	0.49290 0.68030 0.52600 -0.02500
C 	C 	0.56500 0.64800 0.42100 -0.49700
H 	H 	0.56490 0.65140 0.28480 0.23900
C 	C 	0.63600 0.61100 0.52100 -0.10800
H 	H 	0.68360 0.58950 0.45070 0.13000
C 	C 	0.63510 0.60600 0.72400 0.00400
C 	C 	0.56340 0.63830 0.82900 0.18100
H 	H 	0.56300 0.63500 0.96520 -0.01200
C 	C 	0.49230 0.67540 0.72900 -0.14700
H 	H 	0.44430 0.69690 0.79930 0.11300
H 	H 	0.34310 0.63490 0.43590 -0.12100
C 	C 	0.74671 0.19968 0.18580 0.02800
C 	C 	0.81360 0.14628 0.23890 -0.00700
H 	H 	0.79980 0.09540 0.23070 0.01300
C 	C 	0.90096 0.16949 0.30420 -0.14600
C 	C 	0.92174 0.24507 0.31980 0.06400
H 	H 	0.97960 0.26030 0.36560 0.05900
C 	C 	0.85564 0.29799 0.26660 -0.10600
C 	C 	0.76910 0.27512 0.19890 -0.01300
H 	H 	0.72550 0.31100 0.16190 0.05100
C 	C 	0.97288 0.11299 0.35560 0.45000
C 	C 	0.87960 0.37984 0.27550 0.38200
C 	C 	0.63960 0.10310 0.06150 0.45300
H 	H 	0.63750 0.07150 0.17760 -0.12700
H 	H 	0.68890 0.08470 0.97920 -0.06700
C 	C 	0.54910 0.09740 0.95090 -0.25000
C 	C 	0.46680 0.10580 0.04530 0.29100
H 	H 	0.46720 0.11790 0.17830 -0.05300
C 	C 	0.38330 0.09690 0.94660 0.11400
H 	H 	0.32830 0.10000 0.01530 -0.02100
C 	C 	0.38100 0.08330 0.74800 -0.11800
C 	C 	0.46350 0.07760 0.65270 -0.19400
H 	H 	0.46340 0.06930 0.51770 0.08600
C 	C 	0.54690 0.08400 0.75350 0.12700
H 	H 	0.60190 0.07910 0.68600 -0.02400
C 	C 	0.29130 0.07047 0.64000 0.33500
Cd	Cd	0.86421 0.53195 0.05719 1.21700
N 	N 	0.65942 0.17842 0.11920 0.02000
H 	H 	0.61620 0.21150 0.11260 -0.37900
O 	O 	0.82663 0.42524 0.18730 -0.47000
O 	O 	0.95256 0.39685 0.36660 -0.45600
O 	O 	0.04767 0.13451 0.43310 -0.56100
O 	O 	0.95913 0.04314 0.31900 -0.58000
O 	O 	0.22023 0.05182 0.73270 -0.44200
O 	O 	0.28889 0.07481 0.45730 -0.42000
C 	C 	0.58200 0.22400 0.06700 0.72500
H 	H 	0.60180 0.26290 0.97770 -0.15300
H 	H 	0.55920 0.24810 0.18470 -0.18100
C 	C 	0.50710 0.18030 0.97400 -0.02800
C 	C 	0.43500 0.14800 0.07900 -0.39200
H 	H 	0.43510 0.15140 0.21520 0.17300
C 	C 	0.36400 0.11100 0.97900 -0.04200
H 	H 	0.31640 0.08950 0.04930 0.01800
C 	C 	0.36490 0.10600 0.77600 -0.01000
C 	C 	0.43660 0.13830 0.67100 0.15300
H 	H 	0.43700 0.13500 0.53480 -0.01400
C 	C 	0.50770 0.17540 0.77100 -0.12400
H 	H 	0.55570 0.19690 0.70070 0.10500
H 	H 	0.65690 0.13490 0.06410 -0.23500
C 	C 	0.74671 0.30032 0.68580 0.06700
C 	C 	0.81360 0.35372 0.73890 -0.02900
H 	H 	0.79980 0.40460 0.73070 0.03800
C 	C 	0.90096 0.33051 0.80420 -0.11400
C 	C 	0.92174 0.25493 0.81980 0.05100
H 	H 	0.97960 0.23970 0.86560 0.07200
C 	C 	0.85564 0.20201 0.76660 -0.08200
C 	C 	0.76910 0.22488 0.69890 -0.03000
H 	H 	0.72550 0.18900 0.66190 0.06300
C 	C 	0.97288 0.38701 0.85560 0.43800
C 	C 	0.87960 0.12016 0.77550 0.38300
C 	C 	0.63960 0.39690 0.56150 0.33300
H 	H 	0.63750 0.42850 0.67760 -0.06600
H 	H 	0.68890 0.41530 0.47920 -0.05300
C 	C 	0.54910 0.40260 0.45090 -0.34800
C 	C 	0.46680 0.39420 0.54530 0.54400
H 	H 	0.46720 0.38210 0.67830 -0.12700
C 	C 	0.38330 0.40310 0.44660 0.12200
H 	H 	0.32830 0.40000 0.51530 -0.08300
C 	C 	0.38100 0.41670 0.24800 -0.11300
C 	C 	0.46350 0.42240 0.15270 -0.23400
H 	H 	0.46340 0.43070 0.01770 0.10200
C 	C 	0.54690 0.41600 0.25350 0.19900
H 	H 	0.60190 0.42090 0.18600 -0.04400
C 	C 	0.29130 0.42953 0.14000 0.29900
Cd	Cd	0.86421 0.96805 0.55719 1.23600
N 	N 	0.65942 0.32158 0.61920 -0.04600
H 	H 	0.61620 0.28850 0.61260 -0.30000
O 	O 	0.82663 0.07476 0.68730 -0.47800
O 	O 	0.95256 0.10315 0.86660 -0.44700
O 	O 	0.04767 0.36549 0.93310 -0.53700
O 	O 	0.95913 0.45686 0.81900 -0.54200
O 	O 	0.22023 0.44818 0.23270 -0.42700
O 	O 	0.28889 0.42519 0.95730 -0.37600
C 	C 	0.58200 0.27600 0.56700 0.65100
H 	H 	0.60180 0.23710 0.47770 -0.15300
H 	H 	0.55920 0.25190 0.68470 -0.15900
C 	C 	0.50710 0.31970 0.47400 -0.01800
C 	C 	0.43500 0.35200 0.57900 -0.53700
H 	H 	0.43510 0.34860 0.71520 0.25800
C 	C 	0.36400 0.38900 0.47900 -0.11700
H 	H 	0.31640 0.41050 0.54930 0.13500
C 	C 	0.36490 0.39400 0.27600 0.00600
C 	C 	0.43660 0.36170 0.17100 0.16600
H 	H 	0.43700 0.36500 0.03480 -0.03000
C 	C 	0.50770 0.32460 0.27100 -0.15200
H 	H 	0.55570 0.30310 0.20070 0.11400
H 	H 	0.65690 0.36510 0.56410 -0.11900
C 	C 	0.25329 0.80032 0.81420 0.10800
C 	C 	0.18640 0.85372 0.76110 -0.09100
H 	H 	0.20020 0.90460 0.76930 0.07000
C 	C 	0.09904 0.83051 0.69580 -0.03500
C 	C 	0.07826 0.75493 0.68020 -0.00500
H 	H 	0.02040 0.73970 0.63440 0.03500
C 	C 	0.14436 0.70201 0.73340 -0.06500
C 	C 	0.23090 0.72488 0.80110 -0.06200
H 	H 	0.27450 0.68900 0.83810 0.07800
C 	C 	0.02712 0.88701 0.64440 0.19100
C 	C 	0.12040 0.62016 0.72450 0.37800
C 	C 	0.36040 0.89690 0.93850 0.25300
H 	H 	0.36250 0.92850 0.82240 -0.02500
H 	H 	0.31110 0.91530 0.02080 -0.04200
C 	C 	0.45090 0.90260 0.04910 -0.41600
C 	C 	0.53320 0.89420 0.95470 0.71900
H 	H 	0.53280 0.88210 0.82170 -0.18400
C 	C 	0.61670 0.90310 0.05340 0.11900
H 	H 	0.67170 0.90000 0.98470 -0.11700
C 	C 	0.61900 0.91670 0.25200 -0.10500
C 	C 	0.53650 0.92240 0.34730 -0.27200
H 	H 	0.53660 0.93070 0.48230 0.13700
C 	C 	0.45310 0.91600 0.24650 0.26100
H 	H 	0.39810 0.92090 0.31400 -0.04900
C 	C 	0.70870 0.92953 0.36000 0.32900
Cd	Cd	0.13579 0.46805 0.94281 1.21000
N 	N 	0.34058 0.82158 0.88080 -0.10100
H 	H 	0.38380 0.78850 0.88740 -0.23500
O 	O 	0.17337 0.57476 0.81270 -0.46700
O 	O 	0.04744 0.60315 0.63340 -0.51800
O 	O 	0.95233 0.86549 0.56690 -0.31200
O 	O 	0.04087 0.95686 0.68100 -0.52900
O 	O 	0.77977 0.94818 0.26730 -0.38800
O 	O 	0.71111 0.92519 0.54270 -0.38300
C 	C 	0.41800 0.77600 0.93300 0.58700
H 	H 	0.39820 0.73710 0.02230 -0.15300
H 	H 	0.44080 0.75190 0.81530 -0.14400
C 	C 	0.49290 0.81970 0.02600 -0.01700
C 	C 	0.56500 0.85200 0.92100 -0.61800
H 	H 	0.56490 0.84860 0.78480 0.30800
C 	C 	0.63600 0.88900 0.02100 -0.16500
H 	H 	0.68360 0.91050 0.95070 0.21800
C 	C 	0.63510 0.89400 0.22400 0.01900
C 	C 	0.56340 0.86170 0.32900 0.18500
H 	H 	0.56300 0.86500 0.46520 -0.02300
C 	C 	0.49230 0.82460 0.22900 -0.16700
H 	H 	0.44430 0.80310 0.29930 0.12000
H 	H 	0.34310 0.86510 0.93590 -0.03700
Cd	Cd	-0.00000 0.00000 -0.00000 1.12200
Cd	Cd	0.00000 0.50000 0.50000 1.15500
