data_crystal

_cell_length_a 10.23540
_cell_length_b 15.45500
_cell_length_c 17.53600
_cell_angle_alpha 90.00000
_cell_angle_beta  98.71800
_cell_angle_gamma 90.00000

_symmetry_space_group_name_	'P 1'
_symmetry_space_group_name_H-M	'P 1'

loop_
_symmetry_equiv_pos_as_xyz
  x,y,z

loop_
_atom_site_label
_atom_site_type_symbol
_atom_site_fract_x
_atom_site_fract_y
_atom_site_fract_z
_atom_site_charge
Ba	Ba	0.18060 0.03334 0.45055 2.07800
V 	V 	0.19515 0.40097 0.34085 1.79000
O 	O 	0.00362 0.37283 0.34102 -0.70200
O 	O 	0.82274 0.40520 0.39242 -0.49700
O 	O 	0.12968 0.50502 0.41216 -0.50200
O 	O 	0.93914 0.56433 0.43419 -0.32100
O 	O 	0.02063 0.07367 0.16461 -0.62900
O 	O 	0.13332 0.96225 0.12949 -0.61900
O 	O 	0.22350 0.10350 0.28506 -0.42000
O 	O 	0.33304 0.99440 0.23928 -0.46300
O 	O 	0.23701 0.34349 0.44436 -0.65900
O 	O 	0.15897 0.21016 0.41460 -0.52300
O 	O 	0.22843 0.32087 0.28877 -0.69800
O 	O 	0.06110 0.88167 0.49920 -1.02100
H 	H 	0.04500 0.84500 0.46800 0.35700
H 	H 	0.10500 0.84800 0.53100 0.30900
C 	C 	0.93480 0.42175 0.37877 0.47300
C 	C 	0.00600 0.50589 0.41108 0.07100
C 	C 	0.11910 0.02742 0.17277 0.27800
C 	C 	0.23500 0.04527 0.23893 0.19000
C 	C 	0.21890 0.26379 0.45881 0.30100
Ba	Ba	0.68060 0.53334 0.45055 2.19600
V 	V 	0.69515 0.90097 0.34085 1.79000
O 	O 	0.50362 0.87283 0.34102 -0.61800
O 	O 	0.32274 0.90520 0.39242 -0.46300
O 	O 	0.62968 0.00502 0.41216 -0.54300
O 	O 	0.43914 0.06433 0.43419 -0.41400
O 	O 	0.52063 0.57367 0.16461 -0.60000
O 	O 	0.63332 0.46225 0.12949 -0.60800
O 	O 	0.72350 0.60350 0.28506 -0.42300
O 	O 	0.83304 0.49440 0.23928 -0.45200
O 	O 	0.73701 0.84349 0.44436 -0.66200
O 	O 	0.65897 0.71016 0.41460 -0.52500
O 	O 	0.72843 0.82087 0.28877 -0.69700
O 	O 	0.56110 0.38167 0.49920 -1.00500
H 	H 	0.54500 0.34500 0.46800 0.37800
H 	H 	0.60500 0.34800 0.53100 0.31600
C 	C 	0.43480 0.92175 0.37877 0.29700
C 	C 	0.50600 0.00589 0.41108 0.25700
C 	C 	0.61910 0.52742 0.17277 0.28600
C 	C 	0.73500 0.54527 0.23893 0.20100
C 	C 	0.71890 0.76379 0.45881 0.31300
Ba	Ba	0.81940 0.03334 0.04945 2.25100
V 	V 	0.80485 0.40097 0.15915 1.79100
O 	O 	0.99638 0.37283 0.15898 -0.49600
O 	O 	0.17726 0.40520 0.10758 -0.42200
O 	O 	0.87032 0.50502 0.08784 -0.57700
O 	O 	0.06086 0.56433 0.06581 -0.52200
O 	O 	0.97937 0.07367 0.33539 -0.53000
O 	O 	0.86668 0.96225 0.37051 -0.58300
O 	O 	0.77650 0.10350 0.21494 -0.40600
O 	O 	0.66696 0.99440 0.26072 -0.46500
O 	O 	0.76299 0.34349 0.05564 -0.65600
O 	O 	0.84103 0.21016 0.08540 -0.49400
O 	O 	0.77157 0.32087 0.21123 -0.68100
O 	O 	0.93890 0.88167 0.00080 -0.97200
H 	H 	0.95500 0.84500 0.03200 0.39100
H 	H 	0.89500 0.84800 0.96900 0.31200
C 	C 	0.06520 0.42175 0.12123 0.10700
C 	C 	0.99400 0.50589 0.08892 0.44800
C 	C 	0.88090 0.02742 0.32723 0.27300
C 	C 	0.76500 0.04527 0.26107 0.20500
C 	C 	0.78110 0.26379 0.04119 0.29400
Ba	Ba	0.31940 0.53334 0.04945 2.16000
V 	V 	0.30485 0.90097 0.15915 1.79100
O 	O 	0.49638 0.87283 0.15898 -0.61600
O 	O 	0.67726 0.90520 0.10758 -0.46000
O 	O 	0.37032 0.00502 0.08784 -0.53500
O 	O 	0.56086 0.06433 0.06581 -0.42700
O 	O 	0.47937 0.57367 0.33539 -0.60300
O 	O 	0.36668 0.46225 0.37051 -0.60900
O 	O 	0.27650 0.60350 0.21494 -0.43600
O 	O 	0.16696 0.49440 0.26072 -0.48600
O 	O 	0.26299 0.84349 0.05564 -0.65500
O 	O 	0.34103 0.71016 0.08540 -0.52100
O 	O 	0.27157 0.82087 0.21123 -0.71700
O 	O 	0.43890 0.38167 0.00080 -1.01200
H 	H 	0.45500 0.34500 0.03200 0.37400
H 	H 	0.39500 0.34800 0.96900 0.31300
C 	C 	0.56520 0.92175 0.12123 0.30300
C 	C 	0.49400 0.00589 0.08892 0.25200
C 	C 	0.38090 0.52742 0.32723 0.28000
C 	C 	0.26500 0.54527 0.26107 0.20200
C 	C 	0.28110 0.76379 0.04119 0.30400
Ba	Ba	0.81940 0.96666 0.54945 2.28200
V 	V 	0.80485 0.59903 0.65915 1.79100
O 	O 	0.99638 0.62717 0.65898 -0.49500
O 	O 	0.17726 0.59480 0.60758 -0.42100
O 	O 	0.87032 0.49498 0.58784 -0.57600
O 	O 	0.06086 0.43567 0.56581 -0.52300
O 	O 	0.97937 0.92633 0.83539 -0.52700
O 	O 	0.86668 0.03775 0.87051 -0.57700
O 	O 	0.77650 0.89650 0.71494 -0.40600
O 	O 	0.66696 0.00560 0.76072 -0.46500
O 	O 	0.76299 0.65651 0.55564 -0.65600
O 	O 	0.84103 0.78984 0.58540 -0.49500
O 	O 	0.77157 0.67913 0.71123 -0.68100
O 	O 	0.93890 0.11833 0.50080 -0.99000
H 	H 	0.95500 0.15500 0.53200 0.39400
H 	H 	0.89500 0.15200 0.46900 0.32100
C 	C 	0.06520 0.57825 0.62123 0.10500
C 	C 	0.99400 0.49411 0.58892 0.45100
C 	C 	0.88090 0.97258 0.82723 0.26700
C 	C 	0.76500 0.95473 0.76107 0.20600
C 	C 	0.78110 0.73621 0.54119 0.30100
Ba	Ba	0.31940 0.46666 0.54945 2.16000
V 	V 	0.30485 0.09903 0.65915 1.79000
O 	O 	0.49638 0.12717 0.65898 -0.61600
O 	O 	0.67726 0.09480 0.60758 -0.46400
O 	O 	0.37032 0.99498 0.58784 -0.53400
O 	O 	0.56086 0.93567 0.56581 -0.42800
O 	O 	0.47937 0.42633 0.83539 -0.60300
O 	O 	0.36668 0.53775 0.87051 -0.60800
O 	O 	0.27650 0.39650 0.71494 -0.43600
O 	O 	0.16696 0.50560 0.76072 -0.48600
O 	O 	0.26299 0.15651 0.55564 -0.65900
O 	O 	0.34103 0.28984 0.58540 -0.52100
O 	O 	0.27157 0.17913 0.71123 -0.71700
O 	O 	0.43890 0.61833 0.50080 -1.00300
H 	H 	0.45500 0.65500 0.53200 0.37300
H 	H 	0.39500 0.65200 0.46900 0.30700
C 	C 	0.56520 0.07825 0.62123 0.29700
C 	C 	0.49400 0.99411 0.58892 0.25800
C 	C 	0.38090 0.47258 0.82723 0.28100
C 	C 	0.26500 0.45473 0.76107 0.20200
C 	C 	0.28110 0.23621 0.54119 0.30000
Ba	Ba	0.18060 0.96666 0.95055 2.05600
V 	V 	0.19515 0.59903 0.84085 1.79000
O 	O 	0.00362 0.62717 0.84102 -0.70200
O 	O 	0.82274 0.59480 0.89242 -0.49700
O 	O 	0.12968 0.49498 0.91216 -0.50100
O 	O 	0.93914 0.43567 0.93419 -0.32100
O 	O 	0.02063 0.92633 0.66461 -0.63200
O 	O 	0.13332 0.03775 0.62949 -0.62400
O 	O 	0.22350 0.89650 0.78506 -0.41900
O 	O 	0.33304 0.00560 0.73928 -0.46200
O 	O 	0.23701 0.65651 0.94436 -0.65800
O 	O 	0.15897 0.78984 0.91460 -0.52100
O 	O 	0.22843 0.67913 0.78877 -0.69800
O 	O 	0.06110 0.11833 0.99920 -0.99500
H 	H 	0.04500 0.15500 0.96800 0.35200
H 	H 	0.10500 0.15200 0.03100 0.29500
C 	C 	0.93480 0.57825 0.87877 0.47300
C 	C 	0.00600 0.49411 0.91108 0.07100
C 	C 	0.11910 0.97258 0.67277 0.28400
C 	C 	0.23500 0.95473 0.73893 0.18800
C 	C 	0.21890 0.73621 0.95881 0.29700
Ba	Ba	0.68060 0.46666 0.95055 2.20300
V 	V 	0.69515 0.09903 0.84085 1.79100
O 	O 	0.50362 0.12717 0.84102 -0.61900
O 	O 	0.32274 0.09480 0.89242 -0.45900
O 	O 	0.62968 0.99498 0.91216 -0.54200
O 	O 	0.43914 0.93567 0.93419 -0.41300
O 	O 	0.52063 0.42633 0.66461 -0.60000
O 	O 	0.63332 0.53775 0.62949 -0.60700
O 	O 	0.72350 0.39650 0.78506 -0.42300
O 	O 	0.83304 0.50560 0.73928 -0.45200
O 	O 	0.73701 0.15651 0.94436 -0.65700
O 	O 	0.65897 0.28984 0.91460 -0.52600
O 	O 	0.72843 0.17913 0.78877 -0.69700
O 	O 	0.56110 0.61833 0.99920 -1.00700
H 	H 	0.54500 0.65500 0.96800 0.37800
H 	H 	0.60500 0.65200 0.03100 0.31700
C 	C 	0.43480 0.07825 0.87877 0.30400
C 	C 	0.50600 0.99411 0.91108 0.25100
C 	C 	0.61910 0.47258 0.67277 0.28500
C 	C 	0.73500 0.45473 0.73893 0.20100
C 	C 	0.71890 0.23621 0.95881 0.31900
Ba	Ba	-0.00000 0.21819 0.25000 1.89700
Ba	Ba	0.50000 0.71819 0.25000 2.09900
Ba	Ba	0.00000 0.78181 0.75000 1.89500
Ba	Ba	0.50000 0.28181 0.75000 2.10000
