data_crystal

_cell_length_a 37.13300
_cell_length_b 11.52780
_cell_length_c 6.51550
_cell_angle_alpha 90.00000
_cell_angle_beta  109.26600
_cell_angle_gamma 90.00000

_symmetry_space_group_name_	'P 1'
_symmetry_space_group_name_H-M	'P 1'

loop_
_symmetry_equiv_pos_as_xyz
  x,y,z

loop_
_atom_site_label
_atom_site_type_symbol
_atom_site_fract_x
_atom_site_fract_y
_atom_site_fract_z
_atom_site_charge
Al	Al	0.22090 0.28370 0.57100 2.38100
O 	O 	0.19410 0.39480 0.35400 -0.68800
O 	O 	0.13590 0.45080 0.09100 -0.30700
O 	O 	0.22680 0.16980 0.81000 -0.59700
O 	O 	0.19590 0.02700 0.91900 -0.26700
O 	O 	0.03480 0.12470 0.12800 -0.67900
O 	O 	0.04230 0.09390 0.49500 -0.67400
O 	O 	0.22950 0.17840 0.38200 -1.03600
N 	N 	0.16660 0.24800 0.50200 -0.32300
C 	C 	0.15850 0.40100 0.25200 0.40000
C 	C 	0.14170 0.29600 0.32600 -0.07500
C 	C 	0.10280 0.25600 0.26500 0.08700
C 	C 	0.09280 0.18500 0.41000 -0.12100
C 	C 	0.12100 0.12800 0.58100 0.06700
C 	C 	0.15940 0.15800 0.62100 -0.09100
C 	C 	0.19500 0.11300 0.79800 0.29600
C 	C 	0.05270 0.13100 0.33600 0.42600
Al	Al	0.72090 0.78370 0.57100 2.38400
O 	O 	0.69410 0.89480 0.35400 -0.63800
O 	O 	0.63590 0.95080 0.09100 -0.23000
O 	O 	0.72680 0.66980 0.81000 -0.56600
O 	O 	0.69590 0.52700 0.91900 -0.17000
O 	O 	0.53480 0.62470 0.12800 -0.62800
O 	O 	0.54230 0.59390 0.49500 -0.60900
O 	O 	0.72950 0.67840 0.38200 -0.99300
N 	N 	0.66660 0.74800 0.50200 -0.31400
C 	C 	0.65850 0.90100 0.25200 0.41300
C 	C 	0.64170 0.79600 0.32600 -0.05700
C 	C 	0.60280 0.75600 0.26500 0.12400
C 	C 	0.59280 0.68500 0.41000 -0.11500
C 	C 	0.62100 0.62800 0.58100 0.12500
C 	C 	0.65940 0.65800 0.62100 -0.06300
C 	C 	0.69500 0.61300 0.79800 0.30500
C 	C 	0.55270 0.63100 0.33600 0.44900
Al	Al	0.77910 0.28370 0.92900 2.38700
O 	O 	0.80590 0.39480 0.14600 -0.73000
O 	O 	0.86410 0.45080 0.40900 -0.26700
O 	O 	0.77320 0.16980 0.69000 -0.61800
O 	O 	0.80410 0.02700 0.58100 -0.31400
O 	O 	0.96520 0.12470 0.37200 -0.62900
O 	O 	0.95770 0.09390 0.00500 -0.73100
O 	O 	0.77050 0.17840 0.11800 -1.06900
N 	N 	0.83340 0.24800 0.99800 -0.24100
C 	C 	0.84150 0.40100 0.24800 0.41900
C 	C 	0.85830 0.29600 0.17400 -0.17500
C 	C 	0.89720 0.25600 0.23500 0.16800
C 	C 	0.90720 0.18500 0.09000 -0.26800
C 	C 	0.87900 0.12800 0.91900 0.19700
C 	C 	0.84060 0.15800 0.87900 -0.11900
C 	C 	0.80500 0.11300 0.70200 0.31900
C 	C 	0.94730 0.13100 0.16400 0.45900
Al	Al	0.27910 0.78370 0.92900 2.38800
O 	O 	0.30590 0.89480 0.14600 -0.67900
O 	O 	0.36410 0.95080 0.40900 -0.19200
O 	O 	0.27320 0.66980 0.69000 -0.58500
O 	O 	0.30410 0.52700 0.58100 -0.21600
O 	O 	0.46520 0.62470 0.37200 -0.59200
O 	O 	0.45770 0.59390 0.00500 -0.68200
O 	O 	0.27050 0.67840 0.11800 -1.02400
N 	N 	0.33340 0.74800 0.99800 -0.23300
C 	C 	0.34150 0.90100 0.24800 0.43300
C 	C 	0.35830 0.79600 0.17400 -0.15700
C 	C 	0.39720 0.75600 0.23500 0.20200
C 	C 	0.40720 0.68500 0.09000 -0.26600
C 	C 	0.37900 0.62800 0.91900 0.25600
C 	C 	0.34060 0.65800 0.87900 -0.09200
C 	C 	0.30500 0.61300 0.70200 0.32800
C 	C 	0.44730 0.63100 0.16400 0.48200
Al	Al	0.77910 0.71630 0.42900 2.38100
O 	O 	0.80590 0.60520 0.64600 -0.66600
O 	O 	0.86410 0.54920 0.90900 -0.20600
O 	O 	0.77320 0.83020 0.19000 -0.60900
O 	O 	0.80410 0.97300 0.08100 -0.16700
O 	O 	0.96520 0.87530 0.87200 -0.49500
O 	O 	0.95770 0.90610 0.50500 -0.55900
O 	O 	0.77050 0.82160 0.61800 -0.91900
N 	N 	0.83340 0.75200 0.49800 -0.32300
C 	C 	0.84150 0.59900 0.74800 0.39800
C 	C 	0.85830 0.70400 0.67400 -0.05000
C 	C 	0.89720 0.74400 0.73500 0.16500
C 	C 	0.90720 0.81500 0.59000 -0.12500
C 	C 	0.87900 0.87200 0.41900 0.14900
C 	C 	0.84060 0.84200 0.37900 -0.06300
C 	C 	0.80500 0.88700 0.20200 0.30900
C 	C 	0.94730 0.86900 0.66400 0.45700
Al	Al	0.27910 0.21630 0.42900 2.38000
O 	O 	0.30590 0.10520 0.64600 -0.71500
O 	O 	0.36410 0.04920 0.90900 -0.28200
O 	O 	0.27320 0.33020 0.19000 -0.64300
O 	O 	0.30410 0.47300 0.08100 -0.26800
O 	O 	0.46520 0.37530 0.87200 -0.55300
O 	O 	0.45770 0.40610 0.50500 -0.63500
O 	O 	0.27050 0.32160 0.61800 -0.96000
N 	N 	0.33340 0.25200 0.49800 -0.33100
C 	C 	0.34150 0.09900 0.74800 0.38400
C 	C 	0.35830 0.20400 0.67400 -0.06800
C 	C 	0.39720 0.24400 0.73500 0.12900
C 	C 	0.40720 0.31500 0.59000 -0.13200
C 	C 	0.37900 0.37200 0.41900 0.09000
C 	C 	0.34060 0.34200 0.37900 -0.09100
C 	C 	0.30500 0.38700 0.20200 0.30100
C 	C 	0.44730 0.36900 0.66400 0.43700
Al	Al	0.22090 0.71630 0.07100 2.37700
O 	O 	0.19410 0.60520 0.85400 -0.62300
O 	O 	0.13590 0.54920 0.59100 -0.24400
O 	O 	0.22680 0.83020 0.31000 -0.58900
O 	O 	0.19590 0.97300 0.41900 -0.12200
O 	O 	0.03480 0.87530 0.62800 -0.54400
O 	O 	0.04230 0.90610 0.99500 -0.49900
O 	O 	0.22950 0.82160 0.88200 -0.88700
N 	N 	0.16660 0.75200 0.00200 -0.40500
C 	C 	0.15850 0.59900 0.75200 0.37900
C 	C 	0.14170 0.70400 0.82600 0.05000
C 	C 	0.10280 0.74400 0.76500 0.08600
C 	C 	0.09280 0.81500 0.91000 0.02100
C 	C 	0.12100 0.87200 0.08100 0.02100
C 	C 	0.15940 0.84200 0.12100 -0.03600
C 	C 	0.19500 0.88700 0.29800 0.28700
C 	C 	0.05270 0.86900 0.83600 0.42500
Al	Al	0.72090 0.21630 0.07100 2.37500
O 	O 	0.69410 0.10520 0.85400 -0.67200
O 	O 	0.63590 0.04920 0.59100 -0.32100
O 	O 	0.72680 0.33020 0.31000 -0.62300
O 	O 	0.69590 0.47300 0.41900 -0.22000
O 	O 	0.53480 0.37530 0.62800 -0.59200
O 	O 	0.54230 0.40610 0.99500 -0.55600
O 	O 	0.72950 0.32160 0.88200 -0.92900
N 	N 	0.66660 0.25200 0.00200 -0.41800
C 	C 	0.65850 0.09900 0.75200 0.36400
C 	C 	0.64170 0.20400 0.82600 0.03700
C 	C 	0.60280 0.24400 0.76500 0.04700
C 	C 	0.59280 0.31500 0.91000 0.02600
C 	C 	0.62100 0.37200 0.08100 -0.04700
C 	C 	0.65940 0.34200 0.12100 -0.06100
C 	C 	0.69500 0.38700 0.29800 0.27700
C 	C 	0.55270 0.36900 0.83600 0.40300
Al	Al	-0.00000 0.00000 -0.00000 2.37600
Al	Al	0.50000 0.50000 -0.00000 2.38900
Al	Al	0.00000 -0.00000 0.50000 2.38300
Al	Al	0.50000 0.50000 0.50000 2.39500
O 	O 	-0.00000 0.92400 0.25000 -0.81900
O 	O 	0.50000 0.42400 0.25000 -0.90300
O 	O 	0.00000 0.07600 0.75000 -0.89900
O 	O 	0.50000 0.57600 0.75000 -0.80400
