data_crystal

_cell_length_a 14.86700
_cell_length_b 32.32300
_cell_length_c 9.17920
_cell_angle_alpha 90.00000
_cell_angle_beta  104.26000
_cell_angle_gamma 90.00000

_symmetry_space_group_name_	'P 1'
_symmetry_space_group_name_H-M	'P 1'

loop_
_symmetry_equiv_pos_as_xyz
  x,y,z

loop_
_atom_site_label
_atom_site_type_symbol
_atom_site_fract_x
_atom_site_fract_y
_atom_site_fract_z
_atom_site_charge
Co	Co	0.19346 0.12484 0.38181 1.14900
C 	C 	0.32410 0.16750 0.20900 0.08800
H 	H 	0.36880 0.17340 0.29690 0.00900
C 	C 	0.19730 0.14890 0.05480 0.00100
H 	H 	0.13710 0.13920 0.01730 0.03800
C 	C 	0.25580 0.16140 0.96980 0.00000
H 	H 	0.24360 0.16180 0.86550 0.03900
C 	C 	0.41520 0.19240 0.03430 0.15100
C 	C 	0.40310 0.22110 0.92100 -0.16200
H 	H 	0.34420 0.22670 0.86090 0.09400
C 	C 	0.47970 0.24150 0.89790 0.04700
H 	H 	0.47140 0.26070 0.82020 0.02500
C 	C 	0.56880 0.23470 0.98560 -0.08200
C 	C 	0.57860 0.20410 0.09380 0.04300
H 	H 	0.63760 0.19810 0.15260 0.02200
C 	C 	0.50350 0.18210 0.11770 -0.15900
H 	H 	0.51210 0.16090 0.18810 0.09400
C 	C 	0.64880 0.26090 0.96760 0.12700
C 	C 	0.64350 0.30250 0.00600 -0.18100
H 	H 	0.59330 0.31180 0.04080 0.10700
C 	C 	0.71280 0.33030 0.99270 0.11400
C 	C 	0.78510 0.31470 0.93560 -0.18000
H 	H 	0.83160 0.33280 0.92500 0.09500
C 	C 	0.79140 0.27320 0.89340 0.12200
C 	C 	0.72100 0.24660 0.91290 -0.18900
H 	H 	0.72310 0.21880 0.88830 0.09800
C 	C 	0.86630 0.25830 0.82490 -0.07000
C 	C 	0.89200 0.21650 0.82760 0.03500
H 	H 	0.85990 0.19730 0.87120 0.01800
C 	C 	0.96380 0.20250 0.76750 -0.15400
H 	H 	0.98150 0.17490 0.77600 0.08800
C 	C 	0.00800 0.23020 0.69530 0.13900
C 	C 	0.98530 0.27190 0.69190 -0.14900
H 	H 	0.01710 0.29080 0.64650 0.09200
C 	C 	0.91560 0.28550 0.75590 0.03400
H 	H 	0.90120 0.31350 0.75280 0.02200
C 	C 	0.07850 0.18020 0.55120 0.10100
H 	H 	0.03230 0.16030 0.54130 -0.00600
C 	C 	0.19900 0.21250 0.53120 0.00700
H 	H 	0.25410 0.21890 0.50570 0.02600
C 	C 	0.15550 0.23780 0.60990 0.00400
H 	H 	0.17380 0.26410 0.64580 0.03200
C 	C 	0.71210 0.37390 0.03670 -0.07000
C 	C 	0.79550 0.39390 0.10910 0.02400
H 	H 	0.85130 0.37940 0.13160 0.02200
C 	C 	0.79360 0.43550 0.14640 -0.15500
H 	H 	0.84880 0.44870 0.19310 0.09100
C 	C 	0.71110 0.45790 0.11550 0.13600
C 	C 	0.62910 0.43740 0.05100 -0.15300
H 	H 	0.57290 0.45150 0.03370 0.09000
C 	C 	0.63040 0.39610 0.01220 0.03500
H 	H 	0.57470 0.38290 0.96840 0.02100
C 	C 	0.77350 0.52900 0.13870 0.10400
H 	H 	0.82460 0.52320 0.10080 0.00300
C 	C 	0.67290 0.55970 0.22770 -0.00200
H 	H 	0.64110 0.58030 0.26520 0.03000
C 	C 	0.64620 0.52000 0.21030 0.01500
H 	H 	0.59380 0.50830 0.23190 0.03100
C 	C 	0.02530 0.10030 0.28830 0.34500
C 	C 	0.92530 0.08910 0.22410 -0.19600
C 	C 	0.88300 0.09360 0.07300 0.18000
H 	H 	0.91650 0.10400 0.00790 -0.02000
C 	C 	0.79020 0.08260 0.01820 -0.32800
H 	H 	0.76330 0.08560 0.91600 0.15000
C 	C 	0.73730 0.06760 0.10720 0.34700
C 	C 	0.77750 0.06390 0.25850 -0.29700
H 	H 	0.74160 0.05580 0.32330 0.15400
C 	C 	0.87340 0.07240 0.31670 0.15700
H 	H 	0.90150 0.06670 0.41690 -0.00800
C 	C 	0.58640 0.07500 0.94900 0.32900
C 	C 	0.59500 0.11480 0.90930 -0.31300
H 	H 	0.64700 0.12990 0.95740 0.14100
C 	C 	0.52650 0.13340 0.79670 0.15900
H 	H 	0.53300 0.16090 0.77130 -0.01200
C 	C 	0.44780 0.11110 0.72150 -0.17600
C 	C 	0.44030 0.07010 0.76300 0.14300
H 	H 	0.38880 0.05450 0.71580 -0.00200
C 	C 	0.51140 0.05190 0.87770 -0.28500
H 	H 	0.50690 0.02430 0.90410 0.14400
C 	C 	0.37510 0.13210 0.59500 0.35800
N 	N 	0.24140 0.15270 0.20540 -0.22800
N 	N 	0.33600 0.17330 0.06960 -0.14300
N 	N 	0.15180 0.17680 0.49480 -0.22500
N 	N 	0.07930 0.21650 0.62550 -0.14500
N 	N 	0.75440 0.56600 0.18210 -0.21200
N 	N 	0.71090 0.50040 0.15510 -0.14700
O 	O 	0.06880 0.08710 0.41710 -0.36400
O 	O 	0.06130 0.12370 0.21340 -0.40200
O 	O 	0.64850 0.05460 0.06180 -0.34000
O 	O 	0.40090 0.16270 0.53420 -0.30200
O 	O 	0.29640 0.11470 0.56880 -0.42600
Co	Co	0.80654 0.62484 0.11819 1.14900
C 	C 	0.67590 0.66750 0.29100 0.08900
H 	H 	0.63120 0.67340 0.20310 0.00900
C 	C 	0.80270 0.64890 0.44520 -0.00500
H 	H 	0.86290 0.63920 0.48270 0.04000
C 	C 	0.74420 0.66140 0.53020 0.01000
H 	H 	0.75640 0.66180 0.63450 0.03700
C 	C 	0.58480 0.69240 0.46570 0.14100
C 	C 	0.59690 0.72110 0.57900 -0.15100
H 	H 	0.65580 0.72670 0.63910 0.09000
C 	C 	0.52030 0.74150 0.60210 0.04100
H 	H 	0.52860 0.76070 0.67980 0.02800
C 	C 	0.43120 0.73470 0.51440 -0.07500
C 	C 	0.42140 0.70410 0.40620 0.03200
H 	H 	0.36240 0.69810 0.34740 0.02500
C 	C 	0.49650 0.68210 0.38230 -0.15100
H 	H 	0.48790 0.66090 0.31190 0.09100
C 	C 	0.35120 0.76090 0.53240 0.13500
C 	C 	0.35650 0.80250 0.49400 -0.19800
H 	H 	0.40670 0.81180 0.45920 0.11200
C 	C 	0.28720 0.83030 0.50730 0.12900
C 	C 	0.21490 0.81470 0.56440 -0.18700
H 	H 	0.16840 0.83280 0.57500 0.09900
C 	C 	0.20860 0.77320 0.60660 0.12800
C 	C 	0.27900 0.74660 0.58710 -0.19400
H 	H 	0.27690 0.71880 0.61170 0.10100
C 	C 	0.13370 0.75830 0.67510 -0.07100
C 	C 	0.10800 0.71650 0.67240 0.03600
H 	H 	0.14010 0.69730 0.62880 0.01900
C 	C 	0.03620 0.70250 0.73250 -0.15200
H 	H 	0.01850 0.67490 0.72400 0.08800
C 	C 	0.99200 0.73020 0.80470 0.13800
C 	C 	0.01470 0.77190 0.80810 -0.14500
H 	H 	0.98290 0.79080 0.85350 0.09200
C 	C 	0.08440 0.78550 0.74410 0.03400
H 	H 	0.09880 0.81350 0.74720 0.02200
C 	C 	0.92150 0.68020 0.94880 0.10500
H 	H 	0.96770 0.66030 0.95870 -0.00700
C 	C 	0.80100 0.71250 0.96880 0.01100
H 	H 	0.74590 0.71890 0.99430 0.02600
C 	C 	0.84450 0.73780 0.89010 0.00300
H 	H 	0.82620 0.76410 0.85420 0.03300
C 	C 	0.28790 0.87390 0.46330 -0.07800
C 	C 	0.20450 0.89390 0.39090 0.02800
H 	H 	0.14870 0.87940 0.36840 0.02000
C 	C 	0.20640 0.93550 0.35360 -0.15700
H 	H 	0.15120 0.94870 0.30690 0.09200
C 	C 	0.28890 0.95790 0.38450 0.13700
C 	C 	0.37090 0.93740 0.44900 -0.15300
H 	H 	0.42710 0.95150 0.46630 0.08900
C 	C 	0.36960 0.89610 0.48780 0.03300
H 	H 	0.42530 0.88290 0.53160 0.02300
C 	C 	0.22650 0.02900 0.36130 0.10500
H 	H 	0.17540 0.02320 0.39920 0.00300
C 	C 	0.32710 0.05970 0.27230 -0.00200
H 	H 	0.35890 0.08030 0.23480 0.03000
C 	C 	0.35380 0.02000 0.28970 0.01500
H 	H 	0.40620 0.00830 0.26810 0.03100
C 	C 	0.97470 0.60030 0.21170 0.34800
C 	C 	0.07470 0.58910 0.27590 -0.20100
C 	C 	0.11700 0.59360 0.42700 0.18700
H 	H 	0.08350 0.60400 0.49210 -0.02300
C 	C 	0.20980 0.58260 0.48180 -0.33800
H 	H 	0.23670 0.58560 0.58400 0.15500
C 	C 	0.26270 0.56760 0.39280 0.35300
C 	C 	0.22250 0.56390 0.24150 -0.30100
H 	H 	0.25840 0.55580 0.17670 0.15500
C 	C 	0.12660 0.57240 0.18330 0.16100
H 	H 	0.09850 0.56670 0.08310 -0.01000
C 	C 	0.41360 0.57500 0.55100 0.33300
C 	C 	0.40500 0.61480 0.59070 -0.31500
H 	H 	0.35300 0.62990 0.54260 0.14300
C 	C 	0.47350 0.63340 0.70330 0.16100
H 	H 	0.46700 0.66090 0.72870 -0.01200
C 	C 	0.55220 0.61110 0.77850 -0.17600
C 	C 	0.55970 0.57010 0.73700 0.14400
H 	H 	0.61120 0.55450 0.78420 -0.00300
C 	C 	0.48860 0.55190 0.62230 -0.28700
H 	H 	0.49310 0.52430 0.59590 0.14500
C 	C 	0.62490 0.63210 0.90500 0.35800
N 	N 	0.75860 0.65270 0.29460 -0.22700
N 	N 	0.66400 0.67330 0.43040 -0.14400
N 	N 	0.84820 0.67680 0.00520 -0.22900
N 	N 	0.92070 0.71650 0.87450 -0.14500
N 	N 	0.24560 0.06600 0.31790 -0.21200
N 	N 	0.28910 0.00040 0.34490 -0.14700
O 	O 	0.93120 0.58710 0.08290 -0.36500
O 	O 	0.93870 0.62370 0.28660 -0.40300
O 	O 	0.35150 0.55460 0.43820 -0.34300
O 	O 	0.59910 0.66270 0.96580 -0.30100
O 	O 	0.70360 0.61470 0.93120 -0.42400
Co	Co	0.80654 0.87516 0.61819 1.15000
C 	C 	0.67590 0.83250 0.79100 0.08900
H 	H 	0.63120 0.82660 0.70310 0.01000
C 	C 	0.80270 0.85110 0.94520 0.00200
H 	H 	0.86290 0.86080 0.98270 0.03900
C 	C 	0.74420 0.83860 0.03020 0.00100
H 	H 	0.75640 0.83820 0.13450 0.03900
C 	C 	0.58480 0.80760 0.96570 0.15100
C 	C 	0.59690 0.77890 0.07900 -0.16200
H 	H 	0.65580 0.77330 0.13910 0.09400
C 	C 	0.52030 0.75850 0.10210 0.04700
H 	H 	0.52860 0.73930 0.17980 0.02500
C 	C 	0.43120 0.76530 0.01440 -0.08200
C 	C 	0.42140 0.79590 0.90620 0.04300
H 	H 	0.36240 0.80190 0.84740 0.02200
C 	C 	0.49650 0.81790 0.88230 -0.15900
H 	H 	0.48790 0.83910 0.81190 0.09400
C 	C 	0.35120 0.73910 0.03240 0.12700
C 	C 	0.35650 0.69750 0.99400 -0.18100
H 	H 	0.40670 0.68820 0.95920 0.10700
C 	C 	0.28720 0.66970 0.00730 0.11400
C 	C 	0.21490 0.68530 0.06440 -0.18000
H 	H 	0.16840 0.66720 0.07500 0.09500
C 	C 	0.20860 0.72680 0.10660 0.12200
C 	C 	0.27900 0.75340 0.08710 -0.18900
H 	H 	0.27690 0.78120 0.11170 0.09800
C 	C 	0.13370 0.74170 0.17510 -0.07000
C 	C 	0.10800 0.78350 0.17240 0.03500
H 	H 	0.14010 0.80270 0.12880 0.01800
C 	C 	0.03620 0.79750 0.23250 -0.15400
H 	H 	0.01850 0.82510 0.22400 0.08800
C 	C 	0.99200 0.76980 0.30470 0.13900
C 	C 	0.01470 0.72810 0.30810 -0.14900
H 	H 	0.98290 0.70920 0.35350 0.09200
C 	C 	0.08440 0.71450 0.24410 0.03400
H 	H 	0.09880 0.68650 0.24720 0.02200
C 	C 	0.92150 0.81980 0.44880 0.10100
H 	H 	0.96770 0.83970 0.45870 -0.00600
C 	C 	0.80100 0.78750 0.46880 0.00700
H 	H 	0.74590 0.78110 0.49430 0.02600
C 	C 	0.84450 0.76220 0.39010 0.00400
H 	H 	0.82620 0.73590 0.35420 0.03200
C 	C 	0.28790 0.62610 0.96330 -0.07000
C 	C 	0.20450 0.60610 0.89090 0.02400
H 	H 	0.14870 0.62060 0.86840 0.02200
C 	C 	0.20640 0.56450 0.85360 -0.15500
H 	H 	0.15120 0.55130 0.80690 0.09100
C 	C 	0.28890 0.54210 0.88450 0.13600
C 	C 	0.37090 0.56260 0.94900 -0.15300
H 	H 	0.42710 0.54850 0.96630 0.09000
C 	C 	0.36960 0.60390 0.98780 0.03500
H 	H 	0.42530 0.61710 0.03160 0.02100
C 	C 	0.22650 0.47100 0.86130 0.10400
H 	H 	0.17540 0.47680 0.89920 0.00300
C 	C 	0.32710 0.44030 0.77230 -0.00200
H 	H 	0.35890 0.41970 0.73480 0.03000
C 	C 	0.35380 0.48000 0.78970 0.01500
H 	H 	0.40620 0.49170 0.76810 0.03100
C 	C 	0.97470 0.89970 0.71170 0.34500
C 	C 	0.07470 0.91090 0.77590 -0.19600
C 	C 	0.11700 0.90640 0.92700 0.18000
H 	H 	0.08350 0.89600 0.99210 -0.02000
C 	C 	0.20980 0.91740 0.98180 -0.32800
H 	H 	0.23670 0.91440 0.08400 0.15000
C 	C 	0.26270 0.93240 0.89280 0.34700
C 	C 	0.22250 0.93610 0.74150 -0.29700
H 	H 	0.25840 0.94420 0.67670 0.15400
C 	C 	0.12660 0.92760 0.68330 0.15700
H 	H 	0.09850 0.93330 0.58310 -0.00800
C 	C 	0.41360 0.92500 0.05100 0.32900
C 	C 	0.40500 0.88520 0.09070 -0.31300
H 	H 	0.35300 0.87010 0.04260 0.14100
C 	C 	0.47350 0.86660 0.20330 0.15900
H 	H 	0.46700 0.83910 0.22870 -0.01200
C 	C 	0.55220 0.88890 0.27850 -0.17600
C 	C 	0.55970 0.92990 0.23700 0.14300
H 	H 	0.61120 0.94550 0.28420 -0.00200
C 	C 	0.48860 0.94810 0.12230 -0.28500
H 	H 	0.49310 0.97570 0.09590 0.14400
C 	C 	0.62490 0.86790 0.40500 0.35800
N 	N 	0.75860 0.84730 0.79460 -0.22800
N 	N 	0.66400 0.82670 0.93040 -0.14300
N 	N 	0.84820 0.82320 0.50520 -0.22500
N 	N 	0.92070 0.78350 0.37450 -0.14500
N 	N 	0.24560 0.43400 0.81790 -0.21200
N 	N 	0.28910 0.49960 0.84490 -0.14700
O 	O 	0.93120 0.91290 0.58290 -0.36400
O 	O 	0.93870 0.87630 0.78660 -0.40200
O 	O 	0.35150 0.94540 0.93820 -0.34000
O 	O 	0.59910 0.83730 0.46580 -0.30200
O 	O 	0.70360 0.88530 0.43120 -0.42600
Co	Co	0.19346 0.37516 0.88181 1.14900
C 	C 	0.32410 0.33250 0.70900 0.08900
H 	H 	0.36880 0.32660 0.79690 0.00900
C 	C 	0.19730 0.35110 0.55480 -0.00500
H 	H 	0.13710 0.36080 0.51730 0.04000
C 	C 	0.25580 0.33860 0.46980 0.01000
H 	H 	0.24360 0.33820 0.36550 0.03700
C 	C 	0.41520 0.30760 0.53430 0.14100
C 	C 	0.40310 0.27890 0.42100 -0.15100
H 	H 	0.34420 0.27330 0.36090 0.09000
C 	C 	0.47970 0.25850 0.39790 0.04100
H 	H 	0.47140 0.23930 0.32020 0.02800
C 	C 	0.56880 0.26530 0.48560 -0.07500
C 	C 	0.57860 0.29590 0.59380 0.03200
H 	H 	0.63760 0.30190 0.65260 0.02500
C 	C 	0.50350 0.31790 0.61770 -0.15100
H 	H 	0.51210 0.33910 0.68810 0.09100
C 	C 	0.64880 0.23910 0.46760 0.13500
C 	C 	0.64350 0.19750 0.50600 -0.19800
H 	H 	0.59330 0.18820 0.54080 0.11200
C 	C 	0.71280 0.16970 0.49270 0.12900
C 	C 	0.78510 0.18530 0.43560 -0.18700
H 	H 	0.83160 0.16720 0.42500 0.09900
C 	C 	0.79140 0.22680 0.39340 0.12800
C 	C 	0.72100 0.25340 0.41290 -0.19400
H 	H 	0.72310 0.28120 0.38830 0.10100
C 	C 	0.86630 0.24170 0.32490 -0.07100
C 	C 	0.89200 0.28350 0.32760 0.03600
H 	H 	0.85990 0.30270 0.37120 0.01900
C 	C 	0.96380 0.29750 0.26750 -0.15200
H 	H 	0.98150 0.32510 0.27600 0.08800
C 	C 	0.00800 0.26980 0.19530 0.13800
C 	C 	0.98530 0.22810 0.19190 -0.14500
H 	H 	0.01710 0.20920 0.14650 0.09200
C 	C 	0.91560 0.21450 0.25590 0.03400
H 	H 	0.90120 0.18650 0.25280 0.02200
C 	C 	0.07850 0.31980 0.05120 0.10500
H 	H 	0.03230 0.33970 0.04130 -0.00700
C 	C 	0.19900 0.28750 0.03120 0.01100
H 	H 	0.25410 0.28110 0.00570 0.02600
C 	C 	0.15550 0.26220 0.10990 0.00300
H 	H 	0.17380 0.23590 0.14580 0.03300
C 	C 	0.71210 0.12610 0.53670 -0.07800
C 	C 	0.79550 0.10610 0.60910 0.02800
H 	H 	0.85130 0.12060 0.63160 0.02000
C 	C 	0.79360 0.06450 0.64640 -0.15700
H 	H 	0.84880 0.05130 0.69310 0.09200
C 	C 	0.71110 0.04210 0.61550 0.13700
C 	C 	0.62910 0.06260 0.55100 -0.15300
H 	H 	0.57290 0.04850 0.53370 0.08900
C 	C 	0.63040 0.10390 0.51220 0.03300
H 	H 	0.57470 0.11710 0.46840 0.02300
C 	C 	0.77350 0.97100 0.63870 0.10500
H 	H 	0.82460 0.97680 0.60080 0.00300
C 	C 	0.67290 0.94030 0.72770 -0.00200
H 	H 	0.64110 0.91970 0.76520 0.03000
C 	C 	0.64620 0.98000 0.71030 0.01500
H 	H 	0.59380 0.99170 0.73190 0.03100
C 	C 	0.02530 0.39970 0.78830 0.34800
C 	C 	0.92530 0.41090 0.72410 -0.20100
C 	C 	0.88300 0.40640 0.57300 0.18700
H 	H 	0.91650 0.39600 0.50790 -0.02300
C 	C 	0.79020 0.41740 0.51820 -0.33800
H 	H 	0.76330 0.41440 0.41600 0.15500
C 	C 	0.73730 0.43240 0.60720 0.35300
C 	C 	0.77750 0.43610 0.75850 -0.30100
H 	H 	0.74160 0.44420 0.82330 0.15500
C 	C 	0.87340 0.42760 0.81670 0.16100
H 	H 	0.90150 0.43330 0.91690 -0.01000
C 	C 	0.58640 0.42500 0.44900 0.33300
C 	C 	0.59500 0.38520 0.40930 -0.31500
H 	H 	0.64700 0.37010 0.45740 0.14300
C 	C 	0.52650 0.36660 0.29670 0.16100
H 	H 	0.53300 0.33910 0.27130 -0.01200
C 	C 	0.44780 0.38890 0.22150 -0.17600
C 	C 	0.44030 0.42990 0.26300 0.14400
H 	H 	0.38880 0.44550 0.21580 -0.00300
C 	C 	0.51140 0.44810 0.37770 -0.28700
H 	H 	0.50690 0.47570 0.40410 0.14500
C 	C 	0.37510 0.36790 0.09500 0.35800
N 	N 	0.24140 0.34730 0.70540 -0.22700
N 	N 	0.33600 0.32670 0.56960 -0.14400
N 	N 	0.15180 0.32320 0.99480 -0.22900
N 	N 	0.07930 0.28350 0.12550 -0.14500
N 	N 	0.75440 0.93400 0.68210 -0.21200
N 	N 	0.71090 0.99960 0.65510 -0.14700
O 	O 	0.06880 0.41290 0.91710 -0.36500
O 	O 	0.06130 0.37630 0.71340 -0.40300
O 	O 	0.64850 0.44540 0.56180 -0.34300
O 	O 	0.40090 0.33730 0.03420 -0.30100
O 	O 	0.29640 0.38530 0.06880 -0.42400
