data_crystal

_cell_length_a 11.44240
_cell_length_b 15.13520
_cell_length_c 15.21410
_cell_angle_alpha 112.00200
_cell_angle_beta  96.43300
_cell_angle_gamma 98.57400

_symmetry_space_group_name_	'P 1'
_symmetry_space_group_name_H-M	'P 1'

loop_
_symmetry_equiv_pos_as_xyz
  x,y,z

loop_
_atom_site_label
_atom_site_type_symbol
_atom_site_fract_x
_atom_site_fract_y
_atom_site_fract_z
_atom_site_charge
Zn	Zn	0.35040 0.13899 0.73096 1.20800
O 	O 	0.31550 0.99482 0.69685 -0.42600
O 	O 	0.37980 0.19461 0.87507 -0.43900
O 	O 	0.43880 0.34690 0.89092 -0.30400
O 	O 	0.27410 0.98325 0.54650 -0.32000
C 	C 	0.32330 0.69700 0.59580 -0.09300
H 	H 	0.32740 0.66520 0.63750 0.06300
N 	N 	0.35560 0.50767 0.36818 -0.13400
C 	C 	0.36790 0.28220 0.16710 -0.09100
H 	H 	0.35040 0.23620 0.19310 0.06100
N 	N 	0.54000 0.13771 0.72718 -0.23500
C 	C 	0.42360 0.41620 0.08710 0.01500
H 	H 	0.44370 0.46210 0.06140 0.05100
C 	C 	0.37060 0.35700 0.37880 -0.12600
H 	H 	0.38190 0.29370 0.34910 0.07200
N 	N 	0.35830 0.22076 0.64422 -0.25900
C 	C 	0.31430 0.79390 0.63110 0.02000
H 	H 	0.31480 0.82700 0.69650 0.04000
C 	C 	0.74190 0.22960 0.76810 -0.12600
H 	H 	0.79380 0.29020 0.79570 0.07500
C 	C 	0.91540 0.14800 0.72960 0.08900
C 	C 	0.32650 0.64690 0.49960 0.03100
C 	C 	0.31920 0.69570 0.43960 -0.08700
H 	H 	0.32190 0.66350 0.37470 0.07100
C 	C 	0.35450 0.39210 0.47470 0.04700
C 	C 	0.38450 0.38130 0.22530 0.02600
C 	C 	0.33960 0.54310 0.45930 0.08300
N 	N 	0.16080 0.14880 0.72990 -0.24900
C 	C 	0.78620 0.14480 0.73010 0.04400
C 	C 	0.95550 0.08460 0.65500 -0.16600
H 	H 	0.90100 0.03920 0.60130 0.10200
C 	C 	0.33700 0.48830 0.51470 -0.12100
H 	H 	0.32390 0.51490 0.57780 0.07100
C 	C 	0.00320 0.21920 0.79970 -0.16800
H 	H 	0.98250 0.27010 0.84850 0.09100
C 	C 	0.35530 0.33280 0.53240 0.07300
C 	C 	0.70410 0.05750 0.68970 -0.12100
H 	H 	0.72990 0.99950 0.66150 0.07600
C 	C 	0.40510 0.31840 0.03020 -0.09000
C 	C 	0.36510 0.23650 0.49590 -0.14600
H 	H 	0.37120 0.20650 0.43140 0.08000
C 	C 	0.30780 0.79220 0.47440 0.01400
H 	H 	0.30230 0.82380 0.43260 0.04200
C 	C 	0.37000 0.41550 0.32810 0.08200
C 	C 	0.41200 0.44620 0.18340 -0.08500
H 	H 	0.42330 0.51260 0.22080 0.07200
C 	C 	0.37740 0.25230 0.07050 0.02100
H 	H 	0.36480 0.18610 0.03230 0.04100
C 	C 	0.61990 0.22200 0.76410 0.07300
H 	H 	0.59140 0.27920 0.78860 0.00000
C 	C 	0.29610 0.94760 0.60560 0.31900
C 	C 	0.30450 0.84160 0.57080 -0.08800
C 	C 	0.58320 0.05630 0.69140 0.07500
H 	H 	0.52960 0.99650 0.66670 0.00200
C 	C 	0.07720 0.08790 0.65910 0.10700
H 	H 	0.10120 0.04310 0.60710 -0.00800
C 	C 	0.40840 0.28570 0.92370 0.34000
C 	C 	0.34900 0.36950 0.62820 -0.14500
H 	H 	0.34370 0.43440 0.65860 0.08300
C 	C 	0.36600 0.18410 0.55160 0.09100
H 	H 	0.37240 0.11930 0.52330 -0.00300
C 	C 	0.35040 0.31360 0.68010 0.08700
H 	H 	0.34550 0.34230 0.74500 -0.00300
C 	C 	0.12140 0.21480 0.79730 0.11000
H 	H 	0.17850 0.26250 0.84750 -0.01200
Zn	Zn	0.64960 0.86101 0.26904 1.20700
O 	O 	0.68450 0.00518 0.30315 -0.42700
O 	O 	0.62020 0.80539 0.12493 -0.44000
O 	O 	0.56120 0.65310 0.10908 -0.30500
O 	O 	0.72590 0.01675 0.45350 -0.32100
C 	C 	0.67670 0.30300 0.40420 -0.09400
H 	H 	0.67260 0.33480 0.36250 0.06300
N 	N 	0.64440 0.49233 0.63182 -0.13400
C 	C 	0.63210 0.71780 0.83290 -0.09100
H 	H 	0.64960 0.76380 0.80690 0.06100
N 	N 	0.46000 0.86229 0.27282 -0.23500
C 	C 	0.57640 0.58380 0.91290 0.01500
H 	H 	0.55630 0.53790 0.93860 0.05100
C 	C 	0.62940 0.64300 0.62120 -0.12600
H 	H 	0.61810 0.70630 0.65090 0.07200
N 	N 	0.64170 0.77924 0.35578 -0.25900
C 	C 	0.68570 0.20610 0.36890 0.02000
H 	H 	0.68520 0.17300 0.30350 0.04000
C 	C 	0.25810 0.77040 0.23190 -0.12600
H 	H 	0.20620 0.70980 0.20430 0.07500
C 	C 	0.08460 0.85200 0.27040 0.08900
C 	C 	0.67350 0.35310 0.50040 0.03100
C 	C 	0.68080 0.30430 0.56040 -0.08700
H 	H 	0.67810 0.33650 0.62530 0.07100
C 	C 	0.64550 0.60790 0.52530 0.04700
C 	C 	0.61550 0.61870 0.77470 0.02600
C 	C 	0.66040 0.45690 0.54070 0.08300
N 	N 	0.83920 0.85120 0.27010 -0.24900
C 	C 	0.21380 0.85520 0.26990 0.04400
C 	C 	0.04450 0.91540 0.34500 -0.16600
H 	H 	0.09900 0.96080 0.39870 0.10200
C 	C 	0.66300 0.51170 0.48530 -0.12100
H 	H 	0.67610 0.48510 0.42220 0.07100
C 	C 	0.99680 0.78080 0.20030 -0.16800
H 	H 	0.01750 0.72990 0.15150 0.09100
C 	C 	0.64470 0.66720 0.46760 0.07300
C 	C 	0.29590 0.94250 0.31030 -0.12100
H 	H 	0.27010 0.00050 0.33850 0.07600
C 	C 	0.59490 0.68160 0.96980 -0.09000
C 	C 	0.63490 0.76350 0.50410 -0.14600
H 	H 	0.62880 0.79350 0.56860 0.08000
C 	C 	0.69220 0.20780 0.52560 0.01400
H 	H 	0.69770 0.17620 0.56740 0.04200
C 	C 	0.63000 0.58450 0.67190 0.08200
C 	C 	0.58800 0.55380 0.81660 -0.08500
H 	H 	0.57670 0.48740 0.77920 0.07200
C 	C 	0.62260 0.74770 0.92950 0.02100
H 	H 	0.63520 0.81390 0.96770 0.04100
C 	C 	0.38010 0.77800 0.23590 0.07300
H 	H 	0.40860 0.72080 0.21140 0.00000
C 	C 	0.70390 0.05240 0.39440 0.31900
C 	C 	0.69550 0.15840 0.42920 -0.08800
C 	C 	0.41680 0.94370 0.30860 0.07500
H 	H 	0.47040 0.00350 0.33330 0.00200
C 	C 	0.92280 0.91210 0.34090 0.10700
H 	H 	0.89880 0.95690 0.39290 -0.00800
C 	C 	0.59160 0.71430 0.07630 0.34000
C 	C 	0.65100 0.63050 0.37180 -0.14500
H 	H 	0.65630 0.56560 0.34140 0.08300
C 	C 	0.63400 0.81590 0.44840 0.09100
H 	H 	0.62760 0.88070 0.47670 -0.00300
C 	C 	0.64960 0.68640 0.31990 0.08700
H 	H 	0.65450 0.65770 0.25500 -0.00300
C 	C 	0.87860 0.78520 0.20270 0.11000
H 	H 	0.82150 0.73750 0.15250 -0.01200
