data_crystal

_cell_length_a 16.87000
_cell_length_b 16.87000
_cell_length_c 13.88600
_cell_angle_alpha 90.00000
_cell_angle_beta  90.00000
_cell_angle_gamma 120.00000

_symmetry_space_group_name_	'P 1'
_symmetry_space_group_name_H-M	'P 1'

loop_
_symmetry_equiv_pos_as_xyz
  x,y,z

loop_
_atom_site_label
_atom_site_type_symbol
_atom_site_fract_x
_atom_site_fract_y
_atom_site_fract_z
_atom_site_charge
O 	O 	0.77720 0.35290 0.18100 -0.40700
N 	N 	0.11120 0.60540 0.41340 -0.15700
N 	N 	0.22810 0.66730 0.51730 -0.22500
C 	C 	0.96600 0.50750 0.33170 -0.15300
H 	H 	0.93440 0.50770 0.38640 0.09800
C 	C 	0.06010 0.55480 0.33050 0.16700
C 	C 	0.19040 0.61090 0.44420 0.09100
H 	H 	0.21540 0.57810 0.41640 -0.00900
C 	C 	0.17090 0.70280 0.53580 0.07400
C 	C 	0.17850 0.76640 0.60420 -0.12000
H 	H 	0.22710 0.79240 0.64730 0.08600
C 	C 	0.11010 0.78930 0.60530 -0.00400
H 	H 	0.11210 0.83010 0.65160 0.02900
C 	C 	0.03810 0.75280 0.53870 -0.03800
H 	H 	0.99450 0.77110 0.54080 0.04300
C 	C 	0.03060 0.69020 0.46980 -0.08100
H 	H 	0.98350 0.66660 0.42480 0.06300
C 	C 	0.09700 0.66430 0.47140 0.05400
O 	O 	0.64710 0.42430 0.18100 -0.40600
N 	N 	0.39460 0.50580 0.41340 -0.15600
N 	N 	0.33270 0.56080 0.51730 -0.22400
C 	C 	0.49250 0.45850 0.33170 -0.15200
H 	H 	0.49230 0.42670 0.38640 0.09900
C 	C 	0.44520 0.50530 0.33050 0.16700
C 	C 	0.38910 0.57950 0.44420 0.09100
H 	H 	0.42190 0.63730 0.41640 -0.00900
C 	C 	0.29720 0.46810 0.53580 0.07500
C 	C 	0.23360 0.41210 0.60420 -0.12000
H 	H 	0.20760 0.43470 0.64730 0.08700
C 	C 	0.21070 0.32080 0.60530 -0.00300
H 	H 	0.16990 0.28200 0.65160 0.02900
C 	C 	0.24720 0.28530 0.53870 -0.03900
H 	H 	0.22890 0.22340 0.54080 0.04300
C 	C 	0.30980 0.34040 0.46980 -0.08100
H 	H 	0.33340 0.31690 0.42480 0.06200
C 	C 	0.33570 0.43270 0.47140 0.05400
O 	O 	0.57570 0.22280 0.18100 -0.40600
N 	N 	0.49420 0.88880 0.41340 -0.15600
N 	N 	0.43920 0.77190 0.51730 -0.22400
C 	C 	0.54150 0.03400 0.33170 -0.15200
H 	H 	0.57330 0.06560 0.38640 0.09800
C 	C 	0.49470 0.93990 0.33050 0.16700
C 	C 	0.42050 0.80960 0.44420 0.09100
H 	H 	0.36270 0.78460 0.41640 -0.00900
C 	C 	0.53190 0.82910 0.53580 0.07500
C 	C 	0.58790 0.82150 0.60420 -0.12000
H 	H 	0.56530 0.77290 0.64730 0.08600
C 	C 	0.67920 0.88990 0.60530 -0.00400
H 	H 	0.71800 0.88790 0.65160 0.02900
C 	C 	0.71470 0.96190 0.53870 -0.03800
H 	H 	0.77660 0.00550 0.54080 0.04300
C 	C 	0.65960 0.96940 0.46980 -0.08100
H 	H 	0.68310 0.01650 0.42480 0.06300
C 	C 	0.56730 0.90300 0.47140 0.05400
O 	O 	0.64710 0.22280 0.31900 -0.40600
N 	N 	0.39460 0.88880 0.08660 -0.15600
N 	N 	0.33270 0.77190 0.98270 -0.22400
C 	C 	0.49250 0.03400 0.16830 -0.15100
H 	H 	0.49230 0.06560 0.11360 0.09800
C 	C 	0.44520 0.93990 0.16950 0.16600
C 	C 	0.38910 0.80960 0.05580 0.09000
H 	H 	0.42190 0.78460 0.08360 -0.00900
C 	C 	0.29720 0.82910 0.96420 0.07400
C 	C 	0.23360 0.82150 0.89580 -0.11900
H 	H 	0.20760 0.77290 0.85270 0.08600
C 	C 	0.21070 0.88990 0.89470 -0.00600
H 	H 	0.16990 0.88790 0.84840 0.03000
C 	C 	0.24720 0.96190 0.96130 -0.03400
H 	H 	0.22890 0.00550 0.95920 0.04100
C 	C 	0.30980 0.96940 0.03020 -0.08500
H 	H 	0.33340 0.01650 0.07520 0.06400
C 	C 	0.33570 0.90300 0.02860 0.05500
O 	O 	0.57570 0.35290 0.31900 -0.40600
N 	N 	0.49420 0.60540 0.08660 -0.15600
N 	N 	0.43920 0.66730 0.98270 -0.22400
C 	C 	0.54150 0.50750 0.16830 -0.15200
H 	H 	0.57330 0.50770 0.11360 0.09900
C 	C 	0.49470 0.55480 0.16950 0.16700
C 	C 	0.42050 0.61090 0.05580 0.09100
H 	H 	0.36270 0.57810 0.08360 -0.00900
C 	C 	0.53190 0.70280 0.96420 0.07500
C 	C 	0.58790 0.76640 0.89580 -0.12000
H 	H 	0.56530 0.79240 0.85270 0.08700
C 	C 	0.67920 0.78930 0.89470 -0.00300
H 	H 	0.71800 0.83010 0.84840 0.02900
C 	C 	0.71470 0.75280 0.96130 -0.03900
H 	H 	0.77660 0.77110 0.95920 0.04300
C 	C 	0.65960 0.69020 0.03020 -0.08100
H 	H 	0.68310 0.66660 0.07520 0.06200
C 	C 	0.56730 0.66430 0.02860 0.05400
O 	O 	0.77720 0.42430 0.31900 -0.40600
N 	N 	0.11120 0.50580 0.08660 -0.15600
N 	N 	0.22810 0.56080 0.98270 -0.22400
C 	C 	0.96600 0.45850 0.16830 -0.15100
H 	H 	0.93440 0.42670 0.11360 0.09800
C 	C 	0.06010 0.50530 0.16950 0.16600
C 	C 	0.19040 0.57950 0.05580 0.09000
H 	H 	0.21540 0.63730 0.08360 -0.00900
C 	C 	0.17090 0.46810 0.96420 0.07400
C 	C 	0.17850 0.41210 0.89580 -0.11900
H 	H 	0.22710 0.43470 0.85270 0.08600
C 	C 	0.11010 0.32080 0.89470 -0.00600
H 	H 	0.11210 0.28200 0.84840 0.02900
C 	C 	0.03810 0.28530 0.96130 -0.03500
H 	H 	0.99450 0.22340 0.95920 0.04100
C 	C 	0.03060 0.34040 0.03020 -0.08400
H 	H 	0.98350 0.31690 0.07520 0.06400
C 	C 	0.09700 0.43270 0.02860 0.05500
O 	O 	0.22280 0.64710 0.81900 -0.40600
N 	N 	0.88880 0.39460 0.58660 -0.15600
N 	N 	0.77190 0.33270 0.48270 -0.22400
C 	C 	0.03400 0.49250 0.66830 -0.15200
H 	H 	0.06560 0.49230 0.61360 0.09800
C 	C 	0.93990 0.44520 0.66950 0.16700
C 	C 	0.80960 0.38910 0.55580 0.09100
H 	H 	0.78460 0.42190 0.58360 -0.00900
C 	C 	0.82910 0.29720 0.46420 0.07400
C 	C 	0.82150 0.23360 0.39580 -0.12000
H 	H 	0.77290 0.20760 0.35270 0.08600
C 	C 	0.88990 0.21070 0.39470 -0.00400
H 	H 	0.88790 0.16990 0.34840 0.02900
C 	C 	0.96190 0.24720 0.46130 -0.03800
H 	H 	0.00550 0.22890 0.45920 0.04300
C 	C 	0.96940 0.30980 0.53020 -0.08100
H 	H 	0.01650 0.33340 0.57520 0.06300
C 	C 	0.90300 0.33570 0.52860 0.05400
O 	O 	0.35290 0.57570 0.81900 -0.40600
N 	N 	0.60540 0.49420 0.58660 -0.15600
N 	N 	0.66730 0.43920 0.48270 -0.22400
C 	C 	0.50750 0.54150 0.66830 -0.15200
H 	H 	0.50770 0.57330 0.61360 0.09900
C 	C 	0.55480 0.49470 0.66950 0.16700
C 	C 	0.61090 0.42050 0.55580 0.09100
H 	H 	0.57810 0.36270 0.58360 -0.00900
C 	C 	0.70280 0.53190 0.46420 0.07500
C 	C 	0.76640 0.58790 0.39580 -0.12000
H 	H 	0.79240 0.56530 0.35270 0.08700
C 	C 	0.78930 0.67920 0.39470 -0.00300
H 	H 	0.83010 0.71800 0.34840 0.02900
C 	C 	0.75280 0.71470 0.46130 -0.03900
H 	H 	0.77110 0.77660 0.45920 0.04300
C 	C 	0.69020 0.65960 0.53020 -0.08100
H 	H 	0.66660 0.68310 0.57520 0.06200
C 	C 	0.66430 0.56730 0.52860 0.05400
O 	O 	0.42430 0.77720 0.81900 -0.40600
N 	N 	0.50580 0.11120 0.58660 -0.15600
N 	N 	0.56080 0.22810 0.48270 -0.22400
C 	C 	0.45850 0.96600 0.66830 -0.15200
H 	H 	0.42670 0.93440 0.61360 0.09800
C 	C 	0.50530 0.06010 0.66950 0.16700
C 	C 	0.57950 0.19040 0.55580 0.09100
H 	H 	0.63730 0.21540 0.58360 -0.00900
C 	C 	0.46810 0.17090 0.46420 0.07500
C 	C 	0.41210 0.17850 0.39580 -0.12000
H 	H 	0.43470 0.22710 0.35270 0.08600
C 	C 	0.32080 0.11010 0.39470 -0.00400
H 	H 	0.28200 0.11210 0.34840 0.02900
C 	C 	0.28530 0.03810 0.46130 -0.03800
H 	H 	0.22340 0.99450 0.45920 0.04300
C 	C 	0.34040 0.03060 0.53020 -0.08100
H 	H 	0.31690 0.98350 0.57520 0.06300
C 	C 	0.43270 0.09700 0.52860 0.05400
O 	O 	0.35290 0.77720 0.68100 -0.40600
N 	N 	0.60540 0.11120 0.91340 -0.15600
N 	N 	0.66730 0.22810 0.01730 -0.22400
C 	C 	0.50750 0.96600 0.83170 -0.15100
H 	H 	0.50770 0.93440 0.88640 0.09800
C 	C 	0.55480 0.06010 0.83050 0.16600
C 	C 	0.61090 0.19040 0.94420 0.09000
H 	H 	0.57810 0.21540 0.91640 -0.00900
C 	C 	0.70280 0.17090 0.03580 0.07400
C 	C 	0.76640 0.17850 0.10420 -0.11900
H 	H 	0.79240 0.22710 0.14730 0.08600
C 	C 	0.78930 0.11010 0.10530 -0.00600
H 	H 	0.83010 0.11210 0.15160 0.03000
C 	C 	0.75280 0.03810 0.03870 -0.03400
H 	H 	0.77110 0.99450 0.04080 0.04100
C 	C 	0.69020 0.03060 0.96980 -0.08500
H 	H 	0.66660 0.98350 0.92480 0.06400
C 	C 	0.66430 0.09700 0.97140 0.05500
O 	O 	0.42430 0.64710 0.68100 -0.40600
N 	N 	0.50580 0.39460 0.91340 -0.15600
N 	N 	0.56080 0.33270 0.01730 -0.22400
C 	C 	0.45850 0.49250 0.83170 -0.15200
H 	H 	0.42670 0.49230 0.88640 0.09900
C 	C 	0.50530 0.44520 0.83050 0.16700
C 	C 	0.57950 0.38910 0.94420 0.09100
H 	H 	0.63730 0.42190 0.91640 -0.00900
C 	C 	0.46810 0.29720 0.03580 0.07500
C 	C 	0.41210 0.23360 0.10420 -0.12000
H 	H 	0.43470 0.20760 0.14730 0.08700
C 	C 	0.32080 0.21070 0.10530 -0.00300
H 	H 	0.28200 0.16990 0.15160 0.02900
C 	C 	0.28530 0.24720 0.03870 -0.03900
H 	H 	0.22340 0.22890 0.04080 0.04300
C 	C 	0.34040 0.30980 0.96980 -0.08100
H 	H 	0.31690 0.33340 0.92480 0.06200
C 	C 	0.43270 0.33570 0.97140 0.05400
O 	O 	0.22280 0.57570 0.68100 -0.40600
N 	N 	0.88880 0.49420 0.91340 -0.15600
N 	N 	0.77190 0.43920 0.01730 -0.22400
C 	C 	0.03400 0.54150 0.83170 -0.15100
H 	H 	0.06560 0.57330 0.88640 0.09800
C 	C 	0.93990 0.49470 0.83050 0.16600
C 	C 	0.80960 0.42050 0.94420 0.09000
H 	H 	0.78460 0.36270 0.91640 -0.00900
C 	C 	0.82910 0.53190 0.03580 0.07400
C 	C 	0.82150 0.58790 0.10420 -0.11900
H 	H 	0.77290 0.56530 0.14730 0.08600
C 	C 	0.88990 0.67920 0.10530 -0.00600
H 	H 	0.88790 0.71800 0.15160 0.02900
C 	C 	0.96190 0.71470 0.03870 -0.03500
H 	H 	0.00550 0.77660 0.04080 0.04100
C 	C 	0.96940 0.65960 0.96980 -0.08400
H 	H 	0.01650 0.68310 0.92480 0.06400
C 	C 	0.90300 0.56730 0.97140 0.05500
Ni	Ni	0.66667 0.33333 0.10260 1.10500
Ni	Ni	0.66667 0.33333 0.39740 1.10500
Ni	Ni	0.33333 0.66667 0.89740 1.10500
Ni	Ni	0.33333 0.66667 0.60260 1.10500
C 	C 	0.81530 0.40765 0.25000 0.32400
C 	C 	0.91870 0.45935 0.25000 0.01800
C 	C 	0.10770 0.55385 0.25000 -0.22100
H 	H 	0.17140 0.58570 0.25000 0.11200
C 	C 	0.59235 0.40765 0.25000 0.32400
C 	C 	0.54065 0.45935 0.25000 0.01900
C 	C 	0.44615 0.55385 0.25000 -0.22100
H 	H 	0.41430 0.58570 0.25000 0.11200
C 	C 	0.59235 0.18470 0.25000 0.32400
C 	C 	0.54065 0.08130 0.25000 0.01800
C 	C 	0.44615 0.89230 0.25000 -0.22100
H 	H 	0.41430 0.82860 0.25000 0.11200
C 	C 	0.18470 0.59235 0.75000 0.32400
C 	C 	0.08130 0.54065 0.75000 0.01800
C 	C 	0.89230 0.44615 0.75000 -0.22100
H 	H 	0.82860 0.41430 0.75000 0.11200
C 	C 	0.40765 0.59235 0.75000 0.32400
C 	C 	0.45935 0.54065 0.75000 0.01900
C 	C 	0.55385 0.44615 0.75000 -0.22100
H 	H 	0.58570 0.41430 0.75000 0.11200
C 	C 	0.40765 0.81530 0.75000 0.32400
C 	C 	0.45935 0.91870 0.75000 0.01800
C 	C 	0.55385 0.10770 0.75000 -0.22100
H 	H 	0.58570 0.17140 0.75000 0.11200
