data_crystal

_cell_length_a 16.90100
_cell_length_b 16.90100
_cell_length_c 14.08200
_cell_angle_alpha 90.00000
_cell_angle_beta  90.00000
_cell_angle_gamma 120.00000

_symmetry_space_group_name_	'P 1'
_symmetry_space_group_name_H-M	'P 1'

loop_
_symmetry_equiv_pos_as_xyz
  x,y,z

loop_
_atom_site_label
_atom_site_type_symbol
_atom_site_fract_x
_atom_site_fract_y
_atom_site_fract_z
_atom_site_charge
O 	O 	0.77900 0.35450 0.18160 -0.41700
N 	N 	0.11140 0.60470 0.41160 -0.15700
N 	N 	0.22750 0.66690 0.51600 -0.22900
C 	C 	0.96720 0.50800 0.32960 -0.15000
H 	H 	0.93550 0.50800 0.38350 0.09700
C 	C 	0.06150 0.55590 0.32930 0.16700
C 	C 	0.19070 0.61220 0.44290 0.09500
H 	H 	0.21700 0.58100 0.41470 -0.01100
C 	C 	0.16780 0.69940 0.53450 0.07100
C 	C 	0.17210 0.75900 0.60580 -0.11900
H 	H 	0.22010 0.78410 0.64910 0.08300
C 	C 	0.10360 0.77920 0.60960 -0.00200
H 	H 	0.10480 0.81860 0.65650 0.02800
C 	C 	0.03070 0.74130 0.54370 -0.03900
H 	H 	0.98460 0.75600 0.54840 0.04300
C 	C 	0.02640 0.68270 0.47190 -0.08200
H 	H 	0.97950 0.65900 0.42720 0.06200
C 	C 	0.09480 0.66200 0.47070 0.05400
O 	O 	0.64550 0.42450 0.18160 -0.41800
N 	N 	0.39530 0.50670 0.41160 -0.15800
N 	N 	0.33310 0.56060 0.51600 -0.22900
C 	C 	0.49200 0.45920 0.32960 -0.15000
H 	H 	0.49200 0.42750 0.38350 0.09700
C 	C 	0.44410 0.50560 0.32930 0.16700
C 	C 	0.38780 0.57850 0.44290 0.09500
H 	H 	0.41900 0.63600 0.41470 -0.01100
C 	C 	0.30060 0.46840 0.53450 0.07100
C 	C 	0.24100 0.41310 0.60580 -0.11900
H 	H 	0.21590 0.43600 0.64910 0.08300
C 	C 	0.22080 0.32440 0.60960 -0.00200
H 	H 	0.18140 0.28620 0.65650 0.02800
C 	C 	0.25870 0.28940 0.54370 -0.03900
H 	H 	0.24400 0.22860 0.54840 0.04400
C 	C 	0.31730 0.34370 0.47190 -0.08200
H 	H 	0.34100 0.32050 0.42720 0.06200
C 	C 	0.33800 0.43280 0.47070 0.05400
O 	O 	0.57550 0.22100 0.18160 -0.41800
N 	N 	0.49330 0.88860 0.41160 -0.15800
N 	N 	0.43940 0.77250 0.51600 -0.22900
C 	C 	0.54080 0.03280 0.32960 -0.15000
H 	H 	0.57250 0.06450 0.38350 0.09700
C 	C 	0.49440 0.93850 0.32930 0.16700
C 	C 	0.42150 0.80930 0.44290 0.09500
H 	H 	0.36400 0.78300 0.41470 -0.01100
C 	C 	0.53160 0.83220 0.53450 0.07100
C 	C 	0.58690 0.82790 0.60580 -0.11900
H 	H 	0.56400 0.77990 0.64910 0.08300
C 	C 	0.67560 0.89640 0.60960 -0.00200
H 	H 	0.71380 0.89520 0.65650 0.02800
C 	C 	0.71060 0.96930 0.54370 -0.03900
H 	H 	0.77140 0.01540 0.54840 0.04300
C 	C 	0.65630 0.97360 0.47190 -0.08200
H 	H 	0.67950 0.02050 0.42720 0.06300
C 	C 	0.56720 0.90520 0.47070 0.05400
O 	O 	0.64550 0.22100 0.31840 -0.41800
N 	N 	0.39530 0.88860 0.08840 -0.15800
N 	N 	0.33310 0.77250 0.98400 -0.22900
C 	C 	0.49200 0.03280 0.17040 -0.15000
H 	H 	0.49200 0.06450 0.11650 0.09700
C 	C 	0.44410 0.93850 0.17070 0.16700
C 	C 	0.38780 0.80930 0.05710 0.09400
H 	H 	0.41900 0.78300 0.08530 -0.01100
C 	C 	0.30060 0.83220 0.96550 0.07000
C 	C 	0.24100 0.82790 0.89420 -0.11700
H 	H 	0.21590 0.77990 0.85090 0.08200
C 	C 	0.22080 0.89640 0.89040 -0.00400
H 	H 	0.18140 0.89520 0.84350 0.02900
C 	C 	0.25870 0.96930 0.95630 -0.03500
H 	H 	0.24400 0.01540 0.95160 0.04200
C 	C 	0.31730 0.97360 0.02810 -0.08600
H 	H 	0.34100 0.02050 0.07280 0.06400
C 	C 	0.33800 0.90520 0.02930 0.05500
O 	O 	0.57550 0.35450 0.31840 -0.41800
N 	N 	0.49330 0.60470 0.08840 -0.15800
N 	N 	0.43940 0.66690 0.98400 -0.22900
C 	C 	0.54080 0.50800 0.17040 -0.15000
H 	H 	0.57250 0.50800 0.11650 0.09700
C 	C 	0.49440 0.55590 0.17070 0.16700
C 	C 	0.42150 0.61220 0.05710 0.09400
H 	H 	0.36400 0.58100 0.08530 -0.01100
C 	C 	0.53160 0.69940 0.96550 0.07100
C 	C 	0.58690 0.75900 0.89420 -0.11900
H 	H 	0.56400 0.78410 0.85090 0.08300
C 	C 	0.67560 0.77920 0.89040 -0.00200
H 	H 	0.71380 0.81860 0.84350 0.02800
C 	C 	0.71060 0.74130 0.95630 -0.03900
H 	H 	0.77140 0.75600 0.95160 0.04400
C 	C 	0.65630 0.68270 0.02810 -0.08200
H 	H 	0.67950 0.65900 0.07280 0.06200
C 	C 	0.56720 0.66200 0.02930 0.05400
O 	O 	0.77900 0.42450 0.31840 -0.41800
N 	N 	0.11140 0.50670 0.08840 -0.15800
N 	N 	0.22750 0.56060 0.98400 -0.22900
C 	C 	0.96720 0.45920 0.17040 -0.15000
H 	H 	0.93550 0.42750 0.11650 0.09700
C 	C 	0.06150 0.50560 0.17070 0.16700
C 	C 	0.19070 0.57850 0.05710 0.09400
H 	H 	0.21700 0.63600 0.08530 -0.01100
C 	C 	0.16780 0.46840 0.96550 0.07000
C 	C 	0.17210 0.41310 0.89420 -0.11800
H 	H 	0.22010 0.43600 0.85090 0.08200
C 	C 	0.10360 0.32440 0.89040 -0.00400
H 	H 	0.10480 0.28620 0.84350 0.02900
C 	C 	0.03070 0.28940 0.95630 -0.03600
H 	H 	0.98460 0.22860 0.95160 0.04200
C 	C 	0.02640 0.34370 0.02810 -0.08500
H 	H 	0.97950 0.32050 0.07280 0.06400
C 	C 	0.09480 0.43280 0.02930 0.05500
O 	O 	0.22100 0.64550 0.81840 -0.41800
N 	N 	0.88860 0.39530 0.58840 -0.15800
N 	N 	0.77250 0.33310 0.48400 -0.22900
C 	C 	0.03280 0.49200 0.67040 -0.15000
H 	H 	0.06450 0.49200 0.61650 0.09700
C 	C 	0.93850 0.44410 0.67070 0.16700
C 	C 	0.80930 0.38780 0.55710 0.09500
H 	H 	0.78300 0.41900 0.58530 -0.01100
C 	C 	0.83220 0.30060 0.46550 0.07100
C 	C 	0.82790 0.24100 0.39420 -0.11900
H 	H 	0.77990 0.21590 0.35090 0.08300
C 	C 	0.89640 0.22080 0.39040 -0.00200
H 	H 	0.89520 0.18140 0.34350 0.02800
C 	C 	0.96930 0.25870 0.45630 -0.03900
H 	H 	0.01540 0.24400 0.45160 0.04300
C 	C 	0.97360 0.31730 0.52810 -0.08200
H 	H 	0.02050 0.34100 0.57280 0.06200
C 	C 	0.90520 0.33800 0.52930 0.05400
O 	O 	0.35450 0.57550 0.81840 -0.41800
N 	N 	0.60470 0.49330 0.58840 -0.15800
N 	N 	0.66690 0.43940 0.48400 -0.22900
C 	C 	0.50800 0.54080 0.67040 -0.15000
H 	H 	0.50800 0.57250 0.61650 0.09700
C 	C 	0.55590 0.49440 0.67070 0.16700
C 	C 	0.61220 0.42150 0.55710 0.09500
H 	H 	0.58100 0.36400 0.58530 -0.01100
C 	C 	0.69940 0.53160 0.46550 0.07100
C 	C 	0.75900 0.58690 0.39420 -0.11900
H 	H 	0.78410 0.56400 0.35090 0.08300
C 	C 	0.77920 0.67560 0.39040 -0.00200
H 	H 	0.81860 0.71380 0.34350 0.02800
C 	C 	0.74130 0.71060 0.45630 -0.03900
H 	H 	0.75600 0.77140 0.45160 0.04400
C 	C 	0.68270 0.65630 0.52810 -0.08200
H 	H 	0.65900 0.67950 0.57280 0.06200
C 	C 	0.66200 0.56720 0.52930 0.05400
O 	O 	0.42450 0.77900 0.81840 -0.41800
N 	N 	0.50670 0.11140 0.58840 -0.15800
N 	N 	0.56060 0.22750 0.48400 -0.22900
C 	C 	0.45920 0.96720 0.67040 -0.15000
H 	H 	0.42750 0.93550 0.61650 0.09700
C 	C 	0.50560 0.06150 0.67070 0.16700
C 	C 	0.57850 0.19070 0.55710 0.09500
H 	H 	0.63600 0.21700 0.58530 -0.01100
C 	C 	0.46840 0.16780 0.46550 0.07100
C 	C 	0.41310 0.17210 0.39420 -0.11900
H 	H 	0.43600 0.22010 0.35090 0.08300
C 	C 	0.32440 0.10360 0.39040 -0.00200
H 	H 	0.28620 0.10480 0.34350 0.02800
C 	C 	0.28940 0.03070 0.45630 -0.03900
H 	H 	0.22860 0.98460 0.45160 0.04300
C 	C 	0.34370 0.02640 0.52810 -0.08200
H 	H 	0.32050 0.97950 0.57280 0.06300
C 	C 	0.43280 0.09480 0.52930 0.05400
O 	O 	0.35450 0.77900 0.68160 -0.41800
N 	N 	0.60470 0.11140 0.91160 -0.15800
N 	N 	0.66690 0.22750 0.01600 -0.22900
C 	C 	0.50800 0.96720 0.82960 -0.15000
H 	H 	0.50800 0.93550 0.88350 0.09700
C 	C 	0.55590 0.06150 0.82930 0.16700
C 	C 	0.61220 0.19070 0.94290 0.09400
H 	H 	0.58100 0.21700 0.91470 -0.01100
C 	C 	0.69940 0.16780 0.03450 0.07000
C 	C 	0.75900 0.17210 0.10580 -0.11700
H 	H 	0.78410 0.22010 0.14910 0.08200
C 	C 	0.77920 0.10360 0.10960 -0.00400
H 	H 	0.81860 0.10480 0.15650 0.02900
C 	C 	0.74130 0.03070 0.04370 -0.03500
H 	H 	0.75600 0.98460 0.04840 0.04200
C 	C 	0.68270 0.02640 0.97190 -0.08600
H 	H 	0.65900 0.97950 0.92720 0.06400
C 	C 	0.66200 0.09480 0.97070 0.05500
O 	O 	0.42450 0.64550 0.68160 -0.41800
N 	N 	0.50670 0.39530 0.91160 -0.15800
N 	N 	0.56060 0.33310 0.01600 -0.22900
C 	C 	0.45920 0.49200 0.82960 -0.15000
H 	H 	0.42750 0.49200 0.88350 0.09700
C 	C 	0.50560 0.44410 0.82930 0.16700
C 	C 	0.57850 0.38780 0.94290 0.09400
H 	H 	0.63600 0.41900 0.91470 -0.01100
C 	C 	0.46840 0.30060 0.03450 0.07100
C 	C 	0.41310 0.24100 0.10580 -0.11900
H 	H 	0.43600 0.21590 0.14910 0.08300
C 	C 	0.32440 0.22080 0.10960 -0.00200
H 	H 	0.28620 0.18140 0.15650 0.02800
C 	C 	0.28940 0.25870 0.04370 -0.03900
H 	H 	0.22860 0.24400 0.04840 0.04400
C 	C 	0.34370 0.31730 0.97190 -0.08200
H 	H 	0.32050 0.34100 0.92720 0.06200
C 	C 	0.43280 0.33800 0.97070 0.05400
O 	O 	0.22100 0.57550 0.68160 -0.41800
N 	N 	0.88860 0.49330 0.91160 -0.15800
N 	N 	0.77250 0.43940 0.01600 -0.22900
C 	C 	0.03280 0.54080 0.82960 -0.15000
H 	H 	0.06450 0.57250 0.88350 0.09700
C 	C 	0.93850 0.49440 0.82930 0.16700
C 	C 	0.80930 0.42150 0.94290 0.09400
H 	H 	0.78300 0.36400 0.91470 -0.01100
C 	C 	0.83220 0.53160 0.03450 0.07000
C 	C 	0.82790 0.58690 0.10580 -0.11800
H 	H 	0.77990 0.56400 0.14910 0.08200
C 	C 	0.89640 0.67560 0.10960 -0.00400
H 	H 	0.89520 0.71380 0.15650 0.02900
C 	C 	0.96930 0.71060 0.04370 -0.03600
H 	H 	0.01540 0.77140 0.04840 0.04200
C 	C 	0.97360 0.65630 0.97190 -0.08500
H 	H 	0.02050 0.67950 0.92720 0.06400
C 	C 	0.90520 0.56720 0.97070 0.05500
Co	Co	0.66667 0.33333 0.10379 1.16700
Co	Co	0.66667 0.33333 0.39621 1.16700
Co	Co	0.33333 0.66667 0.89621 1.16700
Co	Co	0.33333 0.66667 0.60379 1.16700
C 	C 	0.81690 0.40845 0.25000 0.32900
C 	C 	0.92000 0.46000 0.25000 0.01700
C 	C 	0.10870 0.55435 0.25000 -0.22100
H 	H 	0.17230 0.58615 0.25000 0.11200
C 	C 	0.59155 0.40845 0.25000 0.32900
C 	C 	0.54000 0.46000 0.25000 0.01800
C 	C 	0.44565 0.55435 0.25000 -0.22100
H 	H 	0.41385 0.58615 0.25000 0.11200
C 	C 	0.59155 0.18310 0.25000 0.32900
C 	C 	0.54000 0.08000 0.25000 0.01700
C 	C 	0.44565 0.89130 0.25000 -0.22100
H 	H 	0.41385 0.82770 0.25000 0.11200
C 	C 	0.18310 0.59155 0.75000 0.32900
C 	C 	0.08000 0.54000 0.75000 0.01700
C 	C 	0.89130 0.44565 0.75000 -0.22100
H 	H 	0.82770 0.41385 0.75000 0.11200
C 	C 	0.40845 0.59155 0.75000 0.32900
C 	C 	0.46000 0.54000 0.75000 0.01800
C 	C 	0.55435 0.44565 0.75000 -0.22100
H 	H 	0.58615 0.41385 0.75000 0.11200
C 	C 	0.40845 0.81690 0.75000 0.32900
C 	C 	0.46000 0.92000 0.75000 0.01700
C 	C 	0.55435 0.10870 0.75000 -0.22100
H 	H 	0.58615 0.17230 0.75000 0.11200
