data_crystal

_cell_length_a 17.03000
_cell_length_b 17.03000
_cell_length_c 13.90800
_cell_angle_alpha 90.00000
_cell_angle_beta  90.00000
_cell_angle_gamma 120.00000

_symmetry_space_group_name_	'P 1'
_symmetry_space_group_name_H-M	'P 1'

loop_
_symmetry_equiv_pos_as_xyz
  x,y,z

loop_
_atom_site_label
_atom_site_type_symbol
_atom_site_fract_x
_atom_site_fract_y
_atom_site_fract_z
_atom_site_charge
O 	O 	0.77800 0.35360 0.68089 -0.41500
N 	N 	0.10850 0.60310 0.91320 -0.15600
N 	N 	0.22740 0.66720 0.01480 -0.22600
C 	C 	0.96450 0.50660 0.83150 -0.15200
H 	H 	0.93300 0.50690 0.88600 0.09800
C 	C 	0.05790 0.55330 0.83030 0.16700
C 	C 	0.18810 0.60960 0.94180 0.08500
H 	H 	0.21250 0.57720 0.91340 -0.00800
C 	C 	0.16850 0.69990 0.03460 0.06900
C 	C 	0.17570 0.76190 0.10430 -0.11600
H 	H 	0.22430 0.78780 0.14690 0.08300
C 	C 	0.10770 0.78290 0.10730 -0.00700
H 	H 	0.11020 0.82370 0.15340 0.03000
C 	C 	0.03500 0.74480 0.04310 -0.03200
H 	H 	0.99060 0.76130 0.04720 0.04000
C 	C 	0.02700 0.68340 0.97360 -0.08900
H 	H 	0.97890 0.65860 0.93040 0.06500
C 	C 	0.09420 0.66080 0.97160 0.05900
O 	O 	0.64640 0.42440 0.68089 -0.41500
N 	N 	0.39690 0.50540 0.91320 -0.15600
N 	N 	0.33280 0.56020 0.01480 -0.22600
C 	C 	0.49340 0.45790 0.83150 -0.15200
H 	H 	0.49310 0.42610 0.88600 0.09800
C 	C 	0.44670 0.50460 0.83030 0.16800
C 	C 	0.39040 0.57850 0.94180 0.08500
H 	H 	0.42280 0.63530 0.91340 -0.00800
C 	C 	0.30010 0.46860 0.03460 0.07000
C 	C 	0.23810 0.41380 0.10430 -0.11800
H 	H 	0.21220 0.43650 0.14690 0.08400
C 	C 	0.21710 0.32480 0.10730 -0.00400
H 	H 	0.17630 0.28650 0.15340 0.02900
C 	C 	0.25520 0.29020 0.04310 -0.03600
H 	H 	0.23870 0.22930 0.04720 0.04200
C 	C 	0.31660 0.34360 0.97360 -0.08500
H 	H 	0.34140 0.32030 0.93040 0.06300
C 	C 	0.33920 0.43340 0.97160 0.05700
O 	O 	0.57560 0.22200 0.68089 -0.41500
N 	N 	0.49460 0.89150 0.91320 -0.15600
N 	N 	0.43980 0.77260 0.01480 -0.22600
C 	C 	0.54210 0.03550 0.83150 -0.15200
H 	H 	0.57390 0.06700 0.88600 0.09800
C 	C 	0.49540 0.94210 0.83030 0.16700
C 	C 	0.42150 0.81190 0.94180 0.08500
H 	H 	0.36470 0.78750 0.91340 -0.00800
C 	C 	0.53140 0.83150 0.03460 0.06900
C 	C 	0.58620 0.82430 0.10430 -0.11700
H 	H 	0.56350 0.77570 0.14690 0.08300
C 	C 	0.67520 0.89230 0.10730 -0.00600
H 	H 	0.71350 0.88980 0.15340 0.03000
C 	C 	0.70980 0.96500 0.04310 -0.03300
H 	H 	0.77070 0.00940 0.04720 0.04100
C 	C 	0.65640 0.97300 0.97360 -0.08800
H 	H 	0.67970 0.02110 0.93040 0.06500
C 	C 	0.56660 0.90580 0.97160 0.05800
O 	O 	0.64640 0.22200 0.81911 -0.41500
N 	N 	0.39690 0.89150 0.58680 -0.15600
N 	N 	0.33280 0.77260 0.48520 -0.22600
C 	C 	0.49340 0.03550 0.66850 -0.15200
H 	H 	0.49310 0.06700 0.61400 0.09800
C 	C 	0.44670 0.94210 0.66970 0.16700
C 	C 	0.39040 0.81190 0.55820 0.08500
H 	H 	0.42280 0.78750 0.58660 -0.00800
C 	C 	0.30010 0.83150 0.46540 0.07000
C 	C 	0.23810 0.82430 0.39570 -0.11800
H 	H 	0.21220 0.77570 0.35310 0.08300
C 	C 	0.21710 0.89230 0.39270 -0.00400
H 	H 	0.17630 0.88980 0.34660 0.02900
C 	C 	0.25520 0.96500 0.45690 -0.03600
H 	H 	0.23870 0.00940 0.45280 0.04200
C 	C 	0.31660 0.97300 0.52640 -0.08500
H 	H 	0.34140 0.02110 0.56960 0.06300
C 	C 	0.33920 0.90580 0.52840 0.05800
O 	O 	0.57560 0.35360 0.81911 -0.41500
N 	N 	0.49460 0.60310 0.58680 -0.15600
N 	N 	0.43980 0.66720 0.48520 -0.22600
C 	C 	0.54210 0.50660 0.66850 -0.15200
H 	H 	0.57390 0.50690 0.61400 0.09800
C 	C 	0.49540 0.55330 0.66970 0.16800
C 	C 	0.42150 0.60960 0.55820 0.08500
H 	H 	0.36470 0.57720 0.58660 -0.00800
C 	C 	0.53140 0.69990 0.46540 0.07000
C 	C 	0.58620 0.76190 0.39570 -0.11800
H 	H 	0.56350 0.78780 0.35310 0.08400
C 	C 	0.67520 0.78290 0.39270 -0.00400
H 	H 	0.71350 0.82370 0.34660 0.02900
C 	C 	0.70980 0.74480 0.45690 -0.03600
H 	H 	0.77070 0.76130 0.45280 0.04200
C 	C 	0.65640 0.68340 0.52640 -0.08500
H 	H 	0.67970 0.65860 0.56960 0.06300
C 	C 	0.56660 0.66080 0.52840 0.05800
O 	O 	0.77800 0.42440 0.81911 -0.41500
N 	N 	0.10850 0.50540 0.58680 -0.15600
N 	N 	0.22740 0.56020 0.48520 -0.22600
C 	C 	0.96450 0.45790 0.66850 -0.15200
H 	H 	0.93300 0.42610 0.61400 0.09800
C 	C 	0.05790 0.50460 0.66970 0.16700
C 	C 	0.18810 0.57850 0.55820 0.08500
H 	H 	0.21250 0.63530 0.58660 -0.00800
C 	C 	0.16850 0.46860 0.46540 0.07000
C 	C 	0.17570 0.41380 0.39570 -0.11800
H 	H 	0.22430 0.43650 0.35310 0.08300
C 	C 	0.10770 0.32480 0.39270 -0.00400
H 	H 	0.11020 0.28650 0.34660 0.02900
C 	C 	0.03500 0.29020 0.45690 -0.03600
H 	H 	0.99060 0.22930 0.45280 0.04200
C 	C 	0.02700 0.34360 0.52640 -0.08500
H 	H 	0.97890 0.32030 0.56960 0.06300
C 	C 	0.09420 0.43340 0.52840 0.05800
O 	O 	0.22200 0.64640 0.31911 -0.41500
N 	N 	0.89150 0.39690 0.08680 -0.15600
N 	N 	0.77260 0.33280 0.98520 -0.22600
C 	C 	0.03550 0.49340 0.16850 -0.15200
H 	H 	0.06700 0.49310 0.11400 0.09800
C 	C 	0.94210 0.44670 0.16970 0.16700
C 	C 	0.81190 0.39040 0.05820 0.08500
H 	H 	0.78750 0.42280 0.08660 -0.00800
C 	C 	0.83150 0.30010 0.96540 0.06900
C 	C 	0.82430 0.23810 0.89570 -0.11600
H 	H 	0.77570 0.21220 0.85310 0.08300
C 	C 	0.89230 0.21710 0.89270 -0.00700
H 	H 	0.88980 0.17630 0.84660 0.03000
C 	C 	0.96500 0.25520 0.95690 -0.03200
H 	H 	0.00940 0.23870 0.95280 0.04000
C 	C 	0.97300 0.31660 0.02640 -0.08900
H 	H 	0.02110 0.34140 0.06960 0.06500
C 	C 	0.90580 0.33920 0.02840 0.05900
O 	O 	0.35360 0.57560 0.31911 -0.41500
N 	N 	0.60310 0.49460 0.08680 -0.15600
N 	N 	0.66720 0.43980 0.98520 -0.22600
C 	C 	0.50660 0.54210 0.16850 -0.15200
H 	H 	0.50690 0.57390 0.11400 0.09800
C 	C 	0.55330 0.49540 0.16970 0.16800
C 	C 	0.60960 0.42150 0.05820 0.08500
H 	H 	0.57720 0.36470 0.08660 -0.00800
C 	C 	0.69990 0.53140 0.96540 0.07000
C 	C 	0.76190 0.58620 0.89570 -0.11800
H 	H 	0.78780 0.56350 0.85310 0.08400
C 	C 	0.78290 0.67520 0.89270 -0.00400
H 	H 	0.82370 0.71350 0.84660 0.02900
C 	C 	0.74480 0.70980 0.95690 -0.03600
H 	H 	0.76130 0.77070 0.95280 0.04200
C 	C 	0.68340 0.65640 0.02640 -0.08500
H 	H 	0.65860 0.67970 0.06960 0.06300
C 	C 	0.66080 0.56660 0.02840 0.05700
O 	O 	0.42440 0.77800 0.31911 -0.41500
N 	N 	0.50540 0.10850 0.08680 -0.15600
N 	N 	0.56020 0.22740 0.98520 -0.22600
C 	C 	0.45790 0.96450 0.16850 -0.15200
H 	H 	0.42610 0.93300 0.11400 0.09800
C 	C 	0.50460 0.05790 0.16970 0.16700
C 	C 	0.57850 0.18810 0.05820 0.08500
H 	H 	0.63530 0.21250 0.08660 -0.00800
C 	C 	0.46860 0.16850 0.96540 0.06900
C 	C 	0.41380 0.17570 0.89570 -0.11700
H 	H 	0.43650 0.22430 0.85310 0.08300
C 	C 	0.32480 0.10770 0.89270 -0.00600
H 	H 	0.28650 0.11020 0.84660 0.03000
C 	C 	0.29020 0.03500 0.95690 -0.03300
H 	H 	0.22930 0.99060 0.95280 0.04100
C 	C 	0.34360 0.02700 0.02640 -0.08800
H 	H 	0.32030 0.97890 0.06960 0.06500
C 	C 	0.43340 0.09420 0.02840 0.05800
O 	O 	0.35360 0.77800 0.18089 -0.41500
N 	N 	0.60310 0.10850 0.41320 -0.15600
N 	N 	0.66720 0.22740 0.51480 -0.22600
C 	C 	0.50660 0.96450 0.33150 -0.15200
H 	H 	0.50690 0.93300 0.38600 0.09800
C 	C 	0.55330 0.05790 0.33030 0.16700
C 	C 	0.60960 0.18810 0.44180 0.08500
H 	H 	0.57720 0.21250 0.41340 -0.00800
C 	C 	0.69990 0.16850 0.53460 0.07000
C 	C 	0.76190 0.17570 0.60430 -0.11800
H 	H 	0.78780 0.22430 0.64690 0.08300
C 	C 	0.78290 0.10770 0.60730 -0.00400
H 	H 	0.82370 0.11020 0.65340 0.02900
C 	C 	0.74480 0.03500 0.54310 -0.03600
H 	H 	0.76130 0.99060 0.54720 0.04200
C 	C 	0.68340 0.02700 0.47360 -0.08500
H 	H 	0.65860 0.97890 0.43040 0.06300
C 	C 	0.66080 0.09420 0.47160 0.05800
O 	O 	0.42440 0.64640 0.18089 -0.41500
N 	N 	0.50540 0.39690 0.41320 -0.15600
N 	N 	0.56020 0.33280 0.51480 -0.22600
C 	C 	0.45790 0.49340 0.33150 -0.15200
H 	H 	0.42610 0.49310 0.38600 0.09800
C 	C 	0.50460 0.44670 0.33030 0.16800
C 	C 	0.57850 0.39040 0.44180 0.08500
H 	H 	0.63530 0.42280 0.41340 -0.00800
C 	C 	0.46860 0.30010 0.53460 0.07000
C 	C 	0.41380 0.23810 0.60430 -0.11800
H 	H 	0.43650 0.21220 0.64690 0.08400
C 	C 	0.32480 0.21710 0.60730 -0.00400
H 	H 	0.28650 0.17630 0.65340 0.02900
C 	C 	0.29020 0.25520 0.54310 -0.03600
H 	H 	0.22930 0.23870 0.54720 0.04200
C 	C 	0.34360 0.31660 0.47360 -0.08500
H 	H 	0.32030 0.34140 0.43040 0.06300
C 	C 	0.43340 0.33920 0.47160 0.05800
O 	O 	0.22200 0.57560 0.18089 -0.41500
N 	N 	0.89150 0.49460 0.41320 -0.15600
N 	N 	0.77260 0.43980 0.51480 -0.22600
C 	C 	0.03550 0.54210 0.33150 -0.15200
H 	H 	0.06700 0.57390 0.38600 0.09800
C 	C 	0.94210 0.49540 0.33030 0.16700
C 	C 	0.81190 0.42150 0.44180 0.08500
H 	H 	0.78750 0.36470 0.41340 -0.00800
C 	C 	0.83150 0.53140 0.53460 0.07000
C 	C 	0.82430 0.58620 0.60430 -0.11800
H 	H 	0.77570 0.56350 0.64690 0.08300
C 	C 	0.89230 0.67520 0.60730 -0.00400
H 	H 	0.88980 0.71350 0.65340 0.02900
C 	C 	0.96500 0.70980 0.54310 -0.03600
H 	H 	0.00940 0.77070 0.54720 0.04200
C 	C 	0.97300 0.65640 0.47360 -0.08500
H 	H 	0.02110 0.67970 0.43040 0.06300
C 	C 	0.90580 0.56660 0.47160 0.05800
Co	Co	0.66667 0.33333 0.60202 1.16500
Co	Co	0.66667 0.33333 0.89798 1.16500
Co	Co	0.33333 0.66667 0.39798 1.16500
Co	Co	0.33333 0.66667 0.10202 1.16500
C 	C 	0.81560 0.40780 0.75000 0.32300
C 	C 	0.91820 0.45910 0.75000 0.01900
C 	C 	0.10500 0.55250 0.75000 -0.22300
H 	H 	0.16800 0.58400 0.75000 0.11300
C 	C 	0.59220 0.40780 0.75000 0.32300
C 	C 	0.54090 0.45910 0.75000 0.02000
C 	C 	0.44750 0.55250 0.75000 -0.22300
H 	H 	0.41600 0.58400 0.75000 0.11300
C 	C 	0.59220 0.18440 0.75000 0.32300
C 	C 	0.54090 0.08180 0.75000 0.01900
C 	C 	0.44750 0.89500 0.75000 -0.22300
H 	H 	0.41600 0.83200 0.75000 0.11300
C 	C 	0.18440 0.59220 0.25000 0.32300
C 	C 	0.08180 0.54090 0.25000 0.01900
C 	C 	0.89500 0.44750 0.25000 -0.22300
H 	H 	0.83200 0.41600 0.25000 0.11300
C 	C 	0.40780 0.59220 0.25000 0.32300
C 	C 	0.45910 0.54090 0.25000 0.02000
C 	C 	0.55250 0.44750 0.25000 -0.22300
H 	H 	0.58400 0.41600 0.25000 0.11300
C 	C 	0.40780 0.81560 0.25000 0.32300
C 	C 	0.45910 0.91820 0.25000 0.01900
C 	C 	0.55250 0.10500 0.25000 -0.22300
H 	H 	0.58400 0.16800 0.25000 0.11300
