data_crystal

_cell_length_a 17.08800
_cell_length_b 17.08800
_cell_length_c 13.89200
_cell_angle_alpha 90.00000
_cell_angle_beta  90.00000
_cell_angle_gamma 120.00000

_symmetry_space_group_name_	'P 1'
_symmetry_space_group_name_H-M	'P 1'

loop_
_symmetry_equiv_pos_as_xyz
  x,y,z

loop_
_atom_site_label
_atom_site_type_symbol
_atom_site_fract_x
_atom_site_fract_y
_atom_site_fract_z
_atom_site_charge
O 	O 	0.64606 0.42389 0.18110 -0.41600
N 	N 	0.39744 0.50614 0.41327 -0.15700
N 	N 	0.33374 0.56034 0.51429 -0.22900
C 	C 	0.49410 0.45880 0.33182 -0.14800
H 	H 	0.49440 0.42790 0.38680 0.09600
C 	C 	0.44740 0.50460 0.33072 0.16200
C 	C 	0.39060 0.57830 0.44247 0.09200
H 	H 	0.42310 0.63510 0.41440 -0.01100
C 	C 	0.30150 0.46960 0.53488 0.07100
C 	C 	0.23890 0.41390 0.60370 -0.11900
H 	H 	0.21210 0.43600 0.64570 0.08300
C 	C 	0.21840 0.32570 0.60700 -0.00200
H 	H 	0.17740 0.28760 0.65290 0.02800
C 	C 	0.25720 0.29080 0.54320 -0.03800
H 	H 	0.24110 0.23020 0.54740 0.04300
C 	C 	0.31870 0.34470 0.47450 -0.08200
H 	H 	0.34460 0.32210 0.43200 0.06200
C 	C 	0.34000 0.43390 0.47197 0.05500
O 	O 	0.57611 0.22217 0.18110 -0.41500
N 	N 	0.49386 0.89130 0.41327 -0.15600
N 	N 	0.43966 0.77340 0.51429 -0.22800
C 	C 	0.54120 0.03530 0.33182 -0.14600
H 	H 	0.57210 0.06650 0.38680 0.09500
C 	C 	0.49540 0.94280 0.33072 0.16200
C 	C 	0.42170 0.81230 0.44247 0.09200
H 	H 	0.36490 0.78800 0.41440 -0.01100
C 	C 	0.53040 0.83190 0.53488 0.07100
C 	C 	0.58610 0.82500 0.60370 -0.11900
H 	H 	0.56400 0.77610 0.64570 0.08300
C 	C 	0.67430 0.89270 0.60700 -0.00200
H 	H 	0.71240 0.88980 0.65290 0.02900
C 	C 	0.70920 0.96640 0.54320 -0.03800
H 	H 	0.76980 0.01090 0.54740 0.04300
C 	C 	0.65530 0.97400 0.47450 -0.08200
H 	H 	0.67790 0.02250 0.43200 0.06300
C 	C 	0.56610 0.90610 0.47197 0.05500
O 	O 	0.77783 0.35394 0.18110 -0.41500
N 	N 	0.10870 0.60256 0.41327 -0.15600
N 	N 	0.22660 0.66626 0.51429 -0.22800
C 	C 	0.96470 0.50590 0.33182 -0.14600
H 	H 	0.93350 0.50560 0.38680 0.09500
C 	C 	0.05720 0.55260 0.33072 0.16200
C 	C 	0.18770 0.60940 0.44247 0.09200
H 	H 	0.21200 0.57690 0.41440 -0.01100
C 	C 	0.16810 0.69850 0.53488 0.07100
C 	C 	0.17500 0.76110 0.60370 -0.11900
H 	H 	0.22390 0.78790 0.64570 0.08300
C 	C 	0.10730 0.78160 0.60700 -0.00200
H 	H 	0.11020 0.82260 0.65290 0.02900
C 	C 	0.03360 0.74280 0.54320 -0.03800
H 	H 	0.98910 0.75890 0.54740 0.04300
C 	C 	0.02600 0.68130 0.47450 -0.08200
H 	H 	0.97750 0.65540 0.43200 0.06300
C 	C 	0.09390 0.66000 0.47197 0.05500
O 	O 	0.57611 0.35394 0.31890 -0.41500
N 	N 	0.49386 0.60256 0.08673 -0.15600
N 	N 	0.43966 0.66626 0.98571 -0.22800
C 	C 	0.54120 0.50590 0.16818 -0.14700
H 	H 	0.57210 0.50560 0.11320 0.09600
C 	C 	0.49540 0.55260 0.16928 0.16200
C 	C 	0.42170 0.60940 0.05753 0.09100
H 	H 	0.36490 0.57690 0.08560 -0.01100
C 	C 	0.53040 0.69850 0.96512 0.07100
C 	C 	0.58610 0.76110 0.89630 -0.11900
H 	H 	0.56400 0.78790 0.85430 0.08300
C 	C 	0.67430 0.78160 0.89300 -0.00200
H 	H 	0.71240 0.82260 0.84710 0.02800
C 	C 	0.70920 0.74280 0.95680 -0.03800
H 	H 	0.76980 0.75890 0.95260 0.04300
C 	C 	0.65530 0.68130 0.02550 -0.08200
H 	H 	0.67790 0.65540 0.06800 0.06200
C 	C 	0.56610 0.66000 0.02803 0.05500
O 	O 	0.77783 0.42389 0.31890 -0.41500
N 	N 	0.10870 0.50614 0.08673 -0.15600
N 	N 	0.22660 0.56034 0.98571 -0.22700
C 	C 	0.96470 0.45880 0.16818 -0.14600
H 	H 	0.93350 0.42790 0.11320 0.09500
C 	C 	0.05720 0.50460 0.16928 0.16200
C 	C 	0.18770 0.57830 0.05753 0.09100
H 	H 	0.21200 0.63510 0.08560 -0.01100
C 	C 	0.16810 0.46960 0.96512 0.07100
C 	C 	0.17500 0.41390 0.89630 -0.11800
H 	H 	0.22390 0.43600 0.85430 0.08300
C 	C 	0.10730 0.32570 0.89300 -0.00400
H 	H 	0.11020 0.28760 0.84710 0.02900
C 	C 	0.03360 0.29080 0.95680 -0.03500
H 	H 	0.98910 0.23020 0.95260 0.04100
C 	C 	0.02600 0.34470 0.02550 -0.08500
H 	H 	0.97750 0.32210 0.06800 0.06400
C 	C 	0.09390 0.43390 0.02803 0.05600
O 	O 	0.64606 0.22217 0.31890 -0.41500
N 	N 	0.39744 0.89130 0.08673 -0.15600
N 	N 	0.33374 0.77340 0.98571 -0.22700
C 	C 	0.49410 0.03530 0.16818 -0.14600
H 	H 	0.49440 0.06650 0.11320 0.09500
C 	C 	0.44740 0.94280 0.16928 0.16200
C 	C 	0.39060 0.81230 0.05753 0.09100
H 	H 	0.42310 0.78800 0.08560 -0.01100
C 	C 	0.30150 0.83190 0.96512 0.07100
C 	C 	0.23890 0.82500 0.89630 -0.11800
H 	H 	0.21210 0.77610 0.85430 0.08300
C 	C 	0.21840 0.89270 0.89300 -0.00500
H 	H 	0.17740 0.88980 0.84710 0.03000
C 	C 	0.25720 0.96640 0.95680 -0.03400
H 	H 	0.24110 0.01090 0.95260 0.04100
C 	C 	0.31870 0.97400 0.02550 -0.08600
H 	H 	0.34460 0.02250 0.06800 0.06400
C 	C 	0.34000 0.90610 0.02803 0.05600
O 	O 	0.35394 0.57611 0.81890 -0.41500
N 	N 	0.60256 0.49386 0.58673 -0.15600
N 	N 	0.66626 0.43966 0.48571 -0.22800
C 	C 	0.50590 0.54120 0.66818 -0.14700
H 	H 	0.50560 0.57210 0.61320 0.09600
C 	C 	0.55260 0.49540 0.66928 0.16200
C 	C 	0.60940 0.42170 0.55753 0.09200
H 	H 	0.57690 0.36490 0.58560 -0.01100
C 	C 	0.69850 0.53040 0.46512 0.07100
C 	C 	0.76110 0.58610 0.39630 -0.11900
H 	H 	0.78790 0.56400 0.35430 0.08300
C 	C 	0.78160 0.67430 0.39300 -0.00200
H 	H 	0.82260 0.71240 0.34710 0.02800
C 	C 	0.74280 0.70920 0.45680 -0.03800
H 	H 	0.75890 0.76980 0.45260 0.04300
C 	C 	0.68130 0.65530 0.52550 -0.08200
H 	H 	0.65540 0.67790 0.56800 0.06200
C 	C 	0.66000 0.56610 0.52803 0.05500
O 	O 	0.42389 0.77783 0.81890 -0.41500
N 	N 	0.50614 0.10870 0.58673 -0.15600
N 	N 	0.56034 0.22660 0.48571 -0.22800
C 	C 	0.45880 0.96470 0.66818 -0.14600
H 	H 	0.42790 0.93350 0.61320 0.09500
C 	C 	0.50460 0.05720 0.66928 0.16200
C 	C 	0.57830 0.18770 0.55753 0.09200
H 	H 	0.63510 0.21200 0.58560 -0.01100
C 	C 	0.46960 0.16810 0.46512 0.07100
C 	C 	0.41390 0.17500 0.39630 -0.11900
H 	H 	0.43600 0.22390 0.35430 0.08300
C 	C 	0.32570 0.10730 0.39300 -0.00200
H 	H 	0.28760 0.11020 0.34710 0.02900
C 	C 	0.29080 0.03360 0.45680 -0.03800
H 	H 	0.23020 0.98910 0.45260 0.04300
C 	C 	0.34470 0.02600 0.52550 -0.08200
H 	H 	0.32210 0.97750 0.56800 0.06300
C 	C 	0.43390 0.09390 0.52803 0.05500
O 	O 	0.22217 0.64606 0.81890 -0.41500
N 	N 	0.89130 0.39744 0.58673 -0.15600
N 	N 	0.77340 0.33374 0.48571 -0.22800
C 	C 	0.03530 0.49410 0.66818 -0.14600
H 	H 	0.06650 0.49440 0.61320 0.09500
C 	C 	0.94280 0.44740 0.66928 0.16200
C 	C 	0.81230 0.39060 0.55753 0.09200
H 	H 	0.78800 0.42310 0.58560 -0.01100
C 	C 	0.83190 0.30150 0.46512 0.07100
C 	C 	0.82500 0.23890 0.39630 -0.11900
H 	H 	0.77610 0.21210 0.35430 0.08300
C 	C 	0.89270 0.21840 0.39300 -0.00200
H 	H 	0.88980 0.17740 0.34710 0.02900
C 	C 	0.96640 0.25720 0.45680 -0.03800
H 	H 	0.01090 0.24110 0.45260 0.04300
C 	C 	0.97400 0.31870 0.52550 -0.08200
H 	H 	0.02250 0.34460 0.56800 0.06300
C 	C 	0.90610 0.34000 0.52803 0.05500
O 	O 	0.42389 0.64606 0.68110 -0.41500
N 	N 	0.50614 0.39744 0.91327 -0.15600
N 	N 	0.56034 0.33374 0.01429 -0.22800
C 	C 	0.45880 0.49410 0.83182 -0.14700
H 	H 	0.42790 0.49440 0.88680 0.09600
C 	C 	0.50460 0.44740 0.83072 0.16200
C 	C 	0.57830 0.39060 0.94247 0.09100
H 	H 	0.63510 0.42310 0.91440 -0.01100
C 	C 	0.46960 0.30150 0.03488 0.07100
C 	C 	0.41390 0.23890 0.10370 -0.11900
H 	H 	0.43600 0.21210 0.14570 0.08300
C 	C 	0.32570 0.21840 0.10700 -0.00200
H 	H 	0.28760 0.17740 0.15290 0.02800
C 	C 	0.29080 0.25720 0.04320 -0.03800
H 	H 	0.23020 0.24110 0.04740 0.04300
C 	C 	0.34470 0.31870 0.97450 -0.08200
H 	H 	0.32210 0.34460 0.93200 0.06200
C 	C 	0.43390 0.34000 0.97197 0.05500
O 	O 	0.22217 0.57611 0.68110 -0.41500
N 	N 	0.89130 0.49386 0.91327 -0.15600
N 	N 	0.77340 0.43966 0.01429 -0.22700
C 	C 	0.03530 0.54120 0.83182 -0.14600
H 	H 	0.06650 0.57210 0.88680 0.09500
C 	C 	0.94280 0.49540 0.83072 0.16200
C 	C 	0.81230 0.42170 0.94247 0.09100
H 	H 	0.78800 0.36490 0.91440 -0.01100
C 	C 	0.83190 0.53040 0.03488 0.07100
C 	C 	0.82500 0.58610 0.10370 -0.11800
H 	H 	0.77610 0.56400 0.14570 0.08300
C 	C 	0.89270 0.67430 0.10700 -0.00400
H 	H 	0.88980 0.71240 0.15290 0.02900
C 	C 	0.96640 0.70920 0.04320 -0.03500
H 	H 	0.01090 0.76980 0.04740 0.04100
C 	C 	0.97400 0.65530 0.97450 -0.08500
H 	H 	0.02250 0.67790 0.93200 0.06400
C 	C 	0.90610 0.56610 0.97197 0.05600
O 	O 	0.35394 0.77783 0.68110 -0.41500
N 	N 	0.60256 0.10870 0.91327 -0.15600
N 	N 	0.66626 0.22660 0.01429 -0.22700
C 	C 	0.50590 0.96470 0.83182 -0.14600
H 	H 	0.50560 0.93350 0.88680 0.09500
C 	C 	0.55260 0.05720 0.83072 0.16200
C 	C 	0.60940 0.18770 0.94247 0.09100
H 	H 	0.57690 0.21200 0.91440 -0.01100
C 	C 	0.69850 0.16810 0.03488 0.07100
C 	C 	0.76110 0.17500 0.10370 -0.11800
H 	H 	0.78790 0.22390 0.14570 0.08300
C 	C 	0.78160 0.10730 0.10700 -0.00500
H 	H 	0.82260 0.11020 0.15290 0.03000
C 	C 	0.74280 0.03360 0.04320 -0.03400
H 	H 	0.75890 0.98910 0.04740 0.04100
C 	C 	0.68130 0.02600 0.97450 -0.08600
H 	H 	0.65540 0.97750 0.93200 0.06400
C 	C 	0.66000 0.09390 0.97197 0.05600
Co	Co	0.66667 0.33333 0.10186 1.16400
Co	Co	0.66667 0.33333 0.39814 1.16400
Co	Co	0.33333 0.66667 0.89814 1.16400
Co	Co	0.33333 0.66667 0.60186 1.16400
C 	C 	0.59194 0.40806 0.25000 0.32700
C 	C 	0.54122 0.45878 0.25000 0.01200
C 	C 	0.44742 0.55258 0.25000 -0.21400
H 	H 	0.41600 0.58400 0.25000 0.11000
C 	C 	0.59194 0.18388 0.25000 0.32800
C 	C 	0.54122 0.08244 0.25000 0.01100
C 	C 	0.44742 0.89484 0.25000 -0.21400
H 	H 	0.41600 0.83200 0.25000 0.11000
C 	C 	0.81612 0.40806 0.25000 0.32800
C 	C 	0.91756 0.45878 0.25000 0.01100
C 	C 	0.10516 0.55258 0.25000 -0.21400
H 	H 	0.16800 0.58400 0.25000 0.11000
C 	C 	0.40806 0.59194 0.75000 0.32700
C 	C 	0.45878 0.54122 0.75000 0.01200
C 	C 	0.55258 0.44742 0.75000 -0.21400
H 	H 	0.58400 0.41600 0.75000 0.11000
C 	C 	0.40806 0.81612 0.75000 0.32800
C 	C 	0.45878 0.91756 0.75000 0.01100
C 	C 	0.55258 0.10516 0.75000 -0.21400
H 	H 	0.58400 0.16800 0.75000 0.11000
C 	C 	0.18388 0.59194 0.75000 0.32800
C 	C 	0.08244 0.54122 0.75000 0.01100
C 	C 	0.89484 0.44742 0.75000 -0.21400
H 	H 	0.83200 0.41600 0.75000 0.11000
