data_crystal

_cell_length_a 17.10700
_cell_length_b 17.10700
_cell_length_c 14.13300
_cell_angle_alpha 90.00000
_cell_angle_beta  90.00000
_cell_angle_gamma 120.00000

_symmetry_space_group_name_	'P 1'
_symmetry_space_group_name_H-M	'P 1'

loop_
_symmetry_equiv_pos_as_xyz
  x,y,z

loop_
_atom_site_label
_atom_site_type_symbol
_atom_site_fract_x
_atom_site_fract_y
_atom_site_fract_z
_atom_site_charge
O 	O 	0.78340 0.42690 0.18280 -0.44400
N 	N 	0.11250 0.50310 0.40800 -0.15700
N 	N 	0.22600 0.55690 0.51190 -0.23400
C 	C 	0.96960 0.45790 0.32920 -0.15000
H 	H 	0.93830 0.42470 0.38210 0.09800
C 	C 	0.06240 0.50420 0.32770 0.16800
C 	C 	0.18820 0.57570 0.44210 0.09600
H 	H 	0.21100 0.63360 0.41790 -0.01300
C 	C 	0.10020 0.42890 0.46060 0.05900
C 	C 	0.03900 0.33730 0.45400 -0.08500
H 	H 	0.99210 0.31470 0.41020 0.06400
C 	C 	0.05050 0.28150 0.51500 -0.03100
H 	H 	0.01150 0.21950 0.51110 0.04000
C 	C 	0.11980 0.31550 0.58360 -0.00900
H 	H 	0.12400 0.27610 0.62580 0.03100
C 	C 	0.18150 0.40700 0.58860 -0.11400
H 	H 	0.22810 0.42940 0.63270 0.07900
C 	C 	0.17230 0.46430 0.52630 0.06800
O 	O 	0.57310 0.35650 0.18280 -0.44400
N 	N 	0.49690 0.60940 0.40800 -0.15700
N 	N 	0.44310 0.66910 0.51190 -0.23300
C 	C 	0.54210 0.51170 0.32920 -0.15000
H 	H 	0.57530 0.51360 0.38210 0.09800
C 	C 	0.49580 0.55820 0.32770 0.16800
C 	C 	0.42430 0.61250 0.44210 0.09500
H 	H 	0.36640 0.57740 0.41790 -0.01400
C 	C 	0.57110 0.67130 0.46060 0.05800
C 	C 	0.66270 0.70170 0.45400 -0.08600
H 	H 	0.68530 0.67740 0.41020 0.06300
C 	C 	0.71850 0.76900 0.51500 -0.03200
H 	H 	0.78050 0.79200 0.51110 0.03900
C 	C 	0.68450 0.80430 0.58360 -0.01000
H 	H 	0.72390 0.84790 0.62580 0.03000
C 	C 	0.59300 0.77450 0.58860 -0.11500
H 	H 	0.57060 0.79870 0.63270 0.07800
C 	C 	0.53570 0.70800 0.52630 0.06700
O 	O 	0.64350 0.21660 0.18280 -0.44500
N 	N 	0.39060 0.88750 0.40800 -0.15800
N 	N 	0.33090 0.77400 0.51190 -0.23500
C 	C 	0.48830 0.03040 0.32920 -0.15100
H 	H 	0.48640 0.06170 0.38210 0.09700
C 	C 	0.44180 0.93760 0.32770 0.16700
C 	C 	0.38750 0.81180 0.44210 0.09500
H 	H 	0.42260 0.78900 0.41790 -0.01400
C 	C 	0.32870 0.89980 0.46060 0.05800
C 	C 	0.29830 0.96100 0.45400 -0.08600
H 	H 	0.32260 0.00790 0.41020 0.06300
C 	C 	0.23100 0.94950 0.51500 -0.03200
H 	H 	0.20800 0.98850 0.51110 0.03900
C 	C 	0.19570 0.88020 0.58360 -0.01000
H 	H 	0.15210 0.87600 0.62580 0.03000
C 	C 	0.22550 0.81850 0.58860 -0.11500
H 	H 	0.20130 0.77190 0.63270 0.07800
C 	C 	0.29200 0.82770 0.52630 0.06700
O 	O 	0.57310 0.21660 0.31720 -0.44500
N 	N 	0.49690 0.88750 0.09200 -0.15800
N 	N 	0.44310 0.77400 0.98810 -0.23400
C 	C 	0.54210 0.03040 0.17080 -0.15100
H 	H 	0.57530 0.06170 0.11790 0.09700
C 	C 	0.49580 0.93760 0.17230 0.16700
C 	C 	0.42430 0.81180 0.05790 0.09500
H 	H 	0.36640 0.78900 0.08210 -0.01400
C 	C 	0.57110 0.89980 0.03940 0.05800
C 	C 	0.66270 0.96100 0.04600 -0.08600
H 	H 	0.68530 0.00790 0.08980 0.06400
C 	C 	0.71850 0.94950 0.98500 -0.03200
H 	H 	0.78050 0.98850 0.98890 0.03900
C 	C 	0.68450 0.88020 0.91640 -0.01000
H 	H 	0.72390 0.87600 0.87420 0.03100
C 	C 	0.59300 0.81850 0.91140 -0.11500
H 	H 	0.57060 0.77190 0.86730 0.07800
C 	C 	0.53570 0.82770 0.97370 0.06700
O 	O 	0.64350 0.42690 0.31720 -0.44500
N 	N 	0.39060 0.50310 0.09200 -0.15800
N 	N 	0.33090 0.55690 0.98810 -0.23400
C 	C 	0.48830 0.45790 0.17080 -0.15100
H 	H 	0.48640 0.42470 0.11790 0.09700
C 	C 	0.44180 0.50420 0.17230 0.16700
C 	C 	0.38750 0.57570 0.05790 0.09500
H 	H 	0.42260 0.63360 0.08210 -0.01400
C 	C 	0.32870 0.42890 0.03940 0.05800
C 	C 	0.29830 0.33730 0.04600 -0.08600
H 	H 	0.32260 0.31470 0.08980 0.06300
C 	C 	0.23100 0.28150 0.98500 -0.03200
H 	H 	0.20800 0.21950 0.98890 0.03900
C 	C 	0.19570 0.31550 0.91640 -0.01000
H 	H 	0.15210 0.27610 0.87420 0.03000
C 	C 	0.22550 0.40700 0.91140 -0.11500
H 	H 	0.20130 0.42940 0.86730 0.07800
C 	C 	0.29200 0.46430 0.97370 0.06700
O 	O 	0.78340 0.35650 0.31720 -0.44500
N 	N 	0.11250 0.60940 0.09200 -0.15800
N 	N 	0.22600 0.66910 0.98810 -0.23400
C 	C 	0.96960 0.51170 0.17080 -0.15100
H 	H 	0.93830 0.51360 0.11790 0.09700
C 	C 	0.06240 0.55820 0.17230 0.16700
C 	C 	0.18820 0.61250 0.05790 0.09500
H 	H 	0.21100 0.57740 0.08210 -0.01400
C 	C 	0.10020 0.67130 0.03940 0.05800
C 	C 	0.03900 0.70170 0.04600 -0.08700
H 	H 	0.99210 0.67740 0.08980 0.06400
C 	C 	0.05050 0.76900 0.98500 -0.03200
H 	H 	0.01150 0.79200 0.98890 0.03900
C 	C 	0.11980 0.80430 0.91640 -0.01000
H 	H 	0.12400 0.84790 0.87420 0.03100
C 	C 	0.18150 0.77450 0.91140 -0.11500
H 	H 	0.22810 0.79870 0.86730 0.07800
C 	C 	0.17230 0.70800 0.97370 0.06700
O 	O 	0.21660 0.57310 0.81720 -0.44500
N 	N 	0.88750 0.49690 0.59200 -0.15800
N 	N 	0.77400 0.44310 0.48810 -0.23500
C 	C 	0.03040 0.54210 0.67080 -0.15100
H 	H 	0.06170 0.57530 0.61790 0.09700
C 	C 	0.93760 0.49580 0.67230 0.16700
C 	C 	0.81180 0.42430 0.55790 0.09500
H 	H 	0.78900 0.36640 0.58210 -0.01400
C 	C 	0.89980 0.57110 0.53940 0.05800
C 	C 	0.96100 0.66270 0.54600 -0.08600
H 	H 	0.00790 0.68530 0.58980 0.06300
C 	C 	0.94950 0.71850 0.48500 -0.03200
H 	H 	0.98850 0.78050 0.48890 0.03900
C 	C 	0.88020 0.68450 0.41640 -0.01000
H 	H 	0.87600 0.72390 0.37420 0.03000
C 	C 	0.81850 0.59300 0.41140 -0.11500
H 	H 	0.77190 0.57060 0.36730 0.07800
C 	C 	0.82770 0.53570 0.47370 0.06700
O 	O 	0.42690 0.64350 0.81720 -0.44500
N 	N 	0.50310 0.39060 0.59200 -0.15800
N 	N 	0.55690 0.33090 0.48810 -0.23400
C 	C 	0.45790 0.48830 0.67080 -0.15100
H 	H 	0.42470 0.48640 0.61790 0.09700
C 	C 	0.50420 0.44180 0.67230 0.16700
C 	C 	0.57570 0.38750 0.55790 0.09500
H 	H 	0.63360 0.42260 0.58210 -0.01400
C 	C 	0.42890 0.32870 0.53940 0.05800
C 	C 	0.33730 0.29830 0.54600 -0.08600
H 	H 	0.31470 0.32260 0.58980 0.06300
C 	C 	0.28150 0.23100 0.48500 -0.03200
H 	H 	0.21950 0.20800 0.48890 0.03900
C 	C 	0.31550 0.19570 0.41640 -0.01000
H 	H 	0.27610 0.15210 0.37420 0.03000
C 	C 	0.40700 0.22550 0.41140 -0.11500
H 	H 	0.42940 0.20130 0.36730 0.07800
C 	C 	0.46430 0.29200 0.47370 0.06700
O 	O 	0.35650 0.78340 0.81720 -0.44500
N 	N 	0.60940 0.11250 0.59200 -0.15800
N 	N 	0.66910 0.22600 0.48810 -0.23500
C 	C 	0.51170 0.96960 0.67080 -0.15100
H 	H 	0.51360 0.93830 0.61790 0.09700
C 	C 	0.55820 0.06240 0.67230 0.16700
C 	C 	0.61250 0.18820 0.55790 0.09500
H 	H 	0.57740 0.21100 0.58210 -0.01400
C 	C 	0.67130 0.10020 0.53940 0.05800
C 	C 	0.70170 0.03900 0.54600 -0.08600
H 	H 	0.67740 0.99210 0.58980 0.06300
C 	C 	0.76900 0.05050 0.48500 -0.03200
H 	H 	0.79200 0.01150 0.48890 0.03900
C 	C 	0.80430 0.11980 0.41640 -0.01000
H 	H 	0.84790 0.12400 0.37420 0.03000
C 	C 	0.77450 0.18150 0.41140 -0.11500
H 	H 	0.79870 0.22810 0.36730 0.07800
C 	C 	0.70800 0.17230 0.47370 0.06700
O 	O 	0.42690 0.78340 0.68280 -0.44500
N 	N 	0.50310 0.11250 0.90800 -0.15800
N 	N 	0.55690 0.22600 0.01190 -0.23400
C 	C 	0.45790 0.96960 0.82920 -0.15100
H 	H 	0.42470 0.93830 0.88210 0.09700
C 	C 	0.50420 0.06240 0.82770 0.16700
C 	C 	0.57570 0.18820 0.94210 0.09500
H 	H 	0.63360 0.21100 0.91790 -0.01400
C 	C 	0.42890 0.10020 0.96060 0.05800
C 	C 	0.33730 0.03900 0.95400 -0.08600
H 	H 	0.31470 0.99210 0.91020 0.06400
C 	C 	0.28150 0.05050 0.01500 -0.03200
H 	H 	0.21950 0.01150 0.01110 0.03900
C 	C 	0.31550 0.11980 0.08360 -0.01000
H 	H 	0.27610 0.12400 0.12580 0.03100
C 	C 	0.40700 0.18150 0.08860 -0.11500
H 	H 	0.42940 0.22810 0.13270 0.07800
C 	C 	0.46430 0.17230 0.02630 0.06700
O 	O 	0.35650 0.57310 0.68280 -0.44500
N 	N 	0.60940 0.49690 0.90800 -0.15800
N 	N 	0.66910 0.44310 0.01190 -0.23400
C 	C 	0.51170 0.54210 0.82920 -0.15100
H 	H 	0.51360 0.57530 0.88210 0.09700
C 	C 	0.55820 0.49580 0.82770 0.16700
C 	C 	0.61250 0.42430 0.94210 0.09500
H 	H 	0.57740 0.36640 0.91790 -0.01400
C 	C 	0.67130 0.57110 0.96060 0.05800
C 	C 	0.70170 0.66270 0.95400 -0.08600
H 	H 	0.67740 0.68530 0.91020 0.06300
C 	C 	0.76900 0.71850 0.01500 -0.03200
H 	H 	0.79200 0.78050 0.01110 0.03900
C 	C 	0.80430 0.68450 0.08360 -0.01000
H 	H 	0.84790 0.72390 0.12580 0.03000
C 	C 	0.77450 0.59300 0.08860 -0.11500
H 	H 	0.79870 0.57060 0.13270 0.07800
C 	C 	0.70800 0.53570 0.02630 0.06700
O 	O 	0.21660 0.64350 0.68280 -0.44500
N 	N 	0.88750 0.39060 0.90800 -0.15800
N 	N 	0.77400 0.33090 0.01190 -0.23400
C 	C 	0.03040 0.48830 0.82920 -0.15100
H 	H 	0.06170 0.48640 0.88210 0.09700
C 	C 	0.93760 0.44180 0.82770 0.16700
C 	C 	0.81180 0.38750 0.94210 0.09500
H 	H 	0.78900 0.42260 0.91790 -0.01400
C 	C 	0.89980 0.32870 0.96060 0.05800
C 	C 	0.96100 0.29830 0.95400 -0.08700
H 	H 	0.00790 0.32260 0.91020 0.06400
C 	C 	0.94950 0.23100 0.01500 -0.03200
H 	H 	0.98850 0.20800 0.01110 0.03900
C 	C 	0.88020 0.19570 0.08360 -0.01000
H 	H 	0.87600 0.15210 0.12580 0.03100
C 	C 	0.81850 0.22550 0.08860 -0.11500
H 	H 	0.77190 0.20130 0.13270 0.07800
C 	C 	0.82770 0.29200 0.02630 0.06700
Mn	Mn	0.66667 0.33333 0.10675 1.28500
Mn	Mn	0.66667 0.33333 0.39325 1.28500
Mn	Mn	0.33333 0.66667 0.89325 1.28500
Mn	Mn	0.33333 0.66667 0.60675 1.28500
C 	C 	0.82120 0.41060 0.25000 0.33700
C 	C 	0.92360 0.46180 0.25000 0.01300
C 	C 	0.11000 0.55500 0.25000 -0.22200
H 	H 	0.17270 0.58635 0.25000 0.11300
C 	C 	0.58940 0.41060 0.25000 0.33700
C 	C 	0.53820 0.46180 0.25000 0.01300
C 	C 	0.44500 0.55500 0.25000 -0.22200
H 	H 	0.41365 0.58635 0.25000 0.11300
C 	C 	0.58940 0.17880 0.25000 0.33700
C 	C 	0.53820 0.07640 0.25000 0.01300
C 	C 	0.44500 0.89000 0.25000 -0.22200
H 	H 	0.41365 0.82730 0.25000 0.11300
C 	C 	0.17880 0.58940 0.75000 0.33700
C 	C 	0.07640 0.53820 0.75000 0.01300
C 	C 	0.89000 0.44500 0.75000 -0.22200
H 	H 	0.82730 0.41365 0.75000 0.11300
C 	C 	0.41060 0.58940 0.75000 0.33700
C 	C 	0.46180 0.53820 0.75000 0.01300
C 	C 	0.55500 0.44500 0.75000 -0.22200
H 	H 	0.58635 0.41365 0.75000 0.11300
C 	C 	0.41060 0.82120 0.75000 0.33700
C 	C 	0.46180 0.92360 0.75000 0.01300
C 	C 	0.55500 0.11000 0.75000 -0.22200
H 	H 	0.58635 0.17270 0.75000 0.11300
