data_crystal

_cell_length_a 16.97500
_cell_length_b 16.97500
_cell_length_c 13.91700
_cell_angle_alpha 90.00000
_cell_angle_beta  90.00000
_cell_angle_gamma 120.00000

_symmetry_space_group_name_	'P 1'
_symmetry_space_group_name_H-M	'P 1'

loop_
_symmetry_equiv_pos_as_xyz
  x,y,z

loop_
_atom_site_label
_atom_site_type_symbol
_atom_site_fract_x
_atom_site_fract_y
_atom_site_fract_z
_atom_site_charge
O 	O 	0.77960 0.42450 0.68110 -0.42200
N 	N 	0.11190 0.50380 0.91160 -0.15700
N 	N 	0.22830 0.55980 0.01480 -0.22900
C 	C 	0.96600 0.45640 0.83090 -0.13500
H 	H 	0.93430 0.42320 0.88480 0.09100
C 	C 	0.06060 0.50350 0.83010 0.15200
C 	C 	0.18940 0.57790 0.94360 0.09300
H 	H 	0.21240 0.63570 0.91740 -0.01000
C 	C 	0.17420 0.46620 0.03110 0.06900
C 	C 	0.18390 0.40910 0.09550 -0.11600
H 	H 	0.23100 0.43220 0.14010 0.08300
C 	C 	0.12200 0.31740 0.09130 -0.00800
H 	H 	0.12710 0.27820 0.13410 0.03000
C 	C 	0.05100 0.28200 0.02330 -0.03400
H 	H 	0.01150 0.21950 0.02070 0.04000
C 	C 	0.03870 0.33780 0.96050 -0.08600
H 	H 	0.99080 0.31430 0.91690 0.06400
C 	C 	0.10100 0.43040 0.96500 0.05900
O 	O 	0.57550 0.35510 0.68110 -0.42100
N 	N 	0.49620 0.60810 0.91160 -0.15600
N 	N 	0.44020 0.66850 0.01480 -0.22800
C 	C 	0.54360 0.50960 0.83090 -0.13400
H 	H 	0.57680 0.51110 0.88480 0.09200
C 	C 	0.49650 0.55710 0.83010 0.15300
C 	C 	0.42210 0.61150 0.94360 0.09300
H 	H 	0.36430 0.57670 0.91740 -0.01000
C 	C 	0.53380 0.70800 0.03110 0.06900
C 	C 	0.59090 0.77480 0.09550 -0.11600
H 	H 	0.56780 0.79880 0.14010 0.08300
C 	C 	0.68260 0.80460 0.09130 -0.00700
H 	H 	0.72180 0.84890 0.13410 0.03000
C 	C 	0.71800 0.76900 0.02330 -0.03400
H 	H 	0.78050 0.79200 0.02070 0.04000
C 	C 	0.66220 0.70090 0.96050 -0.08500
H 	H 	0.68570 0.67650 0.91690 0.06400
C 	C 	0.56960 0.67060 0.96500 0.05900
O 	O 	0.64490 0.22040 0.68110 -0.42100
N 	N 	0.39190 0.88810 0.91160 -0.15600
N 	N 	0.33150 0.77170 0.01480 -0.22800
C 	C 	0.49040 0.03400 0.83090 -0.13400
H 	H 	0.48890 0.06570 0.88480 0.09200
C 	C 	0.44290 0.93940 0.83010 0.15300
C 	C 	0.38850 0.81060 0.94360 0.09300
H 	H 	0.42330 0.78760 0.91740 -0.01000
C 	C 	0.29200 0.82580 0.03110 0.06900
C 	C 	0.22520 0.81610 0.09550 -0.11600
H 	H 	0.20120 0.76900 0.14010 0.08300
C 	C 	0.19540 0.87800 0.09130 -0.00800
H 	H 	0.15110 0.87290 0.13410 0.03000
C 	C 	0.23100 0.94900 0.02330 -0.03400
H 	H 	0.20800 0.98850 0.02070 0.04000
C 	C 	0.29910 0.96130 0.96050 -0.08600
H 	H 	0.32350 0.00920 0.91690 0.06400
C 	C 	0.32940 0.89900 0.96500 0.05900
O 	O 	0.57550 0.22040 0.81890 -0.42100
N 	N 	0.49620 0.88810 0.58840 -0.15600
N 	N 	0.44020 0.77170 0.48520 -0.22800
C 	C 	0.54360 0.03400 0.66910 -0.13400
H 	H 	0.57680 0.06570 0.61520 0.09200
C 	C 	0.49650 0.93940 0.66990 0.15300
C 	C 	0.42210 0.81060 0.55640 0.09300
H 	H 	0.36430 0.78760 0.58260 -0.01000
C 	C 	0.53380 0.82580 0.46890 0.06900
C 	C 	0.59090 0.81610 0.40450 -0.11600
H 	H 	0.56780 0.76900 0.35990 0.08300
C 	C 	0.68260 0.87800 0.40870 -0.00700
H 	H 	0.72180 0.87290 0.36590 0.03000
C 	C 	0.71800 0.94900 0.47670 -0.03400
H 	H 	0.78050 0.98850 0.47930 0.04000
C 	C 	0.66220 0.96130 0.53950 -0.08500
H 	H 	0.68570 0.00920 0.58310 0.06400
C 	C 	0.56960 0.89900 0.53500 0.05900
O 	O 	0.64490 0.42450 0.81890 -0.42100
N 	N 	0.39190 0.50380 0.58840 -0.15600
N 	N 	0.33150 0.55980 0.48520 -0.22800
C 	C 	0.49040 0.45640 0.66910 -0.13400
H 	H 	0.48890 0.42320 0.61520 0.09200
C 	C 	0.44290 0.50350 0.66990 0.15300
C 	C 	0.38850 0.57790 0.55640 0.09300
H 	H 	0.42330 0.63570 0.58260 -0.01000
C 	C 	0.29200 0.46620 0.46890 0.06900
C 	C 	0.22520 0.40910 0.40450 -0.11600
H 	H 	0.20120 0.43220 0.35990 0.08300
C 	C 	0.19540 0.31740 0.40870 -0.00700
H 	H 	0.15110 0.27820 0.36590 0.03000
C 	C 	0.23100 0.28200 0.47670 -0.03400
H 	H 	0.20800 0.21950 0.47930 0.04000
C 	C 	0.29910 0.33780 0.53950 -0.08500
H 	H 	0.32350 0.31430 0.58310 0.06400
C 	C 	0.32940 0.43040 0.53500 0.05900
O 	O 	0.77960 0.35510 0.81890 -0.42100
N 	N 	0.11190 0.60810 0.58840 -0.15600
N 	N 	0.22830 0.66850 0.48520 -0.22800
C 	C 	0.96600 0.50960 0.66910 -0.13400
H 	H 	0.93430 0.51110 0.61520 0.09200
C 	C 	0.06060 0.55710 0.66990 0.15300
C 	C 	0.18940 0.61150 0.55640 0.09300
H 	H 	0.21240 0.57670 0.58260 -0.01000
C 	C 	0.17420 0.70800 0.46890 0.06900
C 	C 	0.18390 0.77480 0.40450 -0.11600
H 	H 	0.23100 0.79880 0.35990 0.08300
C 	C 	0.12200 0.80460 0.40870 -0.00700
H 	H 	0.12710 0.84890 0.36590 0.03000
C 	C 	0.05100 0.76900 0.47670 -0.03400
H 	H 	0.01150 0.79200 0.47930 0.04000
C 	C 	0.03870 0.70090 0.53950 -0.08500
H 	H 	0.99080 0.67650 0.58310 0.06400
C 	C 	0.10100 0.67060 0.53500 0.05900
O 	O 	0.22040 0.57550 0.31890 -0.42100
N 	N 	0.88810 0.49620 0.08840 -0.15600
N 	N 	0.77170 0.44020 0.98520 -0.22800
C 	C 	0.03400 0.54360 0.16910 -0.13400
H 	H 	0.06570 0.57680 0.11520 0.09200
C 	C 	0.93940 0.49650 0.16990 0.15300
C 	C 	0.81060 0.42210 0.05640 0.09300
H 	H 	0.78760 0.36430 0.08260 -0.01000
C 	C 	0.82580 0.53380 0.96890 0.06900
C 	C 	0.81610 0.59090 0.90450 -0.11600
H 	H 	0.76900 0.56780 0.85990 0.08300
C 	C 	0.87800 0.68260 0.90870 -0.00800
H 	H 	0.87290 0.72180 0.86590 0.03000
C 	C 	0.94900 0.71800 0.97670 -0.03400
H 	H 	0.98850 0.78050 0.97930 0.04000
C 	C 	0.96130 0.66220 0.03950 -0.08600
H 	H 	0.00920 0.68570 0.08310 0.06400
C 	C 	0.89900 0.56960 0.03500 0.05900
O 	O 	0.42450 0.64490 0.31890 -0.42100
N 	N 	0.50380 0.39190 0.08840 -0.15600
N 	N 	0.55980 0.33150 0.98520 -0.22800
C 	C 	0.45640 0.49040 0.16910 -0.13400
H 	H 	0.42320 0.48890 0.11520 0.09200
C 	C 	0.50350 0.44290 0.16990 0.15300
C 	C 	0.57790 0.38850 0.05640 0.09300
H 	H 	0.63570 0.42330 0.08260 -0.01000
C 	C 	0.46620 0.29200 0.96890 0.06900
C 	C 	0.40910 0.22520 0.90450 -0.11600
H 	H 	0.43220 0.20120 0.85990 0.08300
C 	C 	0.31740 0.19540 0.90870 -0.00700
H 	H 	0.27820 0.15110 0.86590 0.03000
C 	C 	0.28200 0.23100 0.97670 -0.03400
H 	H 	0.21950 0.20800 0.97930 0.04000
C 	C 	0.33780 0.29910 0.03950 -0.08500
H 	H 	0.31430 0.32350 0.08310 0.06400
C 	C 	0.43040 0.32940 0.03500 0.05900
O 	O 	0.35510 0.77960 0.31890 -0.42100
N 	N 	0.60810 0.11190 0.08840 -0.15600
N 	N 	0.66850 0.22830 0.98520 -0.22800
C 	C 	0.50960 0.96600 0.16910 -0.13400
H 	H 	0.51110 0.93430 0.11520 0.09200
C 	C 	0.55710 0.06060 0.16990 0.15300
C 	C 	0.61150 0.18940 0.05640 0.09300
H 	H 	0.57670 0.21240 0.08260 -0.01000
C 	C 	0.70800 0.17420 0.96890 0.06900
C 	C 	0.77480 0.18390 0.90450 -0.11600
H 	H 	0.79880 0.23100 0.85990 0.08300
C 	C 	0.80460 0.12200 0.90870 -0.00800
H 	H 	0.84890 0.12710 0.86590 0.03000
C 	C 	0.76900 0.05100 0.97670 -0.03400
H 	H 	0.79200 0.01150 0.97930 0.04000
C 	C 	0.70090 0.03870 0.03950 -0.08600
H 	H 	0.67650 0.99080 0.08310 0.06400
C 	C 	0.67060 0.10100 0.03500 0.05900
O 	O 	0.42450 0.77960 0.18110 -0.42100
N 	N 	0.50380 0.11190 0.41160 -0.15600
N 	N 	0.55980 0.22830 0.51480 -0.22800
C 	C 	0.45640 0.96600 0.33090 -0.13400
H 	H 	0.42320 0.93430 0.38480 0.09200
C 	C 	0.50350 0.06060 0.33010 0.15300
C 	C 	0.57790 0.18940 0.44360 0.09300
H 	H 	0.63570 0.21240 0.41740 -0.01000
C 	C 	0.46620 0.17420 0.53110 0.06900
C 	C 	0.40910 0.18390 0.59550 -0.11600
H 	H 	0.43220 0.23100 0.64010 0.08300
C 	C 	0.31740 0.12200 0.59130 -0.00700
H 	H 	0.27820 0.12710 0.63410 0.03000
C 	C 	0.28200 0.05100 0.52330 -0.03400
H 	H 	0.21950 0.01150 0.52070 0.04000
C 	C 	0.33780 0.03870 0.46050 -0.08500
H 	H 	0.31430 0.99080 0.41690 0.06400
C 	C 	0.43040 0.10100 0.46500 0.05900
O 	O 	0.35510 0.57550 0.18110 -0.42100
N 	N 	0.60810 0.49620 0.41160 -0.15600
N 	N 	0.66850 0.44020 0.51480 -0.22800
C 	C 	0.50960 0.54360 0.33090 -0.13400
H 	H 	0.51110 0.57680 0.38480 0.09200
C 	C 	0.55710 0.49650 0.33010 0.15300
C 	C 	0.61150 0.42210 0.44360 0.09300
H 	H 	0.57670 0.36430 0.41740 -0.01000
C 	C 	0.70800 0.53380 0.53110 0.06900
C 	C 	0.77480 0.59090 0.59550 -0.11600
H 	H 	0.79880 0.56780 0.64010 0.08300
C 	C 	0.80460 0.68260 0.59130 -0.00700
H 	H 	0.84890 0.72180 0.63410 0.03000
C 	C 	0.76900 0.71800 0.52330 -0.03400
H 	H 	0.79200 0.78050 0.52070 0.04000
C 	C 	0.70090 0.66220 0.46050 -0.08500
H 	H 	0.67650 0.68570 0.41690 0.06400
C 	C 	0.67060 0.56960 0.46500 0.05900
O 	O 	0.22040 0.64490 0.18110 -0.42100
N 	N 	0.88810 0.39190 0.41160 -0.15600
N 	N 	0.77170 0.33150 0.51480 -0.22800
C 	C 	0.03400 0.49040 0.33090 -0.13400
H 	H 	0.06570 0.48890 0.38480 0.09200
C 	C 	0.93940 0.44290 0.33010 0.15300
C 	C 	0.81060 0.38850 0.44360 0.09300
H 	H 	0.78760 0.42330 0.41740 -0.01000
C 	C 	0.82580 0.29200 0.53110 0.06900
C 	C 	0.81610 0.22520 0.59550 -0.11600
H 	H 	0.76900 0.20120 0.64010 0.08300
C 	C 	0.87800 0.19540 0.59130 -0.00700
H 	H 	0.87290 0.15110 0.63410 0.03000
C 	C 	0.94900 0.23100 0.52330 -0.03400
H 	H 	0.98850 0.20800 0.52070 0.04000
C 	C 	0.96130 0.29910 0.46050 -0.08500
H 	H 	0.00920 0.32350 0.41690 0.06400
C 	C 	0.89900 0.32940 0.46500 0.05900
Co	Co	0.66667 0.33333 0.60339 1.16600
Co	Co	0.66667 0.33333 0.89661 1.16600
Co	Co	0.33333 0.66667 0.39661 1.16600
Co	Co	0.33333 0.66667 0.10339 1.16600
C 	C 	0.81770 0.40885 0.75000 0.33900
C 	C 	0.91920 0.45960 0.75000 -0.00100
C 	C 	0.10830 0.55415 0.75000 -0.20400
H 	H 	0.17160 0.58580 0.75000 0.10700
C 	C 	0.59115 0.40885 0.75000 0.33900
C 	C 	0.54040 0.45960 0.75000 -0.00100
C 	C 	0.44585 0.55415 0.75000 -0.20400
H 	H 	0.41420 0.58580 0.75000 0.10700
C 	C 	0.59115 0.18230 0.75000 0.33900
C 	C 	0.54040 0.08080 0.75000 -0.00100
C 	C 	0.44585 0.89170 0.75000 -0.20400
H 	H 	0.41420 0.82840 0.75000 0.10700
C 	C 	0.18230 0.59115 0.25000 0.33900
C 	C 	0.08080 0.54040 0.25000 -0.00100
C 	C 	0.89170 0.44585 0.25000 -0.20400
H 	H 	0.82840 0.41420 0.25000 0.10700
C 	C 	0.40885 0.59115 0.25000 0.33900
C 	C 	0.45960 0.54040 0.25000 -0.00100
C 	C 	0.55415 0.44585 0.25000 -0.20400
H 	H 	0.58580 0.41420 0.25000 0.10700
C 	C 	0.40885 0.81770 0.25000 0.33900
C 	C 	0.45960 0.91920 0.25000 -0.00100
C 	C 	0.55415 0.10830 0.25000 -0.20400
H 	H 	0.58580 0.17160 0.25000 0.10700
