data_crystal

_cell_length_a 17.96600
_cell_length_b 27.98900
_cell_length_c 14.14100
_cell_angle_alpha 90.00000
_cell_angle_beta  92.38100
_cell_angle_gamma 90.00000

_symmetry_space_group_name_	'P 1'
_symmetry_space_group_name_H-M	'P 1'

loop_
_symmetry_equiv_pos_as_xyz
  x,y,z

loop_
_atom_site_label
_atom_site_type_symbol
_atom_site_fract_x
_atom_site_fract_y
_atom_site_fract_z
_atom_site_charge
Mn	Mn	0.00414 0.17825 0.10681 1.28000
O 	O 	0.03650 0.11650 0.18720 -0.44100
N 	N 	0.95810 0.23590 0.00700 -0.22900
N 	N 	0.10790 0.17580 0.01810 -0.23600
O 	O 	0.89950 0.19040 0.16860 -0.43400
O 	O 	0.07080 0.22590 0.19180 -0.44500
N 	N 	0.95180 0.11930 0.01110 -0.22800
C 	C 	0.88450 0.21470 0.24140 0.33000
C 	C 	0.80500 0.23120 0.24610 0.01000
C 	C 	0.02430 0.01740 0.17130 -0.14200
C 	C 	0.75460 0.22490 0.16980 -0.14700
C 	C 	0.78320 0.25480 0.32720 -0.14500
H 	H 	0.04020 0.03400 0.11890 0.09200
C 	C 	0.02450 0.96810 0.17220 0.16100
C 	C 	0.68270 0.24150 0.17640 0.16600
H 	H 	0.76920 0.20980 0.11500 0.09700
C 	C 	0.71120 0.27140 0.33160 0.16300
H 	H 	0.81700 0.25930 0.37810 0.09300
N 	N 	0.04680 0.94160 0.09280 -0.15500
N 	N 	0.63050 0.23800 0.09780 -0.15700
C 	C 	0.66060 0.26500 0.25560 -0.22000
N 	N 	0.68800 0.29610 0.41380 -0.15600
C 	C 	0.01460 0.90030 0.06020 0.07500
C 	C 	0.10850 0.94960 0.03740 0.05600
C 	C 	0.60750 0.19820 0.04540 0.06000
C 	C 	0.58890 0.27540 0.06350 0.09000
H 	H 	0.61220 0.27660 0.25850 0.11200
C 	C 	0.72640 0.33100 0.46620 0.05800
C 	C 	0.61840 0.29410 0.44750 0.08800
H 	H 	0.97250 0.88720 0.08610 0.00100
C 	C 	0.10820 0.91130 0.97220 0.06700
C 	C 	0.16430 0.98350 0.04100 -0.08900
C 	C 	0.62780 0.15050 0.05090 -0.08800
C 	C 	0.55280 0.21510 0.97940 0.06400
H 	H 	0.59320 0.30620 0.08770 -0.01200
C 	C 	0.79700 0.35090 0.46000 -0.08500
C 	C 	0.67560 0.34800 0.53130 0.06700
H 	H 	0.58160 0.27360 0.42340 -0.01100
C 	C 	0.16310 0.90830 0.90640 -0.11400
C 	C 	0.21840 0.98020 0.97610 -0.03000
H 	H 	0.16500 0.00780 0.08580 0.06400
H 	H 	0.66370 0.13970 0.09500 0.06400
C 	C 	0.59180 0.12000 0.98730 -0.03200
C 	C 	0.51840 0.18400 0.91440 -0.11100
H 	H 	0.83010 0.33990 0.41610 0.06300
C 	C 	0.81600 0.38740 0.52100 -0.03300
C 	C 	0.69640 0.38390 0.59490 -0.11500
H 	H 	0.16330 0.88380 0.86210 0.07900
C 	C 	0.21760 0.94340 0.90900 -0.01000
H 	H 	0.25640 0.00270 0.97660 0.04000
C 	C 	0.53770 0.13620 0.91960 -0.01200
H 	H 	0.60370 0.08760 0.98920 0.03800
H 	H 	0.48370 0.19500 0.86890 0.07600
C 	C 	0.76700 0.40350 0.58840 -0.00900
H 	H 	0.86250 0.40180 0.51750 0.04100
H 	H 	0.66410 0.39450 0.64020 0.07700
H 	H 	0.25460 0.94240 0.86510 0.03100
H 	H 	0.51470 0.11450 0.87800 0.03100
H 	H 	0.78200 0.42780 0.62970 0.03100
Mn	Mn	0.50414 0.67825 0.10681 1.28300
O 	O 	0.53650 0.61650 0.18720 -0.44000
N 	N 	0.45810 0.73590 0.00700 -0.23400
N 	N 	0.60790 0.67580 0.01810 -0.23300
O 	O 	0.39950 0.69040 0.16860 -0.43600
O 	O 	0.57080 0.72590 0.19180 -0.44300
N 	N 	0.45180 0.61930 0.01110 -0.23000
C 	C 	0.38450 0.71470 0.24140 0.33100
C 	C 	0.30500 0.73120 0.24610 0.00900
C 	C 	0.52430 0.51740 0.17130 -0.14200
C 	C 	0.25460 0.72490 0.16980 -0.14600
C 	C 	0.28320 0.75480 0.32720 -0.14500
H 	H 	0.54020 0.53400 0.11890 0.09300
C 	C 	0.52450 0.46810 0.17220 0.16100
C 	C 	0.18270 0.74150 0.17640 0.16500
H 	H 	0.26920 0.70980 0.11500 0.09700
C 	C 	0.21120 0.77140 0.33160 0.16300
H 	H 	0.31700 0.75930 0.37810 0.09300
N 	N 	0.54680 0.44160 0.09280 -0.15700
N 	N 	0.13050 0.73800 0.09780 -0.15600
C 	C 	0.16060 0.76500 0.25560 -0.21900
N 	N 	0.18800 0.79610 0.41380 -0.15600
C 	C 	0.51460 0.40030 0.06020 0.09200
C 	C 	0.60850 0.44960 0.03740 0.05800
C 	C 	0.10750 0.69820 0.04540 0.05600
C 	C 	0.08890 0.77540 0.06350 0.08600
H 	H 	0.11220 0.77660 0.25850 0.11000
C 	C 	0.22640 0.83100 0.46620 0.05800
C 	C 	0.11840 0.79410 0.44750 0.08800
H 	H 	0.47250 0.38720 0.08610 -0.01200
C 	C 	0.60820 0.41130 0.97220 0.06600
C 	C 	0.66430 0.48350 0.04100 -0.08300
C 	C 	0.12780 0.65050 0.05090 -0.08800
C 	C 	0.05280 0.71510 0.97940 0.07000
H 	H 	0.09320 0.80620 0.08770 -0.01200
C 	C 	0.29700 0.85090 0.46000 -0.08500
C 	C 	0.17560 0.84800 0.53130 0.06700
H 	H 	0.08160 0.77360 0.42340 -0.01200
C 	C 	0.66310 0.40830 0.90640 -0.11500
C 	C 	0.71840 0.48020 0.97610 -0.03500
H 	H 	0.66500 0.50780 0.08580 0.06300
H 	H 	0.16370 0.63970 0.09500 0.06300
C 	C 	0.09180 0.62000 0.98730 -0.03300
C 	C 	0.01840 0.68400 0.91440 -0.12500
H 	H 	0.33010 0.83990 0.41610 0.06300
C 	C 	0.31600 0.88740 0.52100 -0.03300
C 	C 	0.19640 0.88390 0.59490 -0.11500
H 	H 	0.66330 0.38380 0.86210 0.07900
C 	C 	0.71760 0.44340 0.90900 -0.00700
H 	H 	0.75640 0.50270 0.97660 0.04100
C 	C 	0.03770 0.63620 0.91960 -0.00500
H 	H 	0.10370 0.58760 0.98920 0.03900
H 	H 	0.98370 0.69500 0.86890 0.08300
C 	C 	0.26700 0.90350 0.58840 -0.01000
H 	H 	0.36250 0.90180 0.51750 0.04000
H 	H 	0.16410 0.89450 0.64020 0.07700
H 	H 	0.75460 0.44240 0.86510 0.03000
H 	H 	0.01470 0.61450 0.87800 0.02800
H 	H 	0.28200 0.92780 0.62970 0.03000
Mn	Mn	0.99586 0.17825 0.39319 1.28600
O 	O 	0.96350 0.11650 0.31280 -0.43300
N 	N 	0.04190 0.23590 0.49300 -0.23600
N 	N 	0.89210 0.17580 0.48190 -0.23300
O 	O 	0.10050 0.19040 0.33140 -0.43700
O 	O 	0.92920 0.22590 0.30820 -0.44200
N 	N 	0.04820 0.11930 0.48890 -0.22900
C 	C 	0.11550 0.21470 0.25860 0.33100
C 	C 	0.19500 0.23120 0.25390 0.00900
C 	C 	0.97570 0.01740 0.32870 -0.13600
C 	C 	0.24540 0.22490 0.33020 -0.14700
C 	C 	0.21680 0.25480 0.17280 -0.14500
H 	H 	0.95980 0.03400 0.38110 0.09300
C 	C 	0.97550 0.96810 0.32780 0.16900
C 	C 	0.31730 0.24150 0.32360 0.16600
H 	H 	0.23080 0.20980 0.38500 0.09700
C 	C 	0.28880 0.27140 0.16840 0.16300
H 	H 	0.18300 0.25930 0.12190 0.09200
N 	N 	0.95320 0.94160 0.40720 -0.15900
N 	N 	0.36950 0.23800 0.40220 -0.15700
C 	C 	0.33940 0.26500 0.24440 -0.21900
N 	N 	0.31200 0.29610 0.08620 -0.15600
C 	C 	0.98540 0.90030 0.43980 0.10600
C 	C 	0.89150 0.94960 0.46260 0.05900
C 	C 	0.39250 0.19820 0.45460 0.06000
C 	C 	0.41110 0.27540 0.43650 0.09000
H 	H 	0.38780 0.27660 0.24150 0.11100
C 	C 	0.27360 0.33100 0.03380 0.05800
C 	C 	0.38160 0.29410 0.05250 0.08700
H 	H 	0.02750 0.88720 0.41390 -0.02000
C 	C 	0.89180 0.91130 0.52780 0.06600
C 	C 	0.83570 0.98350 0.45900 -0.08600
C 	C 	0.37220 0.15050 0.44910 -0.08900
C 	C 	0.44720 0.21510 0.52060 0.06400
H 	H 	0.40680 0.30620 0.41230 -0.01200
C 	C 	0.20300 0.35090 0.04000 -0.08900
C 	C 	0.32440 0.34800 0.96870 0.06700
H 	H 	0.41840 0.27360 0.07660 -0.01000
C 	C 	0.83690 0.90830 0.59360 -0.11300
C 	C 	0.78160 0.98020 0.52390 -0.03200
H 	H 	0.83500 0.00780 0.41420 0.06400
H 	H 	0.33630 0.13970 0.40500 0.06400
C 	C 	0.40820 0.12000 0.51270 -0.03000
C 	C 	0.48160 0.18400 0.58560 -0.11100
H 	H 	0.16990 0.33990 0.08390 0.06300
C 	C 	0.18400 0.38740 0.97900 -0.03000
C 	C 	0.30360 0.38390 0.90510 -0.11400
H 	H 	0.83670 0.88380 0.63790 0.07900
C 	C 	0.78240 0.94340 0.59100 -0.00900
H 	H 	0.74360 0.00270 0.52340 0.04000
C 	C 	0.46230 0.13620 0.58040 -0.01200
H 	H 	0.39630 0.08760 0.51080 0.03800
H 	H 	0.51630 0.19500 0.63110 0.07600
C 	C 	0.23300 0.40350 0.91160 -0.01200
H 	H 	0.13750 0.40180 0.98250 0.03800
H 	H 	0.33590 0.39450 0.85980 0.07700
H 	H 	0.74540 0.94240 0.63490 0.03000
H 	H 	0.48530 0.11450 0.62200 0.03200
H 	H 	0.21800 0.42780 0.87030 0.03100
Mn	Mn	0.49586 0.67825 0.39319 1.28300
O 	O 	0.46350 0.61650 0.31280 -0.44000
N 	N 	0.54190 0.73590 0.49300 -0.23300
N 	N 	0.39210 0.67580 0.48190 -0.23400
O 	O 	0.60050 0.69040 0.33140 -0.43500
O 	O 	0.42920 0.72590 0.30820 -0.44400
N 	N 	0.54820 0.61930 0.48890 -0.23000
C 	C 	0.61550 0.71470 0.25860 0.33000
C 	C 	0.69500 0.73120 0.25390 0.00900
C 	C 	0.47570 0.51740 0.32870 -0.14200
C 	C 	0.74540 0.72490 0.33020 -0.14800
C 	C 	0.71680 0.75480 0.17280 -0.14500
H 	H 	0.45980 0.53400 0.38110 0.09300
C 	C 	0.47550 0.46810 0.32780 0.16100
C 	C 	0.81730 0.74150 0.32360 0.16700
H 	H 	0.73080 0.70980 0.38500 0.09700
C 	C 	0.78880 0.77140 0.16840 0.16400
H 	H 	0.68300 0.75930 0.12190 0.09300
N 	N 	0.45320 0.44160 0.40720 -0.15700
N 	N 	0.86950 0.73800 0.40220 -0.15800
C 	C 	0.83940 0.76500 0.24440 -0.22000
N 	N 	0.81200 0.79610 0.08620 -0.15600
C 	C 	0.48540 0.40030 0.43980 0.09200
C 	C 	0.39150 0.44960 0.46260 0.05800
C 	C 	0.89250 0.69820 0.45460 0.06500
C 	C 	0.91110 0.77540 0.43650 0.09100
H 	H 	0.88780 0.77660 0.24150 0.11300
C 	C 	0.77360 0.83100 0.03380 0.05900
C 	C 	0.88160 0.79410 0.05250 0.09000
H 	H 	0.52750 0.38720 0.41390 -0.01100
C 	C 	0.39180 0.41130 0.52780 0.06600
C 	C 	0.33570 0.48350 0.45900 -0.08600
C 	C 	0.87220 0.65050 0.44910 -0.09400
C 	C 	0.94720 0.71510 0.52060 0.05800
H 	H 	0.90680 0.80620 0.41230 -0.01100
C 	C 	0.70300 0.85090 0.04000 -0.08400
C 	C 	0.82440 0.84800 0.96870 0.06500
H 	H 	0.91840 0.77360 0.07660 -0.00900
C 	C 	0.33690 0.40830 0.59360 -0.11400
C 	C 	0.28160 0.48020 0.52390 -0.03300
H 	H 	0.33500 0.50780 0.41420 0.06300
H 	H 	0.83630 0.63970 0.40500 0.06700
C 	C 	0.90820 0.62000 0.51270 -0.02200
C 	C 	0.98160 0.68400 0.58560 -0.09300
H 	H 	0.66990 0.83990 0.08390 0.06300
C 	C 	0.68400 0.88740 0.97900 -0.03500
C 	C 	0.80360 0.88390 0.90510 -0.11500
H 	H 	0.33670 0.38380 0.63790 0.07900
C 	C 	0.28240 0.44340 0.59100 -0.00800
H 	H 	0.24360 0.50270 0.52340 0.04000
C 	C 	0.96230 0.63620 0.58040 -0.02400
H 	H 	0.89630 0.58760 0.51080 0.03600
H 	H 	0.01630 0.69500 0.63110 0.06500
C 	C 	0.73300 0.90350 0.91160 -0.00900
H 	H 	0.63750 0.90180 0.98250 0.04000
H 	H 	0.83590 0.89450 0.85980 0.07700
H 	H 	0.24540 0.44240 0.63490 0.03000
H 	H 	0.98530 0.61450 0.62200 0.03800
H 	H 	0.71800 0.92780 0.87030 0.03000
Mn	Mn	0.99586 0.82175 0.89319 1.28500
O 	O 	0.96350 0.88350 0.81280 -0.43500
N 	N 	0.04190 0.76410 0.99300 -0.23400
N 	N 	0.89210 0.82420 0.98190 -0.23400
O 	O 	0.10050 0.80960 0.83140 -0.43600
O 	O 	0.92920 0.77410 0.80820 -0.44200
N 	N 	0.04820 0.88070 0.98890 -0.22700
C 	C 	0.11550 0.78530 0.75860 0.33100
C 	C 	0.19500 0.76880 0.75390 0.00900
C 	C 	0.97570 0.98260 0.82870 -0.13800
C 	C 	0.24540 0.77510 0.83020 -0.14700
C 	C 	0.21680 0.74520 0.67280 -0.14500
H 	H 	0.95980 0.96600 0.88110 0.09300
C 	C 	0.97550 0.03190 0.82780 0.16600
C 	C 	0.31730 0.75850 0.82360 0.16600
H 	H 	0.23080 0.79020 0.88500 0.09700
C 	C 	0.28880 0.72860 0.66840 0.16300
H 	H 	0.18300 0.74070 0.62190 0.09300
N 	N 	0.95320 0.05840 0.90720 -0.15800
N 	N 	0.36950 0.76200 0.90220 -0.15700
C 	C 	0.33940 0.73500 0.74440 -0.21900
N 	N 	0.31200 0.70390 0.58620 -0.15600
C 	C 	0.98540 0.09970 0.93980 0.09800
C 	C 	0.89150 0.05040 0.96260 0.05800
C 	C 	0.39250 0.80180 0.95460 0.06000
C 	C 	0.41110 0.72460 0.93650 0.09000
H 	H 	0.38780 0.72340 0.74150 0.11100
C 	C 	0.27360 0.66900 0.53380 0.05800
C 	C 	0.38160 0.70590 0.55250 0.08800
H 	H 	0.02750 0.11280 0.91390 -0.01600
C 	C 	0.89180 0.08870 0.02780 0.06800
C 	C 	0.83570 0.01650 0.95900 -0.08900
C 	C 	0.37220 0.84950 0.94910 -0.08800
C 	C 	0.44720 0.78490 0.02060 0.06400
H 	H 	0.40680 0.69380 0.91230 -0.01200
C 	C 	0.20300 0.64910 0.54000 -0.08500
C 	C 	0.32440 0.65200 0.46870 0.06700
H 	H 	0.41840 0.72640 0.57660 -0.01000
C 	C 	0.83690 0.09170 0.09360 -0.11300
C 	C 	0.78160 0.01980 0.02390 -0.02900
H 	H 	0.83500 0.99220 0.91420 0.06400
H 	H 	0.33630 0.86030 0.90500 0.06400
C 	C 	0.40820 0.88000 0.01270 -0.03200
C 	C 	0.48160 0.81600 0.08560 -0.11100
H 	H 	0.16990 0.66010 0.58390 0.06300
C 	C 	0.18400 0.61260 0.47900 -0.03300
C 	C 	0.30360 0.61610 0.40510 -0.11500
H 	H 	0.83670 0.11620 0.13790 0.07900
C 	C 	0.78240 0.05660 0.09100 -0.01000
H 	H 	0.74360 0.99730 0.02340 0.03900
C 	C 	0.46230 0.86380 0.08040 -0.01200
H 	H 	0.39630 0.91240 0.01080 0.03800
H 	H 	0.51630 0.80500 0.13110 0.07600
C 	C 	0.23300 0.59650 0.41160 -0.01000
H 	H 	0.13750 0.59820 0.48250 0.03900
H 	H 	0.33590 0.60550 0.35980 0.07700
H 	H 	0.74540 0.05760 0.13490 0.03100
H 	H 	0.48530 0.88550 0.12200 0.03100
H 	H 	0.21800 0.57220 0.37030 0.03000
Mn	Mn	0.49586 0.32175 0.89319 1.28300
O 	O 	0.46350 0.38350 0.81280 -0.44000
N 	N 	0.54190 0.26410 0.99300 -0.23400
N 	N 	0.39210 0.32420 0.98190 -0.23400
O 	O 	0.60050 0.30960 0.83140 -0.43500
O 	O 	0.42920 0.27410 0.80820 -0.44400
N 	N 	0.54820 0.38070 0.98890 -0.23000
C 	C 	0.61550 0.28530 0.75860 0.33000
C 	C 	0.69500 0.26880 0.75390 0.00900
C 	C 	0.47570 0.48260 0.82870 -0.14200
C 	C 	0.74540 0.27510 0.83020 -0.14700
C 	C 	0.71680 0.24520 0.67280 -0.14500
H 	H 	0.45980 0.46600 0.88110 0.09300
C 	C 	0.47550 0.53190 0.82780 0.16100
C 	C 	0.81730 0.25850 0.82360 0.16600
H 	H 	0.73080 0.29020 0.88500 0.09700
C 	C 	0.78880 0.22860 0.66840 0.16400
H 	H 	0.68300 0.24070 0.62190 0.09300
N 	N 	0.45320 0.55840 0.90720 -0.15700
N 	N 	0.86950 0.26200 0.90220 -0.15800
C 	C 	0.83940 0.23500 0.74440 -0.22000
N 	N 	0.81200 0.20390 0.58620 -0.15600
C 	C 	0.48540 0.59970 0.93980 0.09200
C 	C 	0.39150 0.55040 0.96260 0.05800
C 	C 	0.89250 0.30180 0.95460 0.06500
C 	C 	0.91110 0.22460 0.93650 0.08800
H 	H 	0.88780 0.22340 0.74150 0.11200
C 	C 	0.77360 0.16900 0.53380 0.05800
C 	C 	0.88160 0.20590 0.55250 0.08800
H 	H 	0.52750 0.61280 0.91390 -0.01100
C 	C 	0.39180 0.58870 0.02780 0.06600
C 	C 	0.33570 0.51650 0.95900 -0.08400
C 	C 	0.87220 0.34950 0.94910 -0.10000
C 	C 	0.94720 0.28490 0.02060 0.05700
H 	H 	0.90680 0.19380 0.91230 -0.01100
C 	C 	0.70300 0.14910 0.54000 -0.08500
C 	C 	0.82440 0.15200 0.46870 0.06700
H 	H 	0.91840 0.22640 0.57660 -0.00900
C 	C 	0.33690 0.59170 0.09360 -0.11500
C 	C 	0.28160 0.51980 0.02390 -0.03500
H 	H 	0.33500 0.49220 0.91420 0.06300
H 	H 	0.83630 0.36030 0.90500 0.06800
C 	C 	0.90820 0.38000 0.01270 -0.01500
C 	C 	0.98160 0.31600 0.08560 -0.08400
H 	H 	0.66990 0.16010 0.58390 0.06300
C 	C 	0.68400 0.11260 0.47900 -0.03300
C 	C 	0.80360 0.11610 0.40510 -0.11500
H 	H 	0.33670 0.61620 0.13790 0.07900
C 	C 	0.28240 0.55660 0.09100 -0.00700
H 	H 	0.24360 0.49730 0.02340 0.04000
C 	C 	0.96230 0.36380 0.08040 -0.03000
H 	H 	0.89630 0.41240 0.01080 0.03400
H 	H 	0.01630 0.30500 0.13110 0.06100
C 	C 	0.73300 0.09650 0.41160 -0.01000
H 	H 	0.63750 0.09820 0.48250 0.04000
H 	H 	0.83590 0.10550 0.35980 0.07700
H 	H 	0.24540 0.55760 0.13490 0.03000
H 	H 	0.98530 0.38550 0.12200 0.04100
H 	H 	0.71800 0.07220 0.37030 0.03000
Mn	Mn	0.00414 0.82175 0.60681 1.28100
O 	O 	0.03650 0.88350 0.68720 -0.44000
N 	N 	0.95810 0.76410 0.50700 -0.23000
N 	N 	0.10790 0.82420 0.51810 -0.23400
O 	O 	0.89950 0.80960 0.66860 -0.43400
O 	O 	0.07080 0.77410 0.69180 -0.44500
N 	N 	0.95180 0.88070 0.51110 -0.23000
C 	C 	0.88450 0.78530 0.74140 0.33000
C 	C 	0.80500 0.76880 0.74610 0.00900
C 	C 	0.02430 0.98260 0.67130 -0.14200
C 	C 	0.75460 0.77510 0.66980 -0.14700
C 	C 	0.78320 0.74520 0.82720 -0.14500
H 	H 	0.04020 0.96600 0.61890 0.09200
C 	C 	0.02450 0.03190 0.67220 0.16100
C 	C 	0.68270 0.75850 0.67640 0.16600
H 	H 	0.76920 0.79020 0.61500 0.09700
C 	C 	0.71120 0.72860 0.83160 0.16300
H 	H 	0.81700 0.74070 0.87810 0.09300
N 	N 	0.04680 0.05840 0.59280 -0.15500
N 	N 	0.63050 0.76200 0.59780 -0.15700
C 	C 	0.66060 0.73500 0.75560 -0.21900
N 	N 	0.68800 0.70390 0.91380 -0.15600
C 	C 	0.01460 0.09970 0.56020 0.08100
C 	C 	0.10850 0.05040 0.53740 0.05700
C 	C 	0.60750 0.80180 0.54540 0.06000
C 	C 	0.58890 0.72460 0.56350 0.09000
H 	H 	0.61220 0.72340 0.75850 0.11100
C 	C 	0.72640 0.66900 0.96620 0.05800
C 	C 	0.61840 0.70590 0.94750 0.08700
H 	H 	0.97250 0.11280 0.58610 -0.00400
C 	C 	0.10820 0.08870 0.47220 0.06600
C 	C 	0.16430 0.01650 0.54100 -0.08600
C 	C 	0.62780 0.84950 0.55090 -0.08900
C 	C 	0.55280 0.78490 0.47940 0.06400
H 	H 	0.59320 0.69380 0.58770 -0.01200
C 	C 	0.79700 0.64910 0.96000 -0.08800
C 	C 	0.67560 0.65200 0.03130 0.06700
H 	H 	0.58160 0.72640 0.92340 -0.01000
C 	C 	0.16310 0.09170 0.40640 -0.11400
C 	C 	0.21840 0.01980 0.47610 -0.03300
H 	H 	0.16500 0.99220 0.58580 0.06300
H 	H 	0.66370 0.86030 0.59500 0.06400
C 	C 	0.59180 0.88000 0.48730 -0.03000
C 	C 	0.51840 0.81600 0.41440 -0.11100
H 	H 	0.83010 0.66010 0.91610 0.06400
C 	C 	0.81600 0.61260 0.02100 -0.03000
C 	C 	0.69640 0.61610 0.09490 -0.11400
H 	H 	0.16330 0.11620 0.36210 0.07900
C 	C 	0.21760 0.05660 0.40900 -0.00800
H 	H 	0.25640 0.99730 0.47660 0.04000
C 	C 	0.53770 0.86380 0.41960 -0.01200
H 	H 	0.60370 0.91240 0.48920 0.03800
H 	H 	0.48370 0.80500 0.36890 0.07600
C 	C 	0.76700 0.59650 0.08840 -0.01100
H 	H 	0.86250 0.59820 0.01750 0.04000
H 	H 	0.66410 0.60550 0.14020 0.07700
H 	H 	0.25460 0.05760 0.36510 0.03000
H 	H 	0.51470 0.88550 0.37800 0.03200
H 	H 	0.78200 0.57220 0.12970 0.03100
Mn	Mn	0.50414 0.32175 0.60681 1.28300
O 	O 	0.53650 0.38350 0.68720 -0.44000
N 	N 	0.45810 0.26410 0.50700 -0.23300
N 	N 	0.60790 0.32420 0.51810 -0.23400
O 	O 	0.39950 0.30960 0.66860 -0.43500
O 	O 	0.57080 0.27410 0.69180 -0.44400
N 	N 	0.45180 0.38070 0.51110 -0.23000
C 	C 	0.38450 0.28530 0.74140 0.33100
C 	C 	0.30500 0.26880 0.74610 0.00900
C 	C 	0.52430 0.48260 0.67130 -0.14200
C 	C 	0.25460 0.27510 0.66980 -0.14700
C 	C 	0.28320 0.24520 0.82720 -0.14500
H 	H 	0.54020 0.46600 0.61890 0.09300
C 	C 	0.52450 0.53190 0.67220 0.16100
C 	C 	0.18270 0.25850 0.67640 0.16500
H 	H 	0.26920 0.29020 0.61500 0.09700
C 	C 	0.21120 0.22860 0.83160 0.16300
H 	H 	0.31700 0.24070 0.87810 0.09300
N 	N 	0.54680 0.55840 0.59280 -0.15700
N 	N 	0.13050 0.26200 0.59780 -0.15700
C 	C 	0.16060 0.23500 0.75560 -0.21900
N 	N 	0.18800 0.20390 0.91380 -0.15600
C 	C 	0.51460 0.59970 0.56020 0.09200
C 	C 	0.60850 0.55040 0.53740 0.05800
C 	C 	0.10750 0.30180 0.54540 0.05500
C 	C 	0.08890 0.22460 0.56350 0.08900
H 	H 	0.11220 0.22340 0.75850 0.11100
C 	C 	0.22640 0.16900 0.96620 0.05900
C 	C 	0.11840 0.20590 0.94750 0.09000
H 	H 	0.47250 0.61280 0.58610 -0.01100
C 	C 	0.60820 0.58870 0.47220 0.06600
C 	C 	0.66430 0.51650 0.54100 -0.08600
C 	C 	0.12780 0.34950 0.55090 -0.08200
C 	C 	0.05280 0.28490 0.47940 0.07200
H 	H 	0.09320 0.19380 0.58770 -0.01200
C 	C 	0.29700 0.14910 0.96000 -0.08400
C 	C 	0.17560 0.15200 0.03130 0.06500
H 	H 	0.08160 0.22640 0.92340 -0.01200
C 	C 	0.66310 0.59170 0.40640 -0.11400
C 	C 	0.71840 0.51980 0.47610 -0.03300
H 	H 	0.66500 0.49220 0.58580 0.06300
H 	H 	0.16370 0.36030 0.59500 0.06200
C 	C 	0.09180 0.38000 0.48730 -0.04000
C 	C 	0.01840 0.31600 0.41440 -0.13300
H 	H 	0.33010 0.16010 0.91610 0.06300
C 	C 	0.31600 0.11260 0.02100 -0.03500
C 	C 	0.19640 0.11610 0.09490 -0.11500
H 	H 	0.66330 0.61620 0.36210 0.07900
C 	C 	0.71760 0.55660 0.40900 -0.00800
H 	H 	0.75640 0.49730 0.47660 0.04100
C 	C 	0.03770 0.36380 0.41960 0.00100
H 	H 	0.10370 0.41240 0.48920 0.04100
H 	H 	0.98370 0.30500 0.36890 0.08800
C 	C 	0.26700 0.09650 0.08840 -0.00900
H 	H 	0.36250 0.09820 0.01750 0.04000
H 	H 	0.16410 0.10550 0.14020 0.07700
H 	H 	0.75460 0.55760 0.36510 0.03100
H 	H 	0.01470 0.38550 0.37800 0.02500
H 	H 	0.28200 0.07220 0.12970 0.03000
C 	C 	0.00000 0.09590 0.25000 0.32100
C 	C 	0.00000 0.04230 0.25000 0.00100
C 	C 	-0.00000 0.94280 0.25000 -0.22100
H 	H 	-0.00000 0.90960 0.25000 0.11100
C 	C 	0.50000 0.59590 0.25000 0.32800
C 	C 	0.50000 0.54230 0.25000 0.00600
C 	C 	0.50000 0.44280 0.25000 -0.21200
H 	H 	0.50000 0.40960 0.25000 0.11000
C 	C 	-0.00000 0.90410 0.75000 0.32300
C 	C 	-0.00000 0.95770 0.75000 0.00300
C 	C 	0.00000 0.05720 0.75000 -0.21700
H 	H 	0.00000 0.09040 0.75000 0.11000
C 	C 	0.50000 0.40410 0.75000 0.32800
C 	C 	0.50000 0.45770 0.75000 0.00600
C 	C 	0.50000 0.55720 0.75000 -0.21200
H 	H 	0.50000 0.59040 0.75000 0.11000
