data_crystal

_cell_length_a 17.24600
_cell_length_b 17.24600
_cell_length_c 14.13500
_cell_angle_alpha 90.00000
_cell_angle_beta  90.00000
_cell_angle_gamma 120.00000

_symmetry_space_group_name_	'P 1'
_symmetry_space_group_name_H-M	'P 1'

loop_
_symmetry_equiv_pos_as_xyz
  x,y,z

loop_
_atom_site_label
_atom_site_type_symbol
_atom_site_fract_x
_atom_site_fract_y
_atom_site_fract_z
_atom_site_charge
O 	O 	0.64270 0.42470 0.18270 -0.45100
N 	N 	0.49440 0.60360 0.08950 -0.15400
N 	N 	0.44200 0.66730 0.98950 -0.23400
C 	C 	0.54070 0.50800 0.16980 -0.13600
H 	H 	0.57190 0.50880 0.11570 0.08900
C 	C 	0.49550 0.55340 0.17150 0.15200
C 	C 	0.42370 0.61220 0.06190 0.08800
H 	H 	0.36790 0.58240 0.09100 -0.01300
C 	C 	0.56530 0.65760 0.02890 0.05500
C 	C 	0.65150 0.67540 0.02450 -0.08100
H 	H 	0.67350 0.64980 0.06680 0.06200
C 	C 	0.70520 0.73350 0.95380 -0.04300
H 	H 	0.76450 0.74730 0.94790 0.04500
C 	C 	0.67000 0.77140 0.89110 0.00500
H 	H 	0.70700 0.81060 0.84470 0.02700
C 	C 	0.58510 0.75300 0.89600 -0.12200
H 	H 	0.56270 0.77770 0.85310 0.07900
C 	C 	0.53090 0.69540 0.96780 0.06800
O 	O 	0.57530 0.21800 0.18270 -0.45000
N 	N 	0.39640 0.89080 0.08950 -0.15300
N 	N 	0.33270 0.77470 0.98950 -0.23300
C 	C 	0.49200 0.03270 0.16980 -0.13400
H 	H 	0.49120 0.06310 0.11570 0.09000
C 	C 	0.44660 0.94210 0.17150 0.15300
C 	C 	0.38780 0.81150 0.06190 0.08900
H 	H 	0.41760 0.78550 0.09100 -0.01200
C 	C 	0.34240 0.90770 0.02890 0.05600
C 	C 	0.32460 0.97610 0.02450 -0.08500
H 	H 	0.35020 0.02370 0.06680 0.06300
C 	C 	0.26650 0.97170 0.95380 -0.03800
H 	H 	0.25270 0.01720 0.94790 0.04300
C 	C 	0.22860 0.89860 0.89110 0.00200
H 	H 	0.18940 0.89640 0.84470 0.02800
C 	C 	0.24700 0.83210 0.89600 -0.12100
H 	H 	0.22230 0.78500 0.85310 0.07900
C 	C 	0.30460 0.83550 0.96780 0.06800
O 	O 	0.78200 0.35730 0.18270 -0.45000
N 	N 	0.10920 0.50560 0.08950 -0.15300
N 	N 	0.22530 0.55800 0.98950 -0.23300
C 	C 	0.96730 0.45930 0.16980 -0.13400
H 	H 	0.93690 0.42810 0.11570 0.09000
C 	C 	0.05790 0.50450 0.17150 0.15300
C 	C 	0.18850 0.57630 0.06190 0.08900
H 	H 	0.21450 0.63210 0.09100 -0.01200
C 	C 	0.09230 0.43470 0.02890 0.05600
C 	C 	0.02390 0.34850 0.02450 -0.08400
H 	H 	0.97630 0.32650 0.06680 0.06300
C 	C 	0.02830 0.29480 0.95380 -0.03900
H 	H 	0.98280 0.23550 0.94790 0.04300
C 	C 	0.10140 0.33000 0.89110 0.00200
H 	H 	0.10360 0.29300 0.84470 0.02700
C 	C 	0.16790 0.41490 0.89600 -0.12100
H 	H 	0.21500 0.43730 0.85310 0.07900
C 	C 	0.16450 0.46910 0.96780 0.06800
O 	O 	0.57530 0.35730 0.31730 -0.45000
N 	N 	0.39640 0.50560 0.41050 -0.15300
N 	N 	0.33270 0.55800 0.51050 -0.23300
C 	C 	0.49200 0.45930 0.33020 -0.13500
H 	H 	0.49120 0.42810 0.38430 0.09000
C 	C 	0.44660 0.50450 0.32850 0.15300
C 	C 	0.38780 0.57630 0.43810 0.08900
H 	H 	0.41760 0.63210 0.40900 -0.01200
C 	C 	0.34240 0.43470 0.47110 0.05500
C 	C 	0.32460 0.34850 0.47550 -0.08100
H 	H 	0.35020 0.32650 0.43320 0.06200
C 	C 	0.26650 0.29480 0.54620 -0.04300
H 	H 	0.25270 0.23550 0.55210 0.04500
C 	C 	0.22860 0.33000 0.60890 0.00500
H 	H 	0.18940 0.29300 0.65530 0.02700
C 	C 	0.24700 0.41490 0.60400 -0.12200
H 	H 	0.22230 0.43730 0.64690 0.07900
C 	C 	0.30460 0.46910 0.53220 0.06800
O 	O 	0.78200 0.42470 0.31730 -0.45000
N 	N 	0.10920 0.60360 0.41050 -0.15300
N 	N 	0.22530 0.66730 0.51050 -0.23300
C 	C 	0.96730 0.50800 0.33020 -0.13400
H 	H 	0.93690 0.50880 0.38430 0.09000
C 	C 	0.05790 0.55340 0.32850 0.15300
C 	C 	0.18850 0.61220 0.43810 0.08900
H 	H 	0.21450 0.58240 0.40900 -0.01200
C 	C 	0.09230 0.65760 0.47110 0.05500
C 	C 	0.02390 0.67540 0.47550 -0.08100
H 	H 	0.97630 0.64980 0.43320 0.06200
C 	C 	0.02830 0.73350 0.54620 -0.04200
H 	H 	0.98280 0.74730 0.55210 0.04500
C 	C 	0.10140 0.77140 0.60890 0.00400
H 	H 	0.10360 0.81060 0.65530 0.02700
C 	C 	0.16790 0.75300 0.60400 -0.12200
H 	H 	0.21500 0.77770 0.64690 0.07900
C 	C 	0.16450 0.69540 0.53220 0.06800
O 	O 	0.64270 0.21800 0.31730 -0.45000
N 	N 	0.49440 0.89080 0.41050 -0.15300
N 	N 	0.44200 0.77470 0.51050 -0.23300
C 	C 	0.54070 0.03270 0.33020 -0.13400
H 	H 	0.57190 0.06310 0.38430 0.09000
C 	C 	0.49550 0.94210 0.32850 0.15300
C 	C 	0.42370 0.81150 0.43810 0.08900
H 	H 	0.36790 0.78550 0.40900 -0.01200
C 	C 	0.56530 0.90770 0.47110 0.05500
C 	C 	0.65150 0.97610 0.47550 -0.08100
H 	H 	0.67350 0.02370 0.43320 0.06200
C 	C 	0.70520 0.97170 0.54620 -0.04200
H 	H 	0.76450 0.01720 0.55210 0.04500
C 	C 	0.67000 0.89860 0.60890 0.00400
H 	H 	0.70700 0.89640 0.65530 0.02700
C 	C 	0.58510 0.83210 0.60400 -0.12200
H 	H 	0.56270 0.78500 0.64690 0.07900
C 	C 	0.53090 0.83550 0.53220 0.06800
O 	O 	0.35730 0.57530 0.81730 -0.45000
N 	N 	0.50560 0.39640 0.91050 -0.15300
N 	N 	0.55800 0.33270 0.01050 -0.23300
C 	C 	0.45930 0.49200 0.83020 -0.13500
H 	H 	0.42810 0.49120 0.88430 0.09000
C 	C 	0.50450 0.44660 0.82850 0.15300
C 	C 	0.57630 0.38780 0.93810 0.08900
H 	H 	0.63210 0.41760 0.90900 -0.01200
C 	C 	0.43470 0.34240 0.97110 0.05500
C 	C 	0.34850 0.32460 0.97550 -0.08100
H 	H 	0.32650 0.35020 0.93320 0.06200
C 	C 	0.29480 0.26650 0.04620 -0.04300
H 	H 	0.23550 0.25270 0.05210 0.04500
C 	C 	0.33000 0.22860 0.10890 0.00500
H 	H 	0.29300 0.18940 0.15530 0.02700
C 	C 	0.41490 0.24700 0.10400 -0.12200
H 	H 	0.43730 0.22230 0.14690 0.07900
C 	C 	0.46910 0.30460 0.03220 0.06800
O 	O 	0.42470 0.78200 0.81730 -0.45000
N 	N 	0.60360 0.10920 0.91050 -0.15300
N 	N 	0.66730 0.22530 0.01050 -0.23300
C 	C 	0.50800 0.96730 0.83020 -0.13400
H 	H 	0.50880 0.93690 0.88430 0.09000
C 	C 	0.55340 0.05790 0.82850 0.15300
C 	C 	0.61220 0.18850 0.93810 0.08900
H 	H 	0.58240 0.21450 0.90900 -0.01200
C 	C 	0.65760 0.09230 0.97110 0.05600
C 	C 	0.67540 0.02390 0.97550 -0.08500
H 	H 	0.64980 0.97630 0.93320 0.06300
C 	C 	0.73350 0.02830 0.04620 -0.03800
H 	H 	0.74730 0.98280 0.05210 0.04300
C 	C 	0.77140 0.10140 0.10890 0.00200
H 	H 	0.81060 0.10360 0.15530 0.02800
C 	C 	0.75300 0.16790 0.10400 -0.12100
H 	H 	0.77770 0.21500 0.14690 0.07900
C 	C 	0.69540 0.16450 0.03220 0.06800
O 	O 	0.21800 0.64270 0.81730 -0.45000
N 	N 	0.89080 0.49440 0.91050 -0.15300
N 	N 	0.77470 0.44200 0.01050 -0.23300
C 	C 	0.03270 0.54070 0.83020 -0.13400
H 	H 	0.06310 0.57190 0.88430 0.09000
C 	C 	0.94210 0.49550 0.82850 0.15300
C 	C 	0.81150 0.42370 0.93810 0.08900
H 	H 	0.78550 0.36790 0.90900 -0.01200
C 	C 	0.90770 0.56530 0.97110 0.05600
C 	C 	0.97610 0.65150 0.97550 -0.08400
H 	H 	0.02370 0.67350 0.93320 0.06300
C 	C 	0.97170 0.70520 0.04620 -0.03900
H 	H 	0.01720 0.76450 0.05210 0.04300
C 	C 	0.89860 0.67000 0.10890 0.00200
H 	H 	0.89640 0.70700 0.15530 0.02700
C 	C 	0.83210 0.58510 0.10400 -0.12100
H 	H 	0.78500 0.56270 0.14690 0.07900
C 	C 	0.83550 0.53090 0.03220 0.06800
O 	O 	0.42470 0.64270 0.68270 -0.45000
N 	N 	0.60360 0.49440 0.58950 -0.15300
N 	N 	0.66730 0.44200 0.48950 -0.23300
C 	C 	0.50800 0.54070 0.66980 -0.13500
H 	H 	0.50880 0.57190 0.61570 0.09000
C 	C 	0.55340 0.49550 0.67150 0.15300
C 	C 	0.61220 0.42370 0.56190 0.08900
H 	H 	0.58240 0.36790 0.59100 -0.01200
C 	C 	0.65760 0.56530 0.52890 0.05500
C 	C 	0.67540 0.65150 0.52450 -0.08100
H 	H 	0.64980 0.67350 0.56680 0.06200
C 	C 	0.73350 0.70520 0.45380 -0.04300
H 	H 	0.74730 0.76450 0.44790 0.04500
C 	C 	0.77140 0.67000 0.39110 0.00500
H 	H 	0.81060 0.70700 0.34470 0.02700
C 	C 	0.75300 0.58510 0.39600 -0.12200
H 	H 	0.77770 0.56270 0.35310 0.07900
C 	C 	0.69540 0.53090 0.46780 0.06800
O 	O 	0.21800 0.57530 0.68270 -0.45000
N 	N 	0.89080 0.39640 0.58950 -0.15300
N 	N 	0.77470 0.33270 0.48950 -0.23300
C 	C 	0.03270 0.49200 0.66980 -0.13400
H 	H 	0.06310 0.49120 0.61570 0.09000
C 	C 	0.94210 0.44660 0.67150 0.15300
C 	C 	0.81150 0.38780 0.56190 0.08900
H 	H 	0.78550 0.41760 0.59100 -0.01200
C 	C 	0.90770 0.34240 0.52890 0.05500
C 	C 	0.97610 0.32460 0.52450 -0.08100
H 	H 	0.02370 0.35020 0.56680 0.06200
C 	C 	0.97170 0.26650 0.45380 -0.04200
H 	H 	0.01720 0.25270 0.44790 0.04500
C 	C 	0.89860 0.22860 0.39110 0.00400
H 	H 	0.89640 0.18940 0.34470 0.02700
C 	C 	0.83210 0.24700 0.39600 -0.12200
H 	H 	0.78500 0.22230 0.35310 0.07900
C 	C 	0.83550 0.30460 0.46780 0.06800
O 	O 	0.35730 0.78200 0.68270 -0.45000
N 	N 	0.50560 0.10920 0.58950 -0.15300
N 	N 	0.55800 0.22530 0.48950 -0.23300
C 	C 	0.45930 0.96730 0.66980 -0.13400
H 	H 	0.42810 0.93690 0.61570 0.09000
C 	C 	0.50450 0.05790 0.67150 0.15300
C 	C 	0.57630 0.18850 0.56190 0.08900
H 	H 	0.63210 0.21450 0.59100 -0.01200
C 	C 	0.43470 0.09230 0.52890 0.05500
C 	C 	0.34850 0.02390 0.52450 -0.08100
H 	H 	0.32650 0.97630 0.56680 0.06200
C 	C 	0.29480 0.02830 0.45380 -0.04200
H 	H 	0.23550 0.98280 0.44790 0.04500
C 	C 	0.33000 0.10140 0.39110 0.00400
H 	H 	0.29300 0.10360 0.34470 0.02700
C 	C 	0.41490 0.16790 0.39600 -0.12200
H 	H 	0.43730 0.21500 0.35310 0.07900
C 	C 	0.46910 0.16450 0.46780 0.06800
Mn	Mn	0.66667 0.33333 0.10400 1.28600
Mn	Mn	0.66667 0.33333 0.39600 1.28600
Mn	Mn	0.33333 0.66667 0.89600 1.28600
Mn	Mn	0.33333 0.66667 0.60400 1.28600
C 	C 	0.59030 0.40970 0.25000 0.36000
C 	C 	0.54030 0.45970 0.25000 -0.00800
C 	C 	0.44640 0.55360 0.25000 -0.20400
H 	H 	0.41530 0.58470 0.25000 0.10700
C 	C 	0.59030 0.18060 0.25000 0.36000
C 	C 	0.54030 0.08060 0.25000 -0.00800
C 	C 	0.44640 0.89280 0.25000 -0.20400
H 	H 	0.41530 0.83060 0.25000 0.10700
C 	C 	0.81940 0.40970 0.25000 0.36000
C 	C 	0.91940 0.45970 0.25000 -0.00800
C 	C 	0.10720 0.55360 0.25000 -0.20400
H 	H 	0.16940 0.58470 0.25000 0.10700
C 	C 	0.40970 0.59030 0.75000 0.36000
C 	C 	0.45970 0.54030 0.75000 -0.00800
C 	C 	0.55360 0.44640 0.75000 -0.20400
H 	H 	0.58470 0.41530 0.75000 0.10700
C 	C 	0.40970 0.81940 0.75000 0.36000
C 	C 	0.45970 0.91940 0.75000 -0.00800
C 	C 	0.55360 0.10720 0.75000 -0.20400
H 	H 	0.58470 0.16940 0.75000 0.10700
C 	C 	0.18060 0.59030 0.75000 0.36000
C 	C 	0.08060 0.54030 0.75000 -0.00800
C 	C 	0.89280 0.44640 0.75000 -0.20400
H 	H 	0.83060 0.41530 0.75000 0.10700
