data_crystal

_cell_length_a 7.73510
_cell_length_b 10.81720
_cell_length_c 7.15400
_cell_angle_alpha 90.00000
_cell_angle_beta  90.00000
_cell_angle_gamma 90.00000

_symmetry_space_group_name_	'P 1'
_symmetry_space_group_name_H-M	'P 1'

loop_
_symmetry_equiv_pos_as_xyz
  x,y,z

loop_
_atom_site_label
_atom_site_type_symbol
_atom_site_fract_x
_atom_site_fract_y
_atom_site_fract_z
_atom_site_charge
N 	N 	0.09110 0.58155 0.39540 -0.15200
N 	N 	0.92140 0.59212 0.40410 -0.14900
C 	C 	0.16350 0.48930 0.49080 0.07500
H 	H 	0.28400 0.48100 0.48300 -0.02600
N 	N 	0.90890 0.08155 0.60460 -0.15100
N 	N 	0.07860 0.09212 0.59590 -0.14800
C 	C 	0.83650 0.98930 0.50920 0.07400
H 	H 	0.71600 0.98100 0.51700 -0.02500
N 	N 	0.90890 0.41845 0.60460 -0.15100
N 	N 	0.07860 0.40788 0.59590 -0.14800
C 	C 	0.83650 0.51070 0.50920 0.07500
H 	H 	0.71600 0.51900 0.51700 -0.02600
N 	N 	0.09110 0.91845 0.39540 -0.15100
N 	N 	0.92140 0.90788 0.40410 -0.14800
C 	C 	0.16350 0.01070 0.49080 0.07400
H 	H 	0.28400 0.01900 0.48300 -0.02500
Ag	Ag	0.27445 0.75000 0.29211 0.50100
Ag	Ag	0.72555 0.25000 0.70789 0.50100
N 	N 	0.40890 0.41845 0.89540 -0.15200
N 	N 	0.57860 0.40788 0.90410 -0.14800
C 	C 	0.33650 0.51070 0.99080 0.07500
H 	H 	0.21600 0.51900 0.98300 -0.02600
N 	N 	0.59110 0.91845 0.10460 -0.15100
N 	N 	0.42140 0.90788 0.09590 -0.14700
C 	C 	0.66350 0.01070 0.00920 0.07300
H 	H 	0.78400 0.01900 0.01700 -0.02500
N 	N 	0.59110 0.58155 0.10460 -0.15200
N 	N 	0.42140 0.59212 0.09590 -0.14800
C 	C 	0.66350 0.48930 0.00920 0.07500
H 	H 	0.78400 0.48100 0.01700 -0.02600
N 	N 	0.40890 0.08155 0.89540 -0.15100
N 	N 	0.57860 0.09212 0.90410 -0.14700
C 	C 	0.33650 0.98930 0.99080 0.07300
H 	H 	0.21600 0.98100 0.98300 -0.02500
Ag	Ag	0.22555 0.25000 0.79211 0.50100
Ag	Ag	0.77445 0.75000 0.20789 0.50100
