data_crystal

_cell_length_a 10.58470
_cell_length_b 19.05790
_cell_length_c 23.13270
_cell_angle_alpha 90.00000
_cell_angle_beta  102.03800
_cell_angle_gamma 90.00000

_symmetry_space_group_name_	'P 1'
_symmetry_space_group_name_H-M	'P 1'

loop_
_symmetry_equiv_pos_as_xyz
  x,y,z

loop_
_atom_site_label
_atom_site_type_symbol
_atom_site_fract_x
_atom_site_fract_y
_atom_site_fract_z
_atom_site_charge
Ag	Ag	0.38349 0.92526 0.12783 0.44300
Ag	Ag	0.13077 0.08301 0.37686 0.42400
Ag	Ag	0.40602 0.16018 0.33581 0.38200
C 	C 	0.33720 0.04340 0.22750 0.16100
C 	C 	0.44080 0.08270 0.20670 -0.49800
H 	H 	0.49860 0.04980 0.19340 0.11600
H 	H 	0.48910 0.11070 0.23890 0.09800
H 	H 	0.40240 0.11320 0.17420 0.12500
C 	C 	0.15290 0.97740 0.26390 0.18700
C 	C 	0.04680 0.93980 0.28420 -0.53100
H 	H 	0.98260 0.92470 0.25020 0.13900
H 	H 	0.00700 0.97100 0.30830 0.12500
H 	H 	0.08170 0.89910 0.30730 0.13800
C 	C 	0.09190 0.96700 0.48200 0.18300
C 	C 	0.19400 0.92790 0.46140 -0.53200
H 	H 	0.19460 0.87960 0.47470 0.13700
H 	H 	0.27710 0.94930 0.47730 0.12300
H 	H 	0.17770 0.92910 0.41850 0.13200
C 	C 	0.40590 0.03300 0.01780 0.18500
C 	C 	0.30330 0.07080 0.04000 -0.53900
H 	H 	0.22930 0.07760 0.00780 0.14300
H 	H 	0.27760 0.04340 0.07100 0.13200
H 	H 	0.33570 0.11600 0.05560 0.14300
N 	N 	0.29120 0.98350 0.20050 -0.18400
N 	N 	0.19530 0.95060 0.21780 -0.15600
N 	N 	0.29530 0.06950 0.27480 -0.19700
N 	N 	0.20220 0.03510 0.29340 -0.19900
N 	N 	0.04090 0.02470 0.45210 -0.18800
N 	N 	0.05160 0.94160 0.52980 -0.15600
N 	N 	0.43460 0.05280 0.96650 -0.15700
N 	N 	0.47050 0.98050 0.05170 -0.18500
Ag	Ag	0.61651 0.07474 0.87217 0.44400
Ag	Ag	0.86923 0.91699 0.62314 0.42500
Ag	Ag	0.59398 0.83982 0.66419 0.38300
C 	C 	0.66280 0.95660 0.77250 0.16200
C 	C 	0.55920 0.91730 0.79330 -0.49700
H 	H 	0.50140 0.95020 0.80660 0.11700
H 	H 	0.51090 0.88930 0.76110 0.09800
H 	H 	0.59760 0.88680 0.82580 0.12500
C 	C 	0.84710 0.02260 0.73610 0.18700
C 	C 	0.95320 0.06020 0.71580 -0.53100
H 	H 	0.01740 0.07530 0.74980 0.13900
H 	H 	0.99300 0.02900 0.69170 0.12500
H 	H 	0.91830 0.10090 0.69270 0.13800
C 	C 	0.90810 0.03300 0.51800 0.18300
C 	C 	0.80600 0.07210 0.53860 -0.53200
H 	H 	0.80540 0.12040 0.52530 0.13700
H 	H 	0.72290 0.05070 0.52270 0.12300
H 	H 	0.82230 0.07090 0.58150 0.13200
C 	C 	0.59410 0.96700 0.98220 0.18500
C 	C 	0.69670 0.92920 0.96000 -0.53900
H 	H 	0.77070 0.92240 0.99220 0.14300
H 	H 	0.72240 0.95660 0.92900 0.13200
H 	H 	0.66430 0.88400 0.94440 0.14300
N 	N 	0.70880 0.01650 0.79950 -0.18400
N 	N 	0.80470 0.04940 0.78220 -0.15600
N 	N 	0.70470 0.93050 0.72520 -0.19700
N 	N 	0.79780 0.96490 0.70660 -0.19900
N 	N 	0.95910 0.97530 0.54790 -0.18800
N 	N 	0.94840 0.05840 0.47020 -0.15600
N 	N 	0.56540 0.94720 0.03350 -0.15700
N 	N 	0.52950 0.01950 0.94830 -0.18500
Ag	Ag	0.61651 0.42526 0.37217 0.44400
Ag	Ag	0.86923 0.58301 0.12314 0.42600
Ag	Ag	0.59398 0.66018 0.16419 0.38300
C 	C 	0.66280 0.54340 0.27250 0.16300
C 	C 	0.55920 0.58270 0.29330 -0.49800
H 	H 	0.50140 0.54980 0.30660 0.11700
H 	H 	0.51090 0.61070 0.26110 0.09800
H 	H 	0.59760 0.61320 0.32580 0.12600
C 	C 	0.84710 0.47740 0.23610 0.18700
C 	C 	0.95320 0.43980 0.21580 -0.53400
H 	H 	0.01740 0.42470 0.24980 0.14100
H 	H 	0.99300 0.47100 0.19170 0.12600
H 	H 	0.91830 0.39910 0.19270 0.13900
C 	C 	0.90810 0.46700 0.01800 0.18200
C 	C 	0.80600 0.42790 0.03860 -0.53100
H 	H 	0.80540 0.37960 0.02530 0.13700
H 	H 	0.72290 0.44930 0.02270 0.12300
H 	H 	0.82230 0.42910 0.08150 0.13100
C 	C 	0.59410 0.53300 0.48220 0.18600
C 	C 	0.69670 0.57080 0.46000 -0.54000
H 	H 	0.77070 0.57760 0.49220 0.14300
H 	H 	0.72240 0.54340 0.42900 0.13200
H 	H 	0.66430 0.61600 0.44440 0.14300
N 	N 	0.70880 0.48350 0.29950 -0.18400
N 	N 	0.80470 0.45060 0.28220 -0.15600
N 	N 	0.70470 0.56950 0.22520 -0.19700
N 	N 	0.79780 0.53510 0.20660 -0.19900
N 	N 	0.95910 0.52470 0.04790 -0.18700
N 	N 	0.94840 0.44160 0.97020 -0.15600
N 	N 	0.56540 0.55280 0.53350 -0.15700
N 	N 	0.52950 0.48050 0.44830 -0.18500
Ag	Ag	0.38349 0.57474 0.62783 0.44400
Ag	Ag	0.13077 0.41699 0.87686 0.42600
Ag	Ag	0.40602 0.33982 0.83581 0.38300
C 	C 	0.33720 0.45660 0.72750 0.16300
C 	C 	0.44080 0.41730 0.70670 -0.49800
H 	H 	0.49860 0.45020 0.69340 0.11700
H 	H 	0.48910 0.38930 0.73890 0.09800
H 	H 	0.40240 0.38680 0.67420 0.12600
C 	C 	0.15290 0.52260 0.76390 0.18700
C 	C 	0.04680 0.56020 0.78420 -0.53400
H 	H 	0.98260 0.57530 0.75020 0.14100
H 	H 	0.00700 0.52900 0.80830 0.12600
H 	H 	0.08170 0.60090 0.80730 0.13900
C 	C 	0.09190 0.53300 0.98200 0.18200
C 	C 	0.19400 0.57210 0.96140 -0.53100
H 	H 	0.19460 0.62040 0.97470 0.13700
H 	H 	0.27710 0.55070 0.97730 0.12300
H 	H 	0.17770 0.57090 0.91850 0.13100
C 	C 	0.40590 0.46700 0.51780 0.18600
C 	C 	0.30330 0.42920 0.54000 -0.54000
H 	H 	0.22930 0.42240 0.50780 0.14300
H 	H 	0.27760 0.45660 0.57100 0.13200
H 	H 	0.33570 0.38400 0.55560 0.14300
N 	N 	0.29120 0.51650 0.70050 -0.18400
N 	N 	0.19530 0.54940 0.71780 -0.15600
N 	N 	0.29530 0.43050 0.77480 -0.19700
N 	N 	0.20220 0.46490 0.79340 -0.19900
N 	N 	0.04090 0.47530 0.95210 -0.18700
N 	N 	0.05160 0.55840 0.02980 -0.15600
N 	N 	0.43460 0.44720 0.46650 -0.15700
N 	N 	0.47050 0.51950 0.55170 -0.18500
