data_crystal

_cell_length_a 26.40130
_cell_length_b 26.40130
_cell_length_c 9.66620
_cell_angle_alpha 90.00000
_cell_angle_beta  90.00000
_cell_angle_gamma 120.00000

_symmetry_space_group_name_	'P 1'
_symmetry_space_group_name_H-M	'P 1'

loop_
_symmetry_equiv_pos_as_xyz
  x,y,z

loop_
_atom_site_label
_atom_site_type_symbol
_atom_site_fract_x
_atom_site_fract_y
_atom_site_fract_z
_atom_site_charge
C 	C 	0.32290 0.25120 0.88420 0.01500
N 	N 	0.33130 0.22160 0.81350 -0.24200
C 	C 	0.45350 0.18410 0.67600 0.09100
H 	H 	0.43320 0.14350 0.68060 -0.03200
C 	C 	0.51310 0.21180 0.67200 -0.16300
H 	H 	0.53230 0.19040 0.66830 0.08200
C 	C 	0.98957 0.58453 0.21753 -0.06500
N 	N 	0.99797 0.55493 0.14683 -0.24200
C 	C 	0.12017 0.51743 0.00933 0.08100
H 	H 	0.09987 0.47683 0.01393 -0.04800
C 	C 	0.17977 0.54513 0.00533 -0.16700
H 	H 	0.19897 0.52373 0.00163 0.07600
C 	C 	0.65623 0.91787 0.55087 -0.03200
N 	N 	0.66463 0.88827 0.48017 -0.23300
C 	C 	0.78683 0.85077 0.34267 0.07300
H 	H 	0.76653 0.81017 0.34727 -0.02700
C 	C 	0.84643 0.87847 0.33867 -0.13600
H 	H 	0.86563 0.85707 0.33497 0.07200
C 	C 	0.74880 0.07170 0.88420 0.01000
N 	N 	0.77840 0.10970 0.81350 -0.24200
C 	C 	0.81590 0.26940 0.67600 0.09000
H 	H 	0.85650 0.28970 0.68060 -0.02800
C 	C 	0.78820 0.30130 0.67200 -0.16200
H 	H 	0.80960 0.34190 0.66830 0.08400
C 	C 	0.41547 0.40503 0.21753 -0.07500
N 	N 	0.44507 0.44303 0.14683 -0.24900
C 	C 	0.48257 0.60273 0.00933 0.08200
H 	H 	0.52317 0.62303 0.01393 -0.04500
C 	C 	0.45487 0.63463 0.00533 -0.16700
H 	H 	0.47627 0.67523 0.00163 0.07700
C 	C 	0.08213 0.73837 0.55087 -0.04500
N 	N 	0.11173 0.77637 0.48017 -0.23300
C 	C 	0.14923 0.93607 0.34267 0.06300
H 	H 	0.18983 0.95637 0.34727 -0.01700
C 	C 	0.12153 0.96797 0.33867 -0.10700
H 	H 	0.14293 0.00857 0.33497 0.04500
C 	C 	0.92830 0.67710 0.88420 0.02800
N 	N 	0.89030 0.66870 0.81350 -0.24300
C 	C 	0.73060 0.54650 0.67600 0.09100
H 	H 	0.71030 0.56680 0.68060 -0.03000
C 	C 	0.69870 0.48690 0.67200 -0.16300
H 	H 	0.65810 0.46770 0.66830 0.08300
C 	C 	0.59497 0.01043 0.21753 -0.08500
N 	N 	0.55697 0.00203 0.14683 -0.25400
C 	C 	0.39727 0.87983 0.00933 0.08200
H 	H 	0.37697 0.90013 0.01393 -0.04100
C 	C 	0.36537 0.82023 0.00533 -0.16500
H 	H 	0.32477 0.80103 0.00163 0.07600
C 	C 	0.26163 0.34377 0.55087 -0.03900
N 	N 	0.22363 0.33537 0.48017 -0.23300
C 	C 	0.06393 0.21317 0.34267 0.12100
H 	H 	0.04363 0.23347 0.34727 -0.04900
C 	C 	0.03203 0.15357 0.33867 -0.23100
H 	H 	0.99143 0.13437 0.33497 0.11700
C 	C 	0.25120 0.32290 0.11580 -0.07600
N 	N 	0.22160 0.33130 0.18650 -0.23700
C 	C 	0.18410 0.45350 0.32400 0.09600
H 	H 	0.14350 0.43320 0.31940 -0.03300
C 	C 	0.21180 0.51310 0.32800 -0.16100
H 	H 	0.19040 0.53230 0.33170 0.09100
C 	C 	0.91787 0.65623 0.44913 -0.05900
N 	N 	0.88827 0.66463 0.51983 -0.23600
C 	C 	0.85077 0.78683 0.65733 0.08700
H 	H 	0.81017 0.76653 0.65273 -0.02300
C 	C 	0.87847 0.84643 0.66133 -0.13700
H 	H 	0.85707 0.86563 0.66503 0.08900
C 	C 	0.58453 0.98957 0.78247 -0.01900
N 	N 	0.55493 0.99797 0.85317 -0.19900
C 	C 	0.51743 0.12017 0.99067 0.10100
H 	H 	0.47683 0.09987 0.98607 -0.01200
C 	C 	0.54513 0.17977 0.99467 -0.15400
H 	H 	0.52373 0.19897 0.99837 0.09800
C 	C 	0.07170 0.74880 0.11580 -0.07900
N 	N 	0.10970 0.77840 0.18650 -0.23700
C 	C 	0.26940 0.81590 0.32400 0.09500
H 	H 	0.28970 0.85650 0.31940 -0.02900
C 	C 	0.30130 0.78820 0.32800 -0.16000
H 	H 	0.34190 0.80960 0.33170 0.09300
C 	C 	0.73837 0.08213 0.44913 -0.07200
N 	N 	0.77637 0.11173 0.51983 -0.23600
C 	C 	0.93607 0.14923 0.65733 0.08200
H 	H 	0.95637 0.18983 0.65273 -0.01500
C 	C 	0.96797 0.12153 0.66133 -0.11800
H 	H 	0.00857 0.14293 0.66503 0.06900
C 	C 	0.40503 0.41547 0.78247 -0.02900
N 	N 	0.44303 0.44507 0.85317 -0.20600
C 	C 	0.60273 0.48257 0.99067 0.10100
H 	H 	0.62303 0.52317 0.98607 -0.01000
C 	C 	0.63463 0.45487 0.99467 -0.15300
H 	H 	0.67523 0.47627 0.99837 0.09800
C 	C 	0.67710 0.92830 0.11580 -0.05800
N 	N 	0.66870 0.89030 0.18650 -0.23900
C 	C 	0.54650 0.73060 0.32400 0.09600
H 	H 	0.56680 0.71030 0.31940 -0.03100
C 	C 	0.48690 0.69870 0.32800 -0.16000
H 	H 	0.46770 0.65810 0.33170 0.09100
C 	C 	0.34377 0.26163 0.44913 -0.06600
N 	N 	0.33537 0.22363 0.51983 -0.23600
C 	C 	0.21317 0.06393 0.65733 0.13600
H 	H 	0.23347 0.04363 0.65273 -0.04600
C 	C 	0.15357 0.03203 0.66133 -0.23500
H 	H 	0.13437 0.99143 0.66503 0.13700
C 	C 	0.01043 0.59497 0.78247 -0.03700
N 	N 	0.00203 0.55697 0.85317 -0.21000
C 	C 	0.87983 0.39727 0.99067 0.10100
H 	H 	0.90013 0.37697 0.98607 -0.00700
C 	C 	0.82023 0.36537 0.99467 -0.15200
H 	H 	0.80103 0.32477 0.99837 0.09800
C 	C 	0.67710 0.74880 0.11580 -0.07400
N 	N 	0.66870 0.77840 0.18650 -0.23700
C 	C 	0.54650 0.81590 0.32400 0.09500
H 	H 	0.56680 0.85650 0.31940 -0.02900
C 	C 	0.48690 0.78820 0.32800 -0.16000
H 	H 	0.46770 0.80960 0.33170 0.09300
C 	C 	0.34377 0.08213 0.44913 -0.07200
N 	N 	0.33537 0.11173 0.51983 -0.23600
C 	C 	0.21317 0.14923 0.65733 0.11400
H 	H 	0.23347 0.18983 0.65273 -0.03200
C 	C 	0.15357 0.12153 0.66133 -0.18500
H 	H 	0.13437 0.14293 0.66503 0.10400
C 	C 	0.01043 0.41547 0.78247 -0.03700
N 	N 	0.00203 0.44507 0.85317 -0.21000
C 	C 	0.87983 0.48257 0.99067 0.10100
H 	H 	0.90013 0.52317 0.98607 -0.00700
C 	C 	0.82023 0.45487 0.99467 -0.15200
H 	H 	0.80103 0.47627 0.99837 0.09800
C 	C 	0.25120 0.92830 0.11580 -0.05900
N 	N 	0.22160 0.89030 0.18650 -0.23900
C 	C 	0.18410 0.73060 0.32400 0.09600
H 	H 	0.14350 0.71030 0.31940 -0.03300
C 	C 	0.21180 0.69870 0.32800 -0.16000
H 	H 	0.19040 0.65810 0.33170 0.09000
C 	C 	0.91787 0.26163 0.44913 -0.05900
N 	N 	0.88827 0.22363 0.51983 -0.23600
C 	C 	0.85077 0.06393 0.65733 0.12400
H 	H 	0.81017 0.04363 0.65273 -0.04200
C 	C 	0.87847 0.03203 0.66133 -0.21200
H 	H 	0.85707 0.99143 0.66503 0.13000
C 	C 	0.58453 0.59497 0.78247 -0.02900
N 	N 	0.55493 0.55697 0.85317 -0.20600
C 	C 	0.51743 0.39727 0.99067 0.10100
H 	H 	0.47683 0.37697 0.98607 -0.01000
C 	C 	0.54513 0.36537 0.99467 -0.15300
H 	H 	0.52373 0.32477 0.99837 0.09800
C 	C 	0.07170 0.32290 0.11580 -0.08000
N 	N 	0.10970 0.33130 0.18650 -0.23700
C 	C 	0.26940 0.45350 0.32400 0.09600
H 	H 	0.28970 0.43320 0.31940 -0.03100
C 	C 	0.30130 0.51310 0.32800 -0.16000
H 	H 	0.34190 0.53230 0.33170 0.09200
C 	C 	0.73837 0.65623 0.44913 -0.06500
N 	N 	0.77637 0.66463 0.51983 -0.23600
C 	C 	0.93607 0.78683 0.65733 0.06800
H 	H 	0.95637 0.76653 0.65273 -0.01000
C 	C 	0.96797 0.84643 0.66133 -0.09300
H 	H 	0.00857 0.86563 0.66503 0.06100
C 	C 	0.40503 0.98957 0.78247 -0.01900
N 	N 	0.44303 0.99797 0.85317 -0.19900
C 	C 	0.60273 0.12017 0.99067 0.10100
H 	H 	0.62303 0.09987 0.98607 -0.01200
C 	C 	0.63463 0.17977 0.99467 -0.15400
H 	H 	0.67523 0.19897 0.99837 0.09800
C 	C 	0.74880 0.67710 0.88420 0.01500
N 	N 	0.77840 0.66870 0.81350 -0.24200
C 	C 	0.81590 0.54650 0.67600 0.09000
H 	H 	0.85650 0.56680 0.68060 -0.02800
C 	C 	0.78820 0.48690 0.67200 -0.16200
H 	H 	0.80960 0.46770 0.66830 0.08400
C 	C 	0.41547 0.01043 0.21753 -0.08500
N 	N 	0.44507 0.00203 0.14683 -0.25400
C 	C 	0.48257 0.87983 0.00933 0.08200
H 	H 	0.52317 0.90013 0.01393 -0.04100
C 	C 	0.45487 0.82023 0.00533 -0.16500
H 	H 	0.47627 0.80103 0.00163 0.07600
C 	C 	0.08213 0.34377 0.55087 -0.04500
N 	N 	0.11173 0.33537 0.48017 -0.23300
C 	C 	0.14923 0.21317 0.34267 0.10100
H 	H 	0.18983 0.23347 0.34727 -0.03700
C 	C 	0.12153 0.15357 0.33867 -0.18600
H 	H 	0.14293 0.13437 0.33497 0.08700
C 	C 	0.92830 0.25120 0.88420 0.02800
N 	N 	0.89030 0.22160 0.81350 -0.24400
C 	C 	0.73060 0.18410 0.67600 0.09100
H 	H 	0.71030 0.14350 0.68060 -0.03200
C 	C 	0.69870 0.21180 0.67200 -0.16300
H 	H 	0.65810 0.19040 0.66830 0.08200
C 	C 	0.59497 0.58453 0.21753 -0.07500
N 	N 	0.55697 0.55493 0.14683 -0.24900
C 	C 	0.39727 0.51743 0.00933 0.08200
H 	H 	0.37697 0.47683 0.01393 -0.04500
C 	C 	0.36537 0.54513 0.00533 -0.16700
H 	H 	0.32477 0.52373 0.00163 0.07600
C 	C 	0.26163 0.91787 0.55087 -0.03200
N 	N 	0.22363 0.88827 0.48017 -0.23300
C 	C 	0.06393 0.85077 0.34267 0.10600
H 	H 	0.04363 0.81017 0.34727 -0.04400
C 	C 	0.03203 0.87847 0.33867 -0.20400
H 	H 	0.99143 0.85707 0.33497 0.10800
C 	C 	0.32290 0.07170 0.88420 0.01000
N 	N 	0.33130 0.10970 0.81350 -0.24200
C 	C 	0.45350 0.26940 0.67600 0.09100
H 	H 	0.43320 0.28970 0.68060 -0.03000
C 	C 	0.51310 0.30130 0.67200 -0.16300
H 	H 	0.53230 0.34190 0.66830 0.08300
C 	C 	0.98957 0.40503 0.21753 -0.06500
N 	N 	0.99797 0.44303 0.14683 -0.24200
C 	C 	0.12017 0.60273 0.00933 0.08200
H 	H 	0.09987 0.62303 0.01393 -0.04800
C 	C 	0.17977 0.63463 0.00533 -0.16700
H 	H 	0.19897 0.67523 0.00163 0.07600
C 	C 	0.65623 0.73837 0.55087 -0.03900
N 	N 	0.66463 0.77637 0.48017 -0.23300
C 	C 	0.78683 0.93607 0.34267 0.05100
H 	H 	0.76653 0.95637 0.34727 -0.01200
C 	C 	0.84643 0.96797 0.33867 -0.08500
H 	H 	0.86563 0.00857 0.33497 0.03800
Au	Au	0.29228 0.29228 -0.00000 0.19200
Au	Au	0.95895 0.62561 0.33333 0.25800
Au	Au	0.62561 0.95895 0.66667 0.29100
Au	Au	0.70772 0.00000 -0.00000 0.17700
Au	Au	0.37439 0.33333 0.33333 0.25000
Au	Au	0.04105 0.66667 0.66667 0.27700
Au	Au	-0.00000 0.70772 -0.00000 0.18000
Au	Au	0.66667 0.04105 0.33333 0.24300
Au	Au	0.33333 0.37439 0.66667 0.28300
Au	Au	0.70772 0.70772 -0.00000 0.19400
Au	Au	0.37439 0.04105 0.33333 0.24300
Au	Au	0.04105 0.37439 0.66667 0.27700
Au	Au	0.29228 0.00000 -0.00000 0.17700
Au	Au	0.95895 0.33333 0.33333 0.25800
Au	Au	0.62561 0.66667 0.66667 0.28300
Au	Au	-0.00000 0.29228 -0.00000 0.17900
Au	Au	0.66667 0.62561 0.33333 0.25000
Au	Au	0.33333 0.95895 0.66667 0.29100
Fe	Fe	0.33333 0.16667 0.66667 1.15000
Fe	Fe	-0.00000 0.50000 -0.00000 1.08600
Fe	Fe	0.83333 0.16667 0.66667 1.15100
Fe	Fe	0.50000 0.50000 -0.00000 1.09600
Fe	Fe	0.83333 0.66667 0.66667 1.15100
Fe	Fe	0.50000 0.00000 -0.00000 1.08400
Fe	Fe	0.16667 0.33333 0.33333 1.14700
Fe	Fe	0.16667 0.83333 0.33333 1.14800
Fe	Fe	0.66667 0.83333 0.33333 1.14800
N 	N 	0.42240 0.21120 0.67300 -0.26500
C 	C 	0.54440 0.27220 0.67400 0.07300
C 	C 	0.60870 0.30435 0.67300 0.08200
N 	N 	0.08907 0.54453 0.00633 -0.27900
C 	C 	0.21107 0.60553 0.00733 0.06900
C 	C 	0.27537 0.63768 0.00633 0.07900
N 	N 	0.75573 0.87787 0.33967 -0.25500
C 	C 	0.87773 0.93887 0.34067 0.03500
C 	C 	0.94203 0.97102 0.33967 0.11600
N 	N 	0.78880 0.21120 0.67300 -0.26500
C 	C 	0.72780 0.27220 0.67400 0.07300
C 	C 	0.69565 0.30435 0.67300 0.08200
N 	N 	0.45547 0.54453 0.00633 -0.27700
C 	C 	0.39447 0.60553 0.00733 0.06900
C 	C 	0.36232 0.63768 0.00633 0.07900
N 	N 	0.12213 0.87787 0.33967 -0.26400
C 	C 	0.06113 0.93887 0.34067 0.06600
C 	C 	0.02898 0.97102 0.33967 0.08600
N 	N 	0.78880 0.57760 0.67300 -0.26500
C 	C 	0.72780 0.45560 0.67400 0.07300
C 	C 	0.69565 0.39130 0.67300 0.08200
N 	N 	0.45547 0.91093 0.00633 -0.27100
C 	C 	0.39447 0.78893 0.00733 0.06800
C 	C 	0.36232 0.72463 0.00633 0.07900
N 	N 	0.12213 0.24427 0.33967 -0.27500
C 	C 	0.06113 0.12227 0.34067 0.10300
C 	C 	0.02898 0.05797 0.33967 0.05000
N 	N 	0.21120 0.42240 0.32700 -0.26600
C 	C 	0.27220 0.54440 0.32600 0.08300
C 	C 	0.30435 0.60870 0.32700 0.09500
N 	N 	0.87787 0.75573 0.66033 -0.25600
C 	C 	0.93887 0.87773 0.65933 0.05500
C 	C 	0.97102 0.94203 0.66033 0.12700
N 	N 	0.54453 0.08907 0.99367 -0.24200
C 	C 	0.60553 0.21107 0.99267 0.08500
C 	C 	0.63768 0.27537 0.99367 0.09800
N 	N 	0.21120 0.78880 0.32700 -0.26600
C 	C 	0.27220 0.72780 0.32600 0.08300
C 	C 	0.30435 0.69565 0.32700 0.09500
N 	N 	0.87787 0.12213 0.66033 -0.26600
C 	C 	0.93887 0.06113 0.65933 0.09000
C 	C 	0.97102 0.02898 0.66033 0.09200
N 	N 	0.54453 0.45547 0.99367 -0.23900
C 	C 	0.60553 0.39447 0.99267 0.08500
C 	C 	0.63768 0.36232 0.99367 0.09900
N 	N 	0.57760 0.78880 0.32700 -0.26600
C 	C 	0.45560 0.72780 0.32600 0.08300
C 	C 	0.39130 0.69565 0.32700 0.09500
N 	N 	0.24427 0.12213 0.66033 -0.27500
C 	C 	0.12227 0.06113 0.65933 0.12100
C 	C 	0.05797 0.02898 0.66033 0.06200
N 	N 	0.91093 0.45547 0.99367 -0.23500
C 	C 	0.78893 0.39447 0.99267 0.08400
C 	C 	0.72463 0.36232 0.99367 0.09900
N 	N 	0.63640 0.36360 0.67000 -0.13700
N 	N 	0.30307 0.69693 0.00333 -0.14000
N 	N 	0.96973 0.03027 0.33667 -0.14000
N 	N 	0.63640 0.27280 0.67000 -0.13800
N 	N 	0.30307 0.60613 0.00333 -0.14000
N 	N 	0.96973 0.93947 0.33667 -0.13300
N 	N 	0.72720 0.36360 0.67000 -0.13700
N 	N 	0.39387 0.69693 0.00333 -0.13900
N 	N 	0.06053 0.03027 0.33667 -0.14700
N 	N 	0.36360 0.63640 0.33000 -0.13100
N 	N 	0.03027 0.96973 0.66333 -0.12800
N 	N 	0.69693 0.30307 0.99667 -0.12900
N 	N 	0.27280 0.63640 0.33000 -0.13100
N 	N 	0.93947 0.96973 0.66333 -0.12100
N 	N 	0.60613 0.30307 0.99667 -0.12900
N 	N 	0.36360 0.72720 0.33000 -0.13100
N 	N 	0.03027 0.06053 0.66333 -0.13500
N 	N 	0.69693 0.39387 0.99667 -0.12900
