data_crystal

_cell_length_a 26.80780
_cell_length_b 26.80780
_cell_length_c 9.94060
_cell_angle_alpha 90.00000
_cell_angle_beta  90.00000
_cell_angle_gamma 120.00000

_symmetry_space_group_name_	'P 1'
_symmetry_space_group_name_H-M	'P 1'

loop_
_symmetry_equiv_pos_as_xyz
  x,y,z

loop_
_atom_site_label
_atom_site_type_symbol
_atom_site_fract_x
_atom_site_fract_y
_atom_site_fract_z
_atom_site_charge
N 	N 	0.89210 0.22510 0.81870 -0.23700
C 	C 	0.72900 0.18670 0.67540 0.08600
H 	H 	0.70890 0.14660 0.67610 -0.03300
C 	C 	0.69780 0.21390 0.67690 -0.16500
H 	H 	0.65780 0.19290 0.68030 0.08300
C 	C 	0.92970 0.25230 0.88410 0.02700
N 	N 	0.55877 0.55843 0.15203 -0.23900
C 	C 	0.39567 0.52003 0.00873 0.07900
H 	H 	0.37557 0.47993 0.00943 -0.04600
C 	C 	0.36447 0.54723 0.01023 -0.16700
H 	H 	0.32447 0.52623 0.01363 0.07800
C 	C 	0.59637 0.58563 0.21743 -0.07400
N 	N 	0.22543 0.89177 0.48537 -0.22500
C 	C 	0.06233 0.85337 0.34207 0.10100
H 	H 	0.04223 0.81327 0.34277 -0.04300
C 	C 	0.03113 0.88057 0.34357 -0.20100
H 	H 	0.99113 0.85957 0.34697 0.10800
C 	C 	0.26303 0.91897 0.55077 -0.03300
N 	N 	0.77490 0.66700 0.81870 -0.23400
C 	C 	0.81330 0.54230 0.67540 0.08600
H 	H 	0.85340 0.56230 0.67610 -0.02800
C 	C 	0.78610 0.48390 0.67690 -0.16300
H 	H 	0.80710 0.46490 0.68030 0.08500
C 	C 	0.74770 0.67740 0.88410 0.01400
N 	N 	0.44157 0.00033 0.15203 -0.24300
C 	C 	0.47997 0.87563 0.00873 0.07900
H 	H 	0.52007 0.89563 0.00943 -0.04200
C 	C 	0.45277 0.81723 0.01023 -0.16600
H 	H 	0.47377 0.79823 0.01363 0.07900
C 	C 	0.41437 0.01073 0.21743 -0.08300
N 	N 	0.10823 0.33367 0.48537 -0.22500
C 	C 	0.14663 0.20897 0.34207 0.09700
H 	H 	0.18673 0.22897 0.34277 -0.03700
C 	C 	0.11943 0.15057 0.34357 -0.18600
H 	H 	0.14043 0.13157 0.34697 0.08800
C 	C 	0.08103 0.34407 0.55077 -0.04500
N 	N 	0.33300 0.10790 0.81870 -0.23400
C 	C 	0.45770 0.27100 0.67540 0.08700
H 	H 	0.43770 0.29110 0.67610 -0.03000
C 	C 	0.51610 0.30220 0.67690 -0.16300
H 	H 	0.53510 0.34220 0.68030 0.08500
C 	C 	0.32260 0.07030 0.88410 0.00900
N 	N 	0.99967 0.44123 0.15203 -0.23300
C 	C 	0.12437 0.60433 0.00873 0.07900
H 	H 	0.10437 0.62443 0.00943 -0.04700
C 	C 	0.18277 0.63553 0.01023 -0.16800
H 	H 	0.20177 0.67553 0.01363 0.07900
C 	C 	0.98927 0.40363 0.21743 -0.06500
N 	N 	0.66633 0.77457 0.48537 -0.22500
C 	C 	0.79103 0.93767 0.34207 0.04800
H 	H 	0.77103 0.95777 0.34277 -0.01400
C 	C 	0.84943 0.96887 0.34357 -0.08800
H 	H 	0.86843 0.00887 0.34697 0.04200
C 	C 	0.65593 0.73697 0.55077 -0.04000
N 	N 	0.22510 0.89210 0.18130 -0.23100
C 	C 	0.18670 0.72900 0.32460 0.09200
H 	H 	0.14660 0.70890 0.32390 -0.03300
C 	C 	0.21390 0.69780 0.32310 -0.16200
H 	H 	0.19290 0.65780 0.31970 0.09100
C 	C 	0.25230 0.92970 0.11590 -0.05800
N 	N 	0.89177 0.22543 0.51463 -0.22800
C 	C 	0.85337 0.06233 0.65793 0.11900
H 	H 	0.81327 0.04223 0.65723 -0.04100
C 	C 	0.88057 0.03113 0.65643 -0.21100
H 	H 	0.85957 0.99113 0.65303 0.12800
C 	C 	0.91897 0.26303 0.44923 -0.05900
N 	N 	0.55843 0.55877 0.84797 -0.20100
C 	C 	0.52003 0.39567 0.99127 0.09700
H 	H 	0.47993 0.37557 0.99057 -0.01000
C 	C 	0.54723 0.36447 0.98977 -0.15500
H 	H 	0.52623 0.32447 0.98637 0.09700
C 	C 	0.58563 0.59637 0.78257 -0.02900
N 	N 	0.66700 0.77490 0.18130 -0.22800
C 	C 	0.54230 0.81330 0.32460 0.09200
H 	H 	0.56230 0.85340 0.32390 -0.02900
C 	C 	0.48390 0.78610 0.32310 -0.16100
H 	H 	0.46490 0.80710 0.31970 0.09300
C 	C 	0.67740 0.74770 0.11590 -0.07400
N 	N 	0.33367 0.10823 0.51463 -0.22800
C 	C 	0.20897 0.14663 0.65793 0.11000
H 	H 	0.22897 0.18673 0.65723 -0.03200
C 	C 	0.15057 0.11943 0.65643 -0.18600
H 	H 	0.13157 0.14043 0.65303 0.10400
C 	C 	0.34407 0.08103 0.44923 -0.07100
N 	N 	0.00033 0.44157 0.84797 -0.20500
C 	C 	0.87563 0.47997 0.99127 0.09700
H 	H 	0.89563 0.52007 0.99057 -0.00700
C 	C 	0.81723 0.45277 0.98977 -0.15400
H 	H 	0.79823 0.47377 0.98637 0.09700
C 	C 	0.01073 0.41437 0.78257 -0.03600
N 	N 	0.10790 0.33300 0.18130 -0.22900
C 	C 	0.27100 0.45770 0.32460 0.09200
H 	H 	0.29110 0.43770 0.32390 -0.03100
C 	C 	0.30220 0.51610 0.32310 -0.16200
H 	H 	0.34220 0.53510 0.31970 0.09200
C 	C 	0.07030 0.32260 0.11590 -0.07900
N 	N 	0.77457 0.66633 0.51463 -0.22700
C 	C 	0.93767 0.79103 0.65793 0.06500
H 	H 	0.95777 0.77103 0.65723 -0.01100
C 	C 	0.96887 0.84943 0.65643 -0.09700
H 	H 	0.00887 0.86843 0.65303 0.06200
C 	C 	0.73697 0.65593 0.44923 -0.06400
N 	N 	0.44123 0.99967 0.84797 -0.19400
C 	C 	0.60433 0.12437 0.99127 0.09700
H 	H 	0.62443 0.10437 0.99057 -0.01200
C 	C 	0.63553 0.18277 0.98977 -0.15500
H 	H 	0.67553 0.20177 0.98637 0.09700
C 	C 	0.40363 0.98927 0.78257 -0.01900
N 	N 	0.10790 0.77490 0.18130 -0.22800
C 	C 	0.27100 0.81330 0.32460 0.09200
H 	H 	0.29110 0.85340 0.32390 -0.02900
C 	C 	0.30220 0.78610 0.32310 -0.16100
H 	H 	0.34220 0.80710 0.31970 0.09300
C 	C 	0.07030 0.74770 0.11590 -0.07800
N 	N 	0.77457 0.10823 0.51463 -0.22800
C 	C 	0.93767 0.14663 0.65793 0.07900
H 	H 	0.95777 0.18673 0.65723 -0.01600
C 	C 	0.96887 0.11943 0.65643 -0.12200
H 	H 	0.00887 0.14043 0.65303 0.07000
C 	C 	0.73697 0.08103 0.44923 -0.07100
N 	N 	0.44123 0.44157 0.84797 -0.20100
C 	C 	0.60433 0.47997 0.99127 0.09700
H 	H 	0.62443 0.52007 0.99057 -0.01000
C 	C 	0.63553 0.45277 0.98977 -0.15500
H 	H 	0.67553 0.47377 0.98637 0.09700
C 	C 	0.40363 0.41437 0.78257 -0.02900
N 	N 	0.22510 0.33300 0.18130 -0.22900
C 	C 	0.18670 0.45770 0.32460 0.09200
H 	H 	0.14660 0.43770 0.32390 -0.03300
C 	C 	0.21390 0.51610 0.32310 -0.16200
H 	H 	0.19290 0.53510 0.31970 0.09100
C 	C 	0.25230 0.32260 0.11590 -0.07500
N 	N 	0.89177 0.66633 0.51463 -0.22700
C 	C 	0.85337 0.79103 0.65793 0.08400
H 	H 	0.81327 0.77103 0.65723 -0.02200
C 	C 	0.88057 0.84943 0.65643 -0.13800
H 	H 	0.85957 0.86843 0.65303 0.08900
C 	C 	0.91897 0.65593 0.44923 -0.05900
N 	N 	0.55843 0.99967 0.84797 -0.19400
C 	C 	0.52003 0.12437 0.99127 0.09700
H 	H 	0.47993 0.10437 0.99057 -0.01200
C 	C 	0.54723 0.18277 0.98977 -0.15500
H 	H 	0.52623 0.20177 0.98637 0.09700
C 	C 	0.58563 0.98927 0.78257 -0.01900
N 	N 	0.66700 0.89210 0.18130 -0.23100
C 	C 	0.54230 0.72900 0.32460 0.09200
H 	H 	0.56230 0.70890 0.32390 -0.03100
C 	C 	0.48390 0.69780 0.32310 -0.16200
H 	H 	0.46490 0.65780 0.31970 0.09200
C 	C 	0.67740 0.92970 0.11590 -0.05800
N 	N 	0.33367 0.22543 0.51463 -0.22800
C 	C 	0.20897 0.06233 0.65793 0.13100
H 	H 	0.22897 0.04223 0.65723 -0.04500
C 	C 	0.15057 0.03113 0.65643 -0.23300
H 	H 	0.13157 0.99113 0.65303 0.13500
C 	C 	0.34407 0.26303 0.44923 -0.06500
N 	N 	0.00033 0.55877 0.84797 -0.20500
C 	C 	0.87563 0.39567 0.99127 0.09700
H 	H 	0.89563 0.37557 0.99057 -0.00700
C 	C 	0.81723 0.36447 0.98977 -0.15400
H 	H 	0.79823 0.32447 0.98637 0.09700
C 	C 	0.01073 0.59637 0.78257 -0.03600
N 	N 	0.77490 0.10790 0.81870 -0.23400
C 	C 	0.81330 0.27100 0.67540 0.08600
H 	H 	0.85340 0.29110 0.67610 -0.02800
C 	C 	0.78610 0.30220 0.67690 -0.16300
H 	H 	0.80710 0.34220 0.68030 0.08600
C 	C 	0.74770 0.07030 0.88410 0.00900
N 	N 	0.44157 0.44123 0.15203 -0.23900
C 	C 	0.47997 0.60433 0.00873 0.07900
H 	H 	0.52007 0.62443 0.00943 -0.04500
C 	C 	0.45277 0.63553 0.01023 -0.16700
H 	H 	0.47377 0.67553 0.01363 0.07900
C 	C 	0.41437 0.40363 0.21743 -0.07400
N 	N 	0.10823 0.77457 0.48537 -0.22500
C 	C 	0.14663 0.93767 0.34207 0.06000
H 	H 	0.18673 0.95777 0.34277 -0.01800
C 	C 	0.11943 0.96887 0.34357 -0.11000
H 	H 	0.14043 0.00887 0.34697 0.04800
C 	C 	0.08103 0.73697 0.55077 -0.04500
N 	N 	0.33300 0.22510 0.81870 -0.23400
C 	C 	0.45770 0.18670 0.67540 0.08700
H 	H 	0.43770 0.14660 0.67610 -0.03200
C 	C 	0.51610 0.21390 0.67690 -0.16400
H 	H 	0.53510 0.19290 0.68030 0.08300
C 	C 	0.32260 0.25230 0.88410 0.01400
N 	N 	0.99967 0.55843 0.15203 -0.23300
C 	C 	0.12437 0.52003 0.00873 0.07900
H 	H 	0.10437 0.47993 0.00943 -0.04800
C 	C 	0.18277 0.54723 0.01023 -0.16800
H 	H 	0.20177 0.52623 0.01363 0.07800
C 	C 	0.98927 0.58563 0.21743 -0.06500
N 	N 	0.66633 0.89177 0.48537 -0.22500
C 	C 	0.79103 0.85337 0.34207 0.07000
H 	H 	0.77103 0.81327 0.34277 -0.02700
C 	C 	0.84943 0.88057 0.34357 -0.13700
H 	H 	0.86843 0.85957 0.34697 0.07400
C 	C 	0.65593 0.91897 0.55077 -0.03300
N 	N 	0.89210 0.66700 0.81870 -0.23500
C 	C 	0.72900 0.54230 0.67540 0.08700
H 	H 	0.70890 0.56230 0.67610 -0.03000
C 	C 	0.69780 0.48390 0.67690 -0.16300
H 	H 	0.65780 0.46490 0.68030 0.08400
C 	C 	0.92970 0.67740 0.88410 0.02700
N 	N 	0.55877 0.00033 0.15203 -0.24300
C 	C 	0.39567 0.87563 0.00873 0.07900
H 	H 	0.37557 0.89563 0.00943 -0.04200
C 	C 	0.36447 0.81723 0.01023 -0.16600
H 	H 	0.32447 0.79823 0.01363 0.07900
C 	C 	0.59637 0.01073 0.21743 -0.08300
N 	N 	0.22543 0.33367 0.48537 -0.22500
C 	C 	0.06233 0.20897 0.34207 0.11600
H 	H 	0.04223 0.22897 0.34277 -0.04900
C 	C 	0.03113 0.15057 0.34357 -0.22800
H 	H 	0.99113 0.13157 0.34697 0.11600
C 	C 	0.26303 0.34407 0.55077 -0.04000
N 	N 	0.63635 0.27270 0.67000 -0.13700
N 	N 	0.30302 0.60603 0.00333 -0.13900
N 	N 	0.96968 0.93937 0.33667 -0.13300
N 	N 	0.72730 0.36365 0.67000 -0.13600
N 	N 	0.39397 0.69698 0.00333 -0.13900
N 	N 	0.06063 0.03032 0.33667 -0.14500
N 	N 	0.63635 0.36365 0.67000 -0.13600
N 	N 	0.30302 0.69698 0.00333 -0.13900
N 	N 	0.96968 0.03032 0.33667 -0.13900
N 	N 	0.27270 0.63635 0.33000 -0.13000
N 	N 	0.93937 0.96968 0.66333 -0.12100
N 	N 	0.60603 0.30302 0.99667 -0.12700
N 	N 	0.36365 0.72730 0.33000 -0.13000
N 	N 	0.03032 0.06063 0.66333 -0.13300
N 	N 	0.69698 0.39397 0.99667 -0.12700
N 	N 	0.36365 0.63635 0.33000 -0.13000
N 	N 	0.03032 0.96968 0.66333 -0.12600
N 	N 	0.69698 0.30302 0.99667 -0.12700
Au	Au	0.00000 0.29173 -0.00000 0.18000
Au	Au	0.66667 0.62506 0.33333 0.24900
Au	Au	0.33333 0.95840 0.66667 0.28700
Au	Au	0.70827 0.70827 -0.00000 0.19400
Au	Au	0.37494 0.04160 0.33333 0.24200
Au	Au	0.04160 0.37494 0.66667 0.27400
Au	Au	0.29173 0.00000 -0.00000 0.17700
Au	Au	0.95840 0.33333 0.33333 0.25600
Au	Au	0.62506 0.66667 0.66667 0.28000
Au	Au	-0.00000 0.70827 -0.00000 0.18100
Au	Au	0.66667 0.04160 0.33333 0.24200
Au	Au	0.33333 0.37494 0.66667 0.28000
Au	Au	0.29173 0.29173 -0.00000 0.19200
Au	Au	0.95840 0.62506 0.33333 0.25600
Au	Au	0.62506 0.95840 0.66667 0.28700
Au	Au	0.70827 0.00000 -0.00000 0.17800
Au	Au	0.37494 0.33333 0.33333 0.24800
Au	Au	0.04160 0.66667 0.66667 0.27400
Fe	Fe	0.83333 0.16667 0.66667 1.11600
Fe	Fe	0.50000 0.50000 -0.00000 1.06400
Fe	Fe	0.83333 0.66667 0.66667 1.11600
Fe	Fe	0.50000 0.00000 -0.00000 1.05300
Fe	Fe	0.33333 0.16667 0.66667 1.11500
Fe	Fe	0.00000 0.50000 -0.00000 1.05500
Fe	Fe	0.16667 0.83333 0.33333 1.11300
Fe	Fe	0.66667 0.83333 0.33333 1.11300
Fe	Fe	0.16667 0.33333 0.33333 1.11200
N 	N 	0.78660 0.21340 0.67290 -0.25300
C 	C 	0.72670 0.27330 0.67340 0.07400
C 	C 	0.69500 0.30500 0.67400 0.07900
N 	N 	0.45327 0.54673 0.00623 -0.26500
C 	C 	0.39337 0.60663 0.00673 0.07000
C 	C 	0.36167 0.63833 0.00733 0.07600
N 	N 	0.11993 0.88007 0.33957 -0.25200
C 	C 	0.06003 0.93997 0.34007 0.06700
C 	C 	0.02833 0.97167 0.34067 0.08300
N 	N 	0.78660 0.57320 0.67290 -0.25300
C 	C 	0.72670 0.45340 0.67340 0.07400
C 	C 	0.69500 0.39000 0.67400 0.07900
N 	N 	0.45327 0.90653 0.00623 -0.26000
C 	C 	0.39337 0.78673 0.00673 0.07000
C 	C 	0.36167 0.72333 0.00733 0.07600
N 	N 	0.11993 0.23987 0.33957 -0.26300
C 	C 	0.06003 0.12007 0.34007 0.10300
C 	C 	0.02833 0.05667 0.34067 0.04800
N 	N 	0.42680 0.21340 0.67290 -0.25300
C 	C 	0.54660 0.27330 0.67340 0.07400
C 	C 	0.61000 0.30500 0.67400 0.07900
N 	N 	0.09347 0.54673 0.00623 -0.26700
C 	C 	0.21327 0.60663 0.00673 0.07000
C 	C 	0.27667 0.63833 0.00733 0.07600
N 	N 	0.76013 0.88007 0.33957 -0.24400
C 	C 	0.87993 0.93997 0.34007 0.03700
C 	C 	0.94333 0.97167 0.34067 0.11200
N 	N 	0.21340 0.78660 0.32710 -0.25400
C 	C 	0.27330 0.72670 0.32660 0.08500
C 	C 	0.30500 0.69500 0.32600 0.09000
N 	N 	0.88007 0.11993 0.66043 -0.25400
C 	C 	0.93997 0.06003 0.65993 0.09200
C 	C 	0.97167 0.02833 0.65933 0.08700
N 	N 	0.54673 0.45327 0.99377 -0.22900
C 	C 	0.60663 0.39337 0.99327 0.08700
C 	C 	0.63833 0.36167 0.99267 0.09400
N 	N 	0.57320 0.78660 0.32710 -0.25400
C 	C 	0.45340 0.72670 0.32660 0.08500
C 	C 	0.39000 0.69500 0.32600 0.09000
N 	N 	0.23987 0.11993 0.66043 -0.26200
C 	C 	0.12007 0.06003 0.65993 0.12200
C 	C 	0.05667 0.02833 0.65933 0.05800
N 	N 	0.90653 0.45327 0.99377 -0.22500
C 	C 	0.78673 0.39337 0.99327 0.08700
C 	C 	0.72333 0.36167 0.99267 0.09400
N 	N 	0.21340 0.42680 0.32710 -0.25400
C 	C 	0.27330 0.54660 0.32660 0.08500
C 	C 	0.30500 0.61000 0.32600 0.09000
N 	N 	0.88007 0.76013 0.66043 -0.24400
C 	C 	0.93997 0.87993 0.65993 0.05800
C 	C 	0.97167 0.94333 0.65933 0.12100
N 	N 	0.54673 0.09347 0.99377 -0.23200
C 	C 	0.60663 0.21327 0.99327 0.08700
C 	C 	0.63833 0.27667 0.99267 0.09300
