data_crystal

_cell_length_a 26.90100
_cell_length_b 26.90100
_cell_length_c 9.77420
_cell_angle_alpha 90.00000
_cell_angle_beta  90.00000
_cell_angle_gamma 120.00000

_symmetry_space_group_name_	'P 1'
_symmetry_space_group_name_H-M	'P 1'

loop_
_symmetry_equiv_pos_as_xyz
  x,y,z

loop_
_atom_site_label
_atom_site_type_symbol
_atom_site_fract_x
_atom_site_fract_y
_atom_site_fract_z
_atom_site_charge
N 	N 	0.55800 0.99920 0.15210 -0.21200
C 	C 	0.60440 0.12400 0.99980 0.19500
H 	H 	0.62420 0.10390 0.99970 -0.04700
C 	C 	0.63560 0.18350 0.99970 -0.22100
H 	H 	0.67550 0.20270 0.99970 0.11700
C 	C 	0.59710 0.01030 0.21780 -0.10500
N 	N 	0.22467 0.33253 0.48543 -0.22400
C 	C 	0.27107 0.45733 0.33313 0.08000
H 	H 	0.29087 0.43723 0.33303 -0.02700
C 	C 	0.30227 0.51683 0.33303 -0.14600
H 	H 	0.34217 0.53603 0.33303 0.08500
C 	C 	0.26377 0.34363 0.55113 -0.05000
N 	N 	0.89133 0.66587 0.81877 -0.23200
C 	C 	0.93773 0.79067 0.66647 0.05700
H 	H 	0.95753 0.77057 0.66637 -0.01000
C 	C 	0.96893 0.85017 0.66637 -0.09000
H 	H 	0.00883 0.86937 0.66637 0.05900
C 	C 	0.93043 0.67697 0.88447 0.00300
N 	N 	0.00080 0.55880 0.15210 -0.25300
C 	C 	0.87600 0.48040 0.99980 0.19500
H 	H 	0.89610 0.52030 0.99970 -0.04300
C 	C 	0.81650 0.45210 0.99970 -0.21900
H 	H 	0.79730 0.47280 0.99970 0.11600
C 	C 	0.98970 0.58680 0.21780 -0.05100
N 	N 	0.66747 0.89213 0.48543 -0.22400
C 	C 	0.54267 0.81373 0.33313 0.08000
H 	H 	0.56277 0.85363 0.33303 -0.02500
C 	C 	0.48317 0.78543 0.33303 -0.14600
H 	H 	0.46397 0.80613 0.33303 0.08600
C 	C 	0.65637 0.92013 0.55113 -0.04300
N 	N 	0.33413 0.22547 0.81877 -0.23100
C 	C 	0.20933 0.14707 0.66647 0.09500
H 	H 	0.22943 0.18697 0.66637 -0.02800
C 	C 	0.14983 0.11877 0.66637 -0.16900
H 	H 	0.13063 0.13947 0.66637 0.09600
C 	C 	0.32303 0.25347 0.88447 -0.00900
N 	N 	0.44120 0.44200 0.15210 -0.23600
C 	C 	0.51960 0.39560 0.99980 0.19600
H 	H 	0.47970 0.37580 0.99970 -0.04600
C 	C 	0.54790 0.36440 0.99970 -0.22000
H 	H 	0.52720 0.32450 0.99970 0.11700
C 	C 	0.41320 0.40290 0.21780 -0.07600
N 	N 	0.10787 0.77533 0.48543 -0.22400
C 	C 	0.18627 0.72893 0.33313 0.08100
H 	H 	0.14637 0.70913 0.33303 -0.02800
C 	C 	0.21457 0.69773 0.33303 -0.14700
H 	H 	0.19387 0.65783 0.33303 0.08500
C 	C 	0.07987 0.73623 0.55113 -0.05500
N 	N 	0.77453 0.10867 0.81877 -0.23100
C 	C 	0.85293 0.06227 0.66647 0.10400
H 	H 	0.81303 0.04247 0.66637 -0.03600
C 	C 	0.88123 0.03107 0.66637 -0.19500
H 	H 	0.86053 0.99117 0.66637 0.12000
C 	C 	0.74653 0.06957 0.88447 -0.01300
N 	N 	0.99920 0.55800 0.84790 -0.18600
C 	C 	0.12400 0.60440 0.00020 -0.04100
H 	H 	0.10390 0.62420 0.00030 -0.00500
C 	C 	0.18350 0.63560 0.00030 -0.07400
H 	H 	0.20270 0.67550 0.00030 0.04900
C 	C 	0.01030 0.59710 0.78220 -0.06500
N 	N 	0.66587 0.89133 0.18123 -0.23000
C 	C 	0.79067 0.93773 0.33353 0.04100
H 	H 	0.77057 0.95753 0.33363 -0.01100
C 	C 	0.85017 0.96893 0.33363 -0.07900
H 	H 	0.86937 0.00883 0.33363 0.03900
C 	C 	0.67697 0.93043 0.11553 -0.06000
N 	N 	0.33253 0.22467 0.51457 -0.22700
C 	C 	0.45733 0.27107 0.66687 0.07600
H 	H 	0.43723 0.29087 0.66697 -0.02600
C 	C 	0.51683 0.30227 0.66697 -0.14900
H 	H 	0.53603 0.34217 0.66697 0.08000
C 	C 	0.34363 0.26377 0.44887 -0.06900
N 	N 	0.55880 0.00080 0.84790 -0.22600
C 	C 	0.48040 0.87600 0.00020 -0.03900
H 	H 	0.52030 0.89610 0.00030 -0.00100
C 	C 	0.45210 0.81650 0.00030 -0.07400
H 	H 	0.47280 0.79730 0.00030 0.04900
C 	C 	0.58680 0.98970 0.78220 -0.01300
N 	N 	0.22547 0.33413 0.18123 -0.22800
C 	C 	0.14707 0.20933 0.33353 0.08400
H 	H 	0.18697 0.22943 0.33363 -0.03200
C 	C 	0.11877 0.14983 0.33363 -0.16800
H 	H 	0.13947 0.13063 0.33363 0.08300
C 	C 	0.25347 0.32303 0.11553 -0.07700
N 	N 	0.89213 0.66747 0.51457 -0.22700
C 	C 	0.81373 0.54267 0.66687 0.07500
H 	H 	0.85363 0.56277 0.66697 -0.02400
C 	C 	0.78543 0.48317 0.66697 -0.14900
H 	H 	0.80613 0.46397 0.66697 0.08100
C 	C 	0.92013 0.65637 0.44887 -0.06300
N 	N 	0.44200 0.44120 0.84790 -0.20600
C 	C 	0.39560 0.51960 0.00020 -0.04100
H 	H 	0.37580 0.47970 0.00030 -0.00300
C 	C 	0.36440 0.54790 0.00030 -0.07400
H 	H 	0.32450 0.52720 0.00030 0.04800
C 	C 	0.40290 0.41320 0.78220 -0.04100
N 	N 	0.10867 0.77453 0.18123 -0.22800
C 	C 	0.06227 0.85293 0.33353 0.08700
H 	H 	0.04247 0.81303 0.33363 -0.03700
C 	C 	0.03107 0.88123 0.33363 -0.18100
H 	H 	0.99117 0.86053 0.33363 0.10100
C 	C 	0.06957 0.74653 0.11553 -0.08000
N 	N 	0.77533 0.10787 0.51457 -0.22700
C 	C 	0.72893 0.18627 0.66687 0.07600
H 	H 	0.70913 0.14637 0.66697 -0.02800
C 	C 	0.69773 0.21457 0.66697 -0.15000
H 	H 	0.65783 0.19387 0.66697 0.07900
C 	C 	0.73623 0.07987 0.44887 -0.07500
N 	N 	0.44200 0.00080 0.84790 -0.22600
C 	C 	0.39560 0.87600 0.00020 -0.03900
H 	H 	0.37580 0.89610 0.00030 -0.00100
C 	C 	0.36440 0.81650 0.00030 -0.07400
H 	H 	0.32450 0.79730 0.00030 0.04900
C 	C 	0.40290 0.98970 0.78220 -0.01300
N 	N 	0.10867 0.33413 0.18123 -0.22800
C 	C 	0.06227 0.20933 0.33353 0.10000
H 	H 	0.04247 0.22943 0.33363 -0.04200
C 	C 	0.03107 0.14983 0.33363 -0.20600
H 	H 	0.99117 0.13063 0.33363 0.10800
C 	C 	0.06957 0.32303 0.11553 -0.08100
N 	N 	0.77533 0.66747 0.51457 -0.22700
C 	C 	0.72893 0.54267 0.66687 0.07600
H 	H 	0.70913 0.56277 0.66697 -0.02600
C 	C 	0.69773 0.48317 0.66697 -0.14900
H 	H 	0.65783 0.46397 0.66697 0.08000
C 	C 	0.73623 0.65637 0.44887 -0.06800
N 	N 	0.99920 0.44120 0.84790 -0.18600
C 	C 	0.12400 0.51960 0.00020 -0.04100
H 	H 	0.10390 0.47970 0.00030 -0.00500
C 	C 	0.18350 0.54790 0.00030 -0.07400
H 	H 	0.20270 0.52720 0.00030 0.04800
C 	C 	0.01030 0.41320 0.78220 -0.06400
N 	N 	0.66587 0.77453 0.18123 -0.22700
C 	C 	0.79067 0.85293 0.33353 0.06100
H 	H 	0.77057 0.81303 0.33363 -0.02300
C 	C 	0.85017 0.88123 0.33363 -0.12500
H 	H 	0.86937 0.86053 0.33363 0.07000
C 	C 	0.67697 0.74653 0.11553 -0.07500
N 	N 	0.33253 0.10787 0.51457 -0.22700
C 	C 	0.45733 0.18627 0.66687 0.07600
H 	H 	0.43723 0.14637 0.66697 -0.02800
C 	C 	0.51683 0.21457 0.66697 -0.15000
H 	H 	0.53603 0.19387 0.66697 0.07900
C 	C 	0.34363 0.07987 0.44887 -0.07500
N 	N 	0.55880 0.55800 0.84790 -0.20600
C 	C 	0.48040 0.60440 0.00020 -0.04100
H 	H 	0.52030 0.62420 0.00030 -0.00300
C 	C 	0.45210 0.63560 0.00030 -0.07400
H 	H 	0.47280 0.67550 0.00030 0.04900
C 	C 	0.58680 0.59710 0.78220 -0.04100
N 	N 	0.22547 0.89133 0.18123 -0.23000
C 	C 	0.14707 0.93773 0.33353 0.05100
H 	H 	0.18697 0.95753 0.33363 -0.01400
C 	C 	0.11877 0.96893 0.33363 -0.09700
H 	H 	0.13947 0.00883 0.33363 0.04500
C 	C 	0.25347 0.93043 0.11553 -0.06000
N 	N 	0.89213 0.22467 0.51457 -0.22700
C 	C 	0.81373 0.27107 0.66687 0.07500
H 	H 	0.85363 0.29087 0.66697 -0.02400
C 	C 	0.78543 0.30227 0.66697 -0.14900
H 	H 	0.80613 0.34217 0.66697 0.08100
C 	C 	0.92013 0.26377 0.44887 -0.06300
N 	N 	0.00080 0.44200 0.15210 -0.25300
C 	C 	0.87600 0.39560 0.99980 0.19500
H 	H 	0.89610 0.37580 0.99970 -0.04300
C 	C 	0.81650 0.36440 0.99970 -0.21800
H 	H 	0.79730 0.32450 0.99970 0.11600
C 	C 	0.98970 0.40290 0.21780 -0.05100
N 	N 	0.66747 0.77533 0.48543 -0.22400
C 	C 	0.54267 0.72893 0.33313 0.08000
H 	H 	0.56277 0.70913 0.33303 -0.02700
C 	C 	0.48317 0.69773 0.33303 -0.14600
H 	H 	0.46397 0.65783 0.33303 0.08500
C 	C 	0.65637 0.73623 0.55113 -0.05000
N 	N 	0.33413 0.10867 0.81877 -0.23100
C 	C 	0.20933 0.06227 0.66647 0.11400
H 	H 	0.22943 0.04247 0.66637 -0.04000
C 	C 	0.14983 0.03107 0.66637 -0.21300
H 	H 	0.13063 0.99117 0.66637 0.12600
C 	C 	0.32303 0.06957 0.88447 -0.01400
N 	N 	0.44120 0.99920 0.15210 -0.21100
C 	C 	0.51960 0.12400 0.99980 0.19600
H 	H 	0.47970 0.10390 0.99970 -0.04700
C 	C 	0.54790 0.18350 0.99970 -0.22100
H 	H 	0.52720 0.20270 0.99970 0.11700
C 	C 	0.41320 0.01030 0.21780 -0.10500
N 	N 	0.10787 0.33253 0.48543 -0.22400
C 	C 	0.18627 0.45733 0.33313 0.08100
H 	H 	0.14637 0.43723 0.33303 -0.02800
C 	C 	0.21457 0.51683 0.33303 -0.14700
H 	H 	0.19387 0.53603 0.33303 0.08500
C 	C 	0.07987 0.34363 0.55113 -0.05500
N 	N 	0.77453 0.66587 0.81877 -0.23000
C 	C 	0.85293 0.79067 0.66647 0.07300
H 	H 	0.81303 0.77057 0.66637 -0.02000
C 	C 	0.88123 0.85017 0.66637 -0.12700
H 	H 	0.86053 0.86937 0.66637 0.08300
C 	C 	0.74653 0.67697 0.88447 -0.00900
N 	N 	0.55800 0.55880 0.15210 -0.23600
C 	C 	0.60440 0.48040 0.99980 0.19600
H 	H 	0.62420 0.52030 0.99970 -0.04600
C 	C 	0.63560 0.45210 0.99970 -0.22000
H 	H 	0.67550 0.47280 0.99970 0.11700
C 	C 	0.59710 0.58680 0.21780 -0.07500
N 	N 	0.22467 0.89213 0.48543 -0.22400
C 	C 	0.27107 0.81373 0.33313 0.08000
H 	H 	0.29087 0.85363 0.33303 -0.02500
C 	C 	0.30227 0.78543 0.33303 -0.14600
H 	H 	0.34217 0.80613 0.33303 0.08600
C 	C 	0.26377 0.92013 0.55113 -0.04300
N 	N 	0.89133 0.22547 0.81877 -0.23200
C 	C 	0.93773 0.14707 0.66647 0.07000
H 	H 	0.95753 0.18697 0.66637 -0.01400
C 	C 	0.96893 0.11877 0.66637 -0.11300
H 	H 	0.00883 0.13947 0.66637 0.06600
C 	C 	0.93043 0.25347 0.88447 0.00300
Au	Au	0.66667 0.03991 0.33333 0.25100
Au	Au	0.96009 0.62675 0.33333 0.26000
Au	Au	0.37325 0.33333 0.33333 0.25500
Au	Au	0.03991 0.66667 0.66667 0.27500
Au	Au	0.70658 0.00000 -0.00000 0.19800
Au	Au	0.62675 0.96009 0.66667 0.28400
Au	Au	0.29342 0.29342 -0.00000 0.21200
Au	Au	0.33333 0.37325 0.66667 0.27900
Au	Au	-0.00000 0.70658 -0.00000 0.20200
Au	Au	0.33333 0.96009 0.66667 0.28400
Au	Au	0.00000 0.29342 -0.00000 0.20100
Au	Au	0.03991 0.37325 0.66667 0.27500
Au	Au	0.70658 0.70658 -0.00000 0.21400
Au	Au	0.62675 0.66667 0.66667 0.27900
Au	Au	0.29342 0.00000 -0.00000 0.19700
Au	Au	0.96009 0.33333 0.33333 0.26000
Au	Au	0.37325 0.03991 0.33333 0.25100
Au	Au	0.66667 0.62675 0.33333 0.25600
Fe	Fe	0.50000 0.00000 -0.00000 1.06500
Fe	Fe	0.16667 0.33333 0.33333 1.11300
Fe	Fe	0.83333 0.66667 0.66667 1.11600
Fe	Fe	-0.00000 0.50000 -0.00000 1.06800
Fe	Fe	0.66667 0.83333 0.33333 1.11400
Fe	Fe	0.33333 0.16667 0.66667 1.11500
Fe	Fe	0.50000 0.50000 -0.00000 1.07700
Fe	Fe	0.16667 0.83333 0.33333 1.11400
Fe	Fe	0.83333 0.16667 0.66667 1.11600
N 	N 	0.54715 0.09430 0.00020 -0.35200
C 	C 	0.60680 0.21360 0.99950 0.13300
C 	C 	0.63860 0.27720 0.99850 0.08400
N 	N 	0.21382 0.42763 0.33353 -0.24600
C 	C 	0.27347 0.54693 0.33283 0.07300
C 	C 	0.30527 0.61053 0.33183 0.10000
N 	N 	0.88048 0.76097 0.66687 -0.23800
C 	C 	0.94013 0.88027 0.66617 0.04800
C 	C 	0.97193 0.94387 0.66517 0.12800
N 	N 	0.90570 0.45285 0.00020 -0.34500
C 	C 	0.78640 0.39320 0.99950 0.13200
C 	C 	0.72280 0.36140 0.99850 0.08400
N 	N 	0.57237 0.78618 0.33353 -0.24600
C 	C 	0.45307 0.72653 0.33283 0.07300
C 	C 	0.38947 0.69473 0.33183 0.10000
N 	N 	0.23903 0.11952 0.66687 -0.25300
C 	C 	0.11973 0.05987 0.66617 0.10700
C 	C 	0.05613 0.02807 0.66517 0.07000
N 	N 	0.54715 0.45285 0.00020 -0.35000
C 	C 	0.60680 0.39320 0.99950 0.13300
C 	C 	0.63860 0.36140 0.99850 0.08400
N 	N 	0.21382 0.78618 0.33353 -0.24600
C 	C 	0.27347 0.72653 0.33283 0.07300
C 	C 	0.30527 0.69473 0.33183 0.10000
N 	N 	0.88048 0.11952 0.66687 -0.24600
C 	C 	0.94013 0.05987 0.66617 0.08000
C 	C 	0.97193 0.02807 0.66517 0.09600
N 	N 	0.09430 0.54715 0.99980 -0.13400
C 	C 	0.21360 0.60680 0.00050 0.00400
C 	C 	0.27720 0.63860 0.00150 0.10700
N 	N 	0.76097 0.88048 0.33313 -0.23700
C 	C 	0.88027 0.94013 0.33383 0.03100
C 	C 	0.94387 0.97193 0.33483 0.12300
N 	N 	0.42763 0.21382 0.66647 -0.24500
C 	C 	0.54693 0.27347 0.66717 0.06500
C 	C 	0.61053 0.30527 0.66817 0.09100
N 	N 	0.45285 0.90570 0.99980 -0.13000
C 	C 	0.39320 0.78640 0.00050 0.00500
C 	C 	0.36140 0.72280 0.00150 0.10700
N 	N 	0.11952 0.23903 0.33313 -0.25300
C 	C 	0.05987 0.11973 0.33383 0.09000
C 	C 	0.02807 0.05613 0.33483 0.06300
N 	N 	0.78618 0.57237 0.66647 -0.24500
C 	C 	0.72653 0.45307 0.66717 0.06500
C 	C 	0.69473 0.38947 0.66817 0.09100
N 	N 	0.45285 0.54715 0.99980 -0.13200
C 	C 	0.39320 0.60680 0.00050 0.00400
C 	C 	0.36140 0.63860 0.00150 0.10700
N 	N 	0.11952 0.88048 0.33313 -0.24400
C 	C 	0.05987 0.94013 0.33383 0.05700
C 	C 	0.02807 0.97193 0.33483 0.09700
N 	N 	0.78618 0.21382 0.66647 -0.24500
C 	C 	0.72653 0.27347 0.66717 0.06500
C 	C 	0.69473 0.30527 0.66817 0.09100
N 	N 	0.69609 0.30391 0.99960 -0.12900
N 	N 	0.36276 0.63724 0.33293 -0.13600
N 	N 	0.02942 0.97058 0.66627 -0.13300
N 	N 	0.69609 0.39218 0.99960 -0.12900
N 	N 	0.36276 0.72551 0.33293 -0.13600
N 	N 	0.02942 0.05885 0.66627 -0.13900
N 	N 	0.60782 0.30391 0.99960 -0.12900
N 	N 	0.27449 0.63724 0.33293 -0.13600
N 	N 	0.94115 0.97058 0.66627 -0.12800
N 	N 	0.30391 0.69609 0.00040 -0.14800
N 	N 	0.97058 0.02942 0.33373 -0.14400
N 	N 	0.63724 0.36276 0.66707 -0.14100
N 	N 	0.39218 0.69609 0.00040 -0.14800
N 	N 	0.05885 0.02942 0.33373 -0.15000
N 	N 	0.72551 0.36276 0.66707 -0.14000
N 	N 	0.30391 0.60782 0.00040 -0.14900
N 	N 	0.97058 0.94115 0.33373 -0.13800
N 	N 	0.63724 0.27449 0.66707 -0.14100
