data_crystal

_cell_length_a 26.19340
_cell_length_b 26.19340
_cell_length_c 9.39780
_cell_angle_alpha 90.00000
_cell_angle_beta  90.00000
_cell_angle_gamma 120.00000

_symmetry_space_group_name_	'P 1'
_symmetry_space_group_name_H-M	'P 1'

loop_
_symmetry_equiv_pos_as_xyz
  x,y,z

loop_
_atom_site_label
_atom_site_type_symbol
_atom_site_fract_x
_atom_site_fract_y
_atom_site_fract_z
_atom_site_charge
C 	C 	0.07300 0.32350 0.11610 -0.07400
N 	N 	0.11200 0.33110 0.18930 -0.24500
C 	C 	0.15150 0.21530 0.33970 0.08400
H 	H 	0.19260 0.23610 0.34290 -0.02900
C 	C 	0.12260 0.15410 0.33790 -0.16100
H 	H 	0.14420 0.13470 0.33840 0.08100
C 	C 	0.73967 0.65683 0.44943 -0.06200
N 	N 	0.77867 0.66443 0.52263 -0.24500
C 	C 	0.81817 0.54863 0.67303 0.07400
H 	H 	0.85927 0.56943 0.67623 -0.02100
C 	C 	0.78927 0.48743 0.67123 -0.13800
H 	H 	0.81087 0.46803 0.67173 0.07800
C 	C 	0.40633 0.99017 0.78277 -0.02300
N 	N 	0.44533 0.99777 0.85597 -0.21400
C 	C 	0.48483 0.88197 0.00637 0.08300
H 	H 	0.52593 0.90277 0.00957 -0.03600
C 	C 	0.45593 0.82077 0.00457 -0.17200
H 	H 	0.47753 0.80137 0.00507 0.07900
C 	C 	0.67650 0.74950 0.11610 -0.06800
N 	N 	0.66890 0.78090 0.18930 -0.24500
C 	C 	0.78470 0.93620 0.33970 0.03800
H 	H 	0.76390 0.95650 0.34290 -0.00600
C 	C 	0.84590 0.96850 0.33790 -0.06400
H 	H 	0.86530 0.00950 0.33840 0.03400
C 	C 	0.34317 0.08283 0.44943 -0.06900
N 	N 	0.33557 0.11423 0.52263 -0.24500
C 	C 	0.45137 0.26953 0.67303 0.07400
H 	H 	0.43057 0.28983 0.67623 -0.02300
C 	C 	0.51257 0.30183 0.67123 -0.13800
H 	H 	0.53197 0.34283 0.67173 0.07700
C 	C 	0.00983 0.41617 0.78277 -0.04400
N 	N 	0.00223 0.44757 0.85597 -0.22600
C 	C 	0.11803 0.60287 0.00637 0.08200
H 	H 	0.09723 0.62317 0.00957 -0.04300
C 	C 	0.17923 0.63517 0.00457 -0.17500
H 	H 	0.19863 0.67617 0.00507 0.07900
C 	C 	0.25050 0.92700 0.11610 -0.05200
N 	N 	0.21910 0.88800 0.18930 -0.24800
C 	C 	0.06380 0.84850 0.33970 0.09100
H 	H 	0.04350 0.80740 0.34290 -0.03700
C 	C 	0.03150 0.87740 0.33790 -0.18500
H 	H 	0.99050 0.85580 0.33840 0.10600
C 	C 	0.91717 0.26033 0.44943 -0.05500
N 	N 	0.88577 0.22133 0.52263 -0.24500
C 	C 	0.73047 0.18183 0.67303 0.07500
H 	H 	0.71017 0.14073 0.67623 -0.02600
C 	C 	0.69817 0.21073 0.67123 -0.13900
H 	H 	0.65717 0.18913 0.67173 0.07600
C 	C 	0.58383 0.59367 0.78277 -0.03500
N 	N 	0.55243 0.55467 0.85597 -0.22200
C 	C 	0.39713 0.51517 0.00637 0.08200
H 	H 	0.37683 0.47407 0.00957 -0.04100
C 	C 	0.36483 0.54407 0.00457 -0.17400
H 	H 	0.32383 0.52247 0.00507 0.07900
C 	C 	0.32350 0.07300 0.88390 -0.00900
N 	N 	0.33110 0.11200 0.81070 -0.24900
C 	C 	0.21530 0.15150 0.66030 0.09300
H 	H 	0.23610 0.19260 0.65710 -0.02600
C 	C 	0.15410 0.12260 0.66210 -0.15900
H 	H 	0.13470 0.14420 0.66160 0.09300
C 	C 	0.99017 0.40633 0.21723 -0.05800
N 	N 	0.99777 0.44533 0.14403 -0.24700
C 	C 	0.88197 0.48483 0.99363 0.06700
H 	H 	0.90277 0.52593 0.99043 0.00100
C 	C 	0.82077 0.45593 0.99543 -0.10000
H 	H 	0.80137 0.47753 0.99493 0.08100
C 	C 	0.65683 0.73967 0.55057 -0.04200
N 	N 	0.66443 0.77867 0.47737 -0.24200
C 	C 	0.54863 0.81817 0.32697 0.07700
H 	H 	0.56943 0.85927 0.32377 -0.02200
C 	C 	0.48743 0.78927 0.32877 -0.13700
H 	H 	0.46803 0.81087 0.32827 0.08400
C 	C 	0.74950 0.67650 0.88390 -0.00400
N 	N 	0.78090 0.66890 0.81070 -0.24800
C 	C 	0.93620 0.78470 0.66030 0.05100
H 	H 	0.95650 0.76390 0.65710 -0.00400
C 	C 	0.96850 0.84590 0.66210 -0.06900
H 	H 	0.00950 0.86530 0.66160 0.05000
C 	C 	0.41617 0.00983 0.21723 -0.08000
N 	N 	0.44757 0.00223 0.14403 -0.25900
C 	C 	0.60287 0.11803 0.99363 0.06600
H 	H 	0.62317 0.09723 0.99043 -0.00500
C 	C 	0.63517 0.17923 0.99543 -0.10100
H 	H 	0.67617 0.19863 0.99493 0.08100
C 	C 	0.08283 0.34317 0.55057 -0.04800
N 	N 	0.11423 0.33557 0.47737 -0.24200
C 	C 	0.26953 0.45137 0.32697 0.07700
H 	H 	0.28983 0.43057 0.32377 -0.02400
C 	C 	0.30183 0.51257 0.32877 -0.13800
H 	H 	0.34283 0.53197 0.32827 0.08300
C 	C 	0.92700 0.25050 0.88390 0.01000
N 	N 	0.88800 0.21910 0.81070 -0.25000
C 	C 	0.84850 0.06380 0.66030 0.10300
H 	H 	0.80740 0.04350 0.65710 -0.03500
C 	C 	0.87740 0.03150 0.66210 -0.18900
H 	H 	0.85580 0.99050 0.66160 0.12100
C 	C 	0.59367 0.58383 0.21723 -0.06900
N 	N 	0.55467 0.55243 0.14403 -0.25500
C 	C 	0.51517 0.39713 0.99363 0.06700
H 	H 	0.47407 0.37683 0.99043 -0.00300
C 	C 	0.54407 0.36483 0.99543 -0.10100
H 	H 	0.52247 0.32383 0.99493 0.08100
C 	C 	0.26033 0.91717 0.55057 -0.03500
N 	N 	0.22133 0.88577 0.47737 -0.24300
C 	C 	0.18183 0.73047 0.32697 0.07800
H 	H 	0.14073 0.71017 0.32377 -0.02600
C 	C 	0.21073 0.69817 0.32877 -0.13800
H 	H 	0.18913 0.65717 0.32827 0.08200
C 	C 	0.92700 0.67650 0.88390 0.01100
N 	N 	0.88800 0.66890 0.81070 -0.25000
C 	C 	0.84850 0.78470 0.66030 0.07000
H 	H 	0.80740 0.76390 0.65710 -0.01700
C 	C 	0.87740 0.84590 0.66210 -0.11500
H 	H 	0.85580 0.86530 0.66160 0.08000
C 	C 	0.59367 0.00983 0.21723 -0.08000
N 	N 	0.55467 0.00223 0.14403 -0.25900
C 	C 	0.51517 0.11803 0.99363 0.06700
H 	H 	0.47407 0.09723 0.99043 -0.00500
C 	C 	0.54407 0.17923 0.99543 -0.10100
H 	H 	0.52247 0.19863 0.99493 0.08100
C 	C 	0.26033 0.34317 0.55057 -0.04200
N 	N 	0.22133 0.33557 0.47737 -0.24300
C 	C 	0.18183 0.45137 0.32697 0.07800
H 	H 	0.14073 0.43057 0.32377 -0.02600
C 	C 	0.21073 0.51257 0.32877 -0.13800
H 	H 	0.18913 0.53197 0.32827 0.08200
C 	C 	0.32350 0.25050 0.88390 -0.00400
N 	N 	0.33110 0.21910 0.81070 -0.24900
C 	C 	0.21530 0.06380 0.66030 0.11400
H 	H 	0.23610 0.04350 0.65710 -0.03900
C 	C 	0.15410 0.03150 0.66210 -0.21000
H 	H 	0.13470 0.99050 0.66160 0.12700
C 	C 	0.99017 0.58383 0.21723 -0.05800
N 	N 	0.99777 0.55243 0.14403 -0.24700
C 	C 	0.88197 0.39713 0.99363 0.06700
H 	H 	0.90277 0.37683 0.99043 0.00100
C 	C 	0.82077 0.36483 0.99543 -0.09900
H 	H 	0.80137 0.32383 0.99493 0.08100
C 	C 	0.65683 0.91717 0.55057 -0.03500
N 	N 	0.66443 0.88577 0.47737 -0.24200
C 	C 	0.54863 0.73047 0.32697 0.07700
H 	H 	0.56943 0.71017 0.32377 -0.02400
C 	C 	0.48743 0.69817 0.32877 -0.13800
H 	H 	0.46803 0.65717 0.32827 0.08300
C 	C 	0.74950 0.07300 0.88390 -0.00900
N 	N 	0.78090 0.11200 0.81070 -0.24800
C 	C 	0.93620 0.15150 0.66030 0.06300
H 	H 	0.95650 0.19260 0.65710 -0.00900
C 	C 	0.96850 0.12260 0.66210 -0.09200
H 	H 	0.00950 0.14420 0.66160 0.05700
C 	C 	0.41617 0.40633 0.21723 -0.06900
N 	N 	0.44757 0.44533 0.14403 -0.25500
C 	C 	0.60287 0.48483 0.99363 0.06700
H 	H 	0.62317 0.52593 0.99043 -0.00300
C 	C 	0.63517 0.45593 0.99543 -0.10100
H 	H 	0.67617 0.47753 0.99493 0.08100
C 	C 	0.08283 0.73967 0.55057 -0.04800
N 	N 	0.11423 0.77867 0.47737 -0.24200
C 	C 	0.26953 0.81817 0.32697 0.07700
H 	H 	0.28983 0.85927 0.32377 -0.02200
C 	C 	0.30183 0.78927 0.32877 -0.13800
H 	H 	0.34283 0.81087 0.32827 0.08400
C 	C 	0.67650 0.92700 0.11610 -0.05200
N 	N 	0.66890 0.88800 0.18930 -0.24800
C 	C 	0.78470 0.84850 0.33970 0.05900
H 	H 	0.76390 0.80740 0.34290 -0.02100
C 	C 	0.84590 0.87740 0.33790 -0.11600
H 	H 	0.86530 0.85580 0.33840 0.06800
C 	C 	0.34317 0.26033 0.44943 -0.06300
N 	N 	0.33557 0.22133 0.52263 -0.24500
C 	C 	0.45137 0.18183 0.67303 0.07400
H 	H 	0.43057 0.14073 0.67623 -0.02600
C 	C 	0.51257 0.21073 0.67123 -0.13900
H 	H 	0.53197 0.18913 0.67173 0.07600
C 	C 	0.00983 0.59367 0.78277 -0.04400
N 	N 	0.00223 0.55467 0.85597 -0.22600
C 	C 	0.11803 0.51517 0.00637 0.08200
H 	H 	0.09723 0.47407 0.00957 -0.04300
C 	C 	0.17923 0.54407 0.00457 -0.17500
H 	H 	0.19863 0.52247 0.00507 0.07900
C 	C 	0.25050 0.32350 0.11610 -0.07000
N 	N 	0.21910 0.33110 0.18930 -0.24600
C 	C 	0.06380 0.21530 0.33970 0.10300
H 	H 	0.04350 0.23610 0.34290 -0.04200
C 	C 	0.03150 0.15410 0.33790 -0.20800
H 	H 	0.99050 0.13470 0.33840 0.11300
C 	C 	0.91717 0.65683 0.44943 -0.05500
N 	N 	0.88577 0.66443 0.52263 -0.24500
C 	C 	0.73047 0.54863 0.67303 0.07400
H 	H 	0.71017 0.56943 0.67623 -0.02400
C 	C 	0.69817 0.48743 0.67123 -0.13800
H 	H 	0.65717 0.46803 0.67173 0.07700
C 	C 	0.58383 0.99017 0.78277 -0.02400
N 	N 	0.55243 0.99777 0.85597 -0.21400
C 	C 	0.39713 0.88197 0.00637 0.08300
H 	H 	0.37683 0.90277 0.00957 -0.03600
C 	C 	0.36483 0.82077 0.00457 -0.17200
H 	H 	0.32383 0.80137 0.00507 0.07900
C 	C 	0.07300 0.74950 0.11610 -0.07400
N 	N 	0.11200 0.78090 0.18930 -0.24600
C 	C 	0.15150 0.93620 0.33970 0.04900
H 	H 	0.19260 0.95650 0.34290 -0.01000
C 	C 	0.12260 0.96850 0.33790 -0.08500
H 	H 	0.14420 0.00950 0.33840 0.04000
C 	C 	0.73967 0.08283 0.44943 -0.06900
N 	N 	0.77867 0.11423 0.52263 -0.24500
C 	C 	0.81817 0.26953 0.67303 0.07400
H 	H 	0.85927 0.28983 0.67623 -0.02100
C 	C 	0.78927 0.30183 0.67123 -0.13800
H 	H 	0.81087 0.34283 0.67173 0.07900
C 	C 	0.40633 0.41617 0.78277 -0.03500
N 	N 	0.44533 0.44757 0.85597 -0.22200
C 	C 	0.48483 0.60287 0.00637 0.08200
H 	H 	0.52593 0.62317 0.00957 -0.04100
C 	C 	0.45593 0.63517 0.00457 -0.17400
H 	H 	0.47753 0.67617 0.00507 0.07900
Au	Au	-0.00000 0.29377 -0.00000 0.19600
Au	Au	0.66667 0.62710 0.33333 0.25400
Au	Au	0.33333 0.96044 0.66667 0.28700
Au	Au	0.70623 0.70623 -0.00000 0.21300
Au	Au	0.37290 0.03956 0.33333 0.24600
Au	Au	0.03956 0.37290 0.66667 0.27100
Au	Au	0.29377 0.00000 -0.00000 0.19400
Au	Au	0.96044 0.33333 0.33333 0.26300
Au	Au	0.62710 0.66667 0.66667 0.27800
Au	Au	-0.00000 0.70623 -0.00000 0.19700
Au	Au	0.66667 0.03956 0.33333 0.24600
Au	Au	0.33333 0.37290 0.66667 0.27800
Au	Au	0.29377 0.29377 -0.00000 0.21100
Au	Au	0.96044 0.62710 0.33333 0.26300
Au	Au	0.62710 0.96044 0.66667 0.28700
Au	Au	0.70623 0.00000 -0.00000 0.19500
Au	Au	0.37290 0.33333 0.33333 0.25400
Au	Au	0.03956 0.66667 0.66667 0.27100
Fe	Fe	0.16667 0.33333 0.33333 1.17300
Fe	Fe	0.66667 0.83333 0.33333 1.17400
Fe	Fe	0.16667 0.83333 0.33333 1.17300
Fe	Fe	0.33333 0.16667 0.66667 1.17500
Fe	Fe	-0.00000 0.50000 -0.00000 1.12300
Fe	Fe	0.83333 0.66667 0.66667 1.17600
Fe	Fe	0.50000 0.00000 -0.00000 1.12200
Fe	Fe	0.83333 0.16667 0.66667 1.17500
Fe	Fe	0.50000 0.50000 -0.00000 1.13400
N 	N 	0.21050 0.42100 0.32980 -0.26000
C 	C 	0.06095 0.12190 0.33530 0.08400
C 	C 	0.02905 0.05810 0.33390 0.05800
N 	N 	0.87717 0.75433 0.66313 -0.25100
C 	C 	0.72762 0.45523 0.66863 0.05600
C 	C 	0.69572 0.39143 0.66723 0.09600
N 	N 	0.54383 0.08767 0.99647 -0.23700
C 	C 	0.39428 0.78857 0.00197 0.09700
C 	C 	0.36238 0.72477 0.00057 -0.03100
N 	N 	0.57900 0.78950 0.32980 -0.26000
C 	C 	0.87810 0.93905 0.33530 0.01900
C 	C 	0.94190 0.97095 0.33390 0.12900
N 	N 	0.24567 0.12283 0.66313 -0.26800
C 	C 	0.54477 0.27238 0.66863 0.05600
C 	C 	0.60857 0.30428 0.66723 0.09600
N 	N 	0.91233 0.45617 0.99647 -0.22900
C 	C 	0.21143 0.60572 0.00197 0.09700
C 	C 	0.27523 0.63762 0.00057 -0.03200
N 	N 	0.21050 0.78950 0.32980 -0.26000
C 	C 	0.06095 0.93905 0.33530 0.05000
C 	C 	0.02905 0.97095 0.33390 0.09600
N 	N 	0.87717 0.12283 0.66313 -0.25900
C 	C 	0.72762 0.27238 0.66863 0.05600
C 	C 	0.69572 0.30428 0.66723 0.09600
N 	N 	0.54383 0.45617 0.99647 -0.23400
C 	C 	0.39428 0.60572 0.00197 0.09700
C 	C 	0.36238 0.63762 0.00057 -0.03200
N 	N 	0.42100 0.21050 0.67020 -0.25900
C 	C 	0.12190 0.06095 0.66470 0.09700
C 	C 	0.05810 0.02905 0.66610 0.06800
N 	N 	0.08767 0.54383 0.00353 -0.27600
C 	C 	0.78857 0.39428 0.99803 0.01800
C 	C 	0.72477 0.36238 0.99943 0.22600
N 	N 	0.75433 0.87717 0.33687 -0.25000
C 	C 	0.45523 0.72762 0.33137 0.06000
C 	C 	0.39143 0.69572 0.33277 0.10000
N 	N 	0.78950 0.57900 0.67020 -0.25900
C 	C 	0.93905 0.87810 0.66470 0.03400
C 	C 	0.97095 0.94190 0.66610 0.13700
N 	N 	0.45617 0.91233 0.00353 -0.26800
C 	C 	0.60572 0.21143 0.99803 0.01800
C 	C 	0.63762 0.27523 0.99943 0.22600
N 	N 	0.12283 0.24567 0.33687 -0.26800
C 	C 	0.27238 0.54477 0.33137 0.06000
C 	C 	0.30428 0.60857 0.33277 0.10000
N 	N 	0.78950 0.21050 0.67020 -0.25900
C 	C 	0.93905 0.06095 0.66470 0.06700
C 	C 	0.97095 0.02905 0.66610 0.10100
N 	N 	0.45617 0.54383 0.00353 -0.27400
C 	C 	0.60572 0.39428 0.99803 0.01800
C 	C 	0.63762 0.36238 0.99943 0.22600
N 	N 	0.12283 0.87717 0.33687 -0.25900
C 	C 	0.27238 0.72762 0.33137 0.06000
C 	C 	0.30428 0.69572 0.33277 0.10000
N 	N 	0.06050 0.03025 0.33250 -0.14900
N 	N 	0.72717 0.36358 0.66583 -0.14000
N 	N 	0.39383 0.69692 0.99917 -0.01900
N 	N 	0.96975 0.03025 0.33250 -0.14200
N 	N 	0.63642 0.36358 0.66583 -0.14000
N 	N 	0.30308 0.69692 0.99917 -0.01800
N 	N 	0.96975 0.93950 0.33250 -0.13400
N 	N 	0.63642 0.27283 0.66583 -0.14000
N 	N 	0.30308 0.60617 0.99917 -0.01800
N 	N 	0.03025 0.06050 0.66750 -0.14000
N 	N 	0.69692 0.39383 0.00083 -0.25500
N 	N 	0.36358 0.72717 0.33417 -0.13500
N 	N 	0.03025 0.96975 0.66750 -0.13200
N 	N 	0.69692 0.30308 0.00083 -0.25500
N 	N 	0.36358 0.63642 0.33417 -0.13500
N 	N 	0.93950 0.96975 0.66750 -0.12600
N 	N 	0.60617 0.30308 0.00083 -0.25500
N 	N 	0.27283 0.63642 0.33417 -0.13500
