data_crystal

_cell_length_a 26.60400
_cell_length_b 18.11300
_cell_length_c 18.92500
_cell_angle_alpha 90.00000
_cell_angle_beta  118.24000
_cell_angle_gamma 90.00000

_symmetry_space_group_name_	'P 1'
_symmetry_space_group_name_H-M	'P 1'

loop_
_symmetry_equiv_pos_as_xyz
  x,y,z

loop_
_atom_site_label
_atom_site_type_symbol
_atom_site_fract_x
_atom_site_fract_y
_atom_site_fract_z
_atom_site_charge
Co	Co	0.99648 0.08090 0.77893 1.09200
B 	B 	0.02760 0.95130 0.68930 1.49400
H 	H 	0.03880 0.91260 0.66170 -0.53200
N 	N 	0.05540 0.99310 0.83490 -0.22000
N 	N 	0.06130 0.94280 0.78190 -0.36100
C 	C 	0.09090 0.96520 0.90390 0.13600
H 	H 	0.09980 0.99110 0.95210 -0.01500
C 	C 	0.09840 0.88840 0.82680 0.13700
H 	H 	0.11100 0.84880 0.80630 -0.02100
N 	N 	0.11440 0.90050 0.90640 -0.21100
N 	N 	0.94220 0.99420 0.69880 -0.21100
N 	N 	0.96690 0.94650 0.66610 -0.41400
C 	C 	0.88940 0.97370 0.66370 0.14100
H 	H 	0.86160 0.00000 0.67160 -0.03300
C 	C 	0.92550 0.90070 0.61700 0.17900
H 	H 	0.93110 0.86310 0.58650 -0.03700
N 	N 	0.87480 0.91350 0.61530 -0.22200
N 	N 	0.02990 0.08830 0.70050 -0.21300
N 	N 	0.04040 0.02850 0.67010 -0.37400
C 	C 	0.04270 0.14520 0.66470 0.09600
H 	H 	0.03800 0.19540 0.67500 -0.00900
C 	C 	0.05680 0.05230 0.61340 0.14200
H 	H 	0.06340 0.02040 0.57870 -0.02800
N 	N 	0.06200 0.12560 0.61460 -0.15100
B 	B 	0.96130 0.21300 0.85730 1.41000
H 	H 	0.94910 0.25400 0.88110 -0.50200
N 	N 	0.93620 0.16540 0.71870 -0.21400
N 	N 	0.93000 0.21850 0.76570 -0.36000
C 	C 	0.90510 0.19040 0.64390 0.10900
H 	H 	0.89940 0.16330 0.59770 -0.02000
C 	C 	0.89760 0.27400 0.71760 0.15100
H 	H 	0.88730 0.31750 0.73560 -0.01400
N 	N 	0.88220 0.25810 0.64050 -0.20600
N 	N 	0.05070 0.16780 0.85650 -0.21900
N 	N 	0.02540 0.21850 0.88520 -0.36300
C 	C 	0.10160 0.19370 0.88310 0.13500
H 	H 	0.12990 0.16670 0.87700 -0.02500
C 	C 	0.06420 0.27250 0.92280 0.15900
H 	H 	0.05830 0.31420 0.94820 -0.02700
N 	N 	0.11330 0.25820 0.91880 -0.21400
N 	N 	0.96170 0.07720 0.85630 -0.21700
N 	N 	0.94860 0.13870 0.88300 -0.36100
C 	C 	0.94610 0.02190 0.88820 0.08400
H 	H 	0.95020 0.97110 0.87940 -0.00100
C 	C 	0.92440 0.11990 0.93080 0.15400
H 	H 	0.91070 0.15360 0.95620 -0.03000
N 	N 	0.92350 0.04720 0.93530 -0.14900
Cu	Cu	0.19695 0.85002 0.97582 0.91600
Cu	Cu	0.30583 0.81547 0.03345 0.92100
O 	O 	0.21710 0.89230 0.89380 -0.41500
O 	O 	0.30950 0.87700 0.95120 -0.42500
C 	C 	0.26570 0.89930 0.89810 0.39500
C 	C 	0.26310 0.94160 0.82740 -0.12600
C 	C 	0.21640 0.99800 0.79190 0.00400
C 	C 	0.31570 0.97850 0.85330 0.02000
C 	C 	0.25390 0.89410 0.75580 0.09100
C 	C 	0.27190 0.82460 0.76770 -0.03400
O 	O 	0.23080 0.93600 0.04590 -0.44400
O 	O 	0.32050 0.90410 0.09940 -0.44000
C 	C 	0.28190 0.94810 0.08980 0.46900
C 	C 	0.29490 0.01800 0.13690 -0.35200
H 	H 	0.33210 0.01160 0.18680 0.13200
C 	C 	0.24950 0.04520 0.16150 0.08400
H 	H 	0.21170 0.02360 0.12570 0.01600
H 	H 	0.26070 0.03050 0.21740 -0.00500
C 	C 	0.30050 0.08190 0.09030 0.34600
C 	C 	0.25260 0.08150 0.00090 -0.67800
H 	H 	0.21530 0.07710 0.99900 0.23700
H 	H 	0.25840 0.03950 0.97290 0.22800
H 	H 	0.25420 0.12750 0.97490 0.23100
C 	C 	0.36100 0.08380 0.09250 -0.64300
H 	H 	0.36350 0.04310 0.06010 0.21400
H 	H 	0.39130 0.07850 0.14800 0.20400
H 	H 	0.36560 0.13090 0.07080 0.21800
O 	O 	0.80160 0.79760 0.93270 -0.39100
O 	O 	0.71050 0.76340 0.88920 -0.41100
C 	C 	0.75530 0.76510 0.88450 0.33200
C 	C 	0.75910 0.72580 0.81360 -0.06500
C 	C 	0.81710 0.69660 0.83190 -0.05900
H 	H 	0.82400 0.64650 0.85550 0.04100
H 	H 	0.84820 0.73010 0.86740 0.05800
C 	C 	0.73270 0.77820 0.73610 0.00100
C 	C 	0.75140 0.85140 0.74940 0.00100
C 	C 	0.66850 0.78740 0.69690 -0.01400
O 	O 	0.32280 0.25750 0.08490 -0.40800
O 	O 	0.23020 0.23830 0.04660 -0.40900
C 	C 	0.28290 0.22420 0.08740 0.32300
C 	C 	0.30050 0.15240 0.13870 -0.03000
C 	C 	0.34890 0.16780 0.21430 -0.34900
H 	H 	0.37900 0.19030 0.20560 0.13000
H 	H 	0.36310 0.12170 0.24450 0.11500
H 	H 	0.33790 0.20180 0.24480 0.13100
C 	C 	0.24750 0.12560 0.15420 -0.19300
H 	H 	0.25100 0.14840 0.20390 0.08600
H 	H 	0.21060 0.14110 0.10880 0.09600
Cu	Cu	0.79717 0.86262 0.53850 0.92000
Cu	Cu	0.69168 0.81690 0.44980 0.91400
O 	O 	0.76010 0.94080 0.56160 -0.40500
O 	O 	0.66820 0.91090 0.47610 -0.38500
C 	C 	0.70630 0.95530 0.52690 0.30600
C 	C 	0.68310 0.02670 0.55030 -0.08900
C 	C 	0.73190 0.05870 0.63340 -0.25300
H 	H 	0.73190 0.03310 0.67960 0.10500
H 	H 	0.77000 0.05370 0.63690 0.10700
C 	C 	0.62790 0.01010 0.54670 -0.31800
H 	H 	0.59770 0.01130 0.49080 0.10100
H 	H 	0.61970 0.04710 0.57780 0.10400
H 	H 	0.62930 0.96100 0.56920 0.13600
C 	C 	0.67860 0.09120 0.49560 0.53200
C 	C 	0.72870 0.09300 0.47470 -0.81900
H 	H 	0.76300 0.07220 0.51940 0.27400
H 	H 	0.73610 0.14420 0.46550 0.27500
H 	H 	0.71840 0.06390 0.42620 0.25700
C 	C 	0.62470 0.09930 0.42530 -0.92900
H 	H 	0.62240 0.14830 0.40200 0.29600
H 	H 	0.59400 0.09400 0.43960 0.27900
H 	H 	0.62070 0.06130 0.38620 0.28700
O 	O 	0.78900 0.79990 0.61920 -0.38000
O 	O 	0.69630 0.77370 0.54550 -0.39900
C 	C 	0.74250 0.76970 0.60860 0.27100
C 	C 	0.74550 0.72850 0.68100 0.09400
C 	C 	0.80810 0.69630 0.74200 -0.15300
H 	H 	0.81180 0.64520 0.72630 0.06100
H 	H 	0.83790 0.72700 0.73910 0.08100
C 	C 	0.70190 0.67390 0.65830 -0.50100
H 	H 	0.68760 0.67310 0.69750 0.18600
H 	H 	0.71760 0.62540 0.65670 0.16700
H 	H 	0.67050 0.68580 0.60510 0.19000
O 	O 	0.67110 0.27600 0.48780 -0.44800
O 	O 	0.75930 0.23430 0.55800 -0.43600
C 	C 	0.70540 0.22800 0.52940 0.46400
C 	C 	0.68470 0.15910 0.54800 -0.44600
H 	H 	0.64540 0.17010 0.53950 0.15800
C 	C 	0.71680 0.13250 0.63090 0.20600
H 	H 	0.75170 0.16260 0.66000 -0.02100
H 	H 	0.69320 0.13840 0.65820 -0.04500
O 	O 	0.21500 0.91230 0.56240 -0.41700
O 	O 	0.30380 0.86830 0.63750 -0.40200
C 	C 	0.25930 0.90530 0.62610 0.37000
C 	C 	0.26540 0.94450 0.70080 -0.19100
H 	H 	0.23690 0.98560 0.68330 0.08900
C 	C 	0.32750 0.97970 0.74890 0.01000
Co	Co	0.49648 0.58090 0.77893 1.09600
B 	B 	0.52760 0.45130 0.68930 1.47900
H 	H 	0.53880 0.41260 0.66170 -0.52800
N 	N 	0.55540 0.49310 0.83490 -0.22200
N 	N 	0.56130 0.44280 0.78190 -0.35800
C 	C 	0.59090 0.46520 0.90390 0.13600
H 	H 	0.59980 0.49110 0.95210 -0.01800
C 	C 	0.59840 0.38840 0.82680 0.13600
H 	H 	0.61100 0.34880 0.80630 -0.02000
N 	N 	0.61440 0.40050 0.90640 -0.21100
N 	N 	0.44220 0.49420 0.69880 -0.21000
N 	N 	0.46690 0.44650 0.66610 -0.41100
C 	C 	0.38940 0.47370 0.66370 0.12400
H 	H 	0.36160 0.50000 0.67160 -0.02200
C 	C 	0.42550 0.40070 0.61700 0.17700
H 	H 	0.43110 0.36310 0.58650 -0.03700
N 	N 	0.37480 0.41350 0.61530 -0.22000
N 	N 	0.52990 0.58830 0.70050 -0.21200
N 	N 	0.54040 0.52850 0.67010 -0.36700
C 	C 	0.54270 0.64520 0.66470 0.09700
H 	H 	0.53800 0.69540 0.67500 -0.00900
C 	C 	0.55680 0.55230 0.61340 0.14300
H 	H 	0.56340 0.52040 0.57870 -0.02500
N 	N 	0.56200 0.62560 0.61460 -0.15000
B 	B 	0.46130 0.71300 0.85730 1.41200
H 	H 	0.44910 0.75400 0.88110 -0.50200
N 	N 	0.43620 0.66540 0.71870 -0.21400
N 	N 	0.43000 0.71850 0.76570 -0.36000
C 	C 	0.40510 0.69040 0.64390 0.11000
H 	H 	0.39940 0.66330 0.59770 -0.01900
C 	C 	0.39760 0.77400 0.71760 0.15200
H 	H 	0.38730 0.81750 0.73560 -0.01400
N 	N 	0.38220 0.75810 0.64050 -0.20600
N 	N 	0.55070 0.66780 0.85650 -0.21900
N 	N 	0.52540 0.71850 0.88520 -0.36300
C 	C 	0.60160 0.69370 0.88310 0.13600
H 	H 	0.62990 0.66670 0.87700 -0.02400
C 	C 	0.56420 0.77250 0.92280 0.15900
H 	H 	0.55830 0.81420 0.94820 -0.02700
N 	N 	0.61330 0.75820 0.91880 -0.21400
N 	N 	0.46170 0.57720 0.85630 -0.21800
N 	N 	0.44860 0.63870 0.88300 -0.36100
C 	C 	0.44610 0.52190 0.88820 0.10000
H 	H 	0.45020 0.47110 0.87940 -0.01200
C 	C 	0.42440 0.61990 0.93080 0.15400
H 	H 	0.41070 0.65360 0.95620 -0.02900
N 	N 	0.42350 0.54720 0.93530 -0.15000
Cu	Cu	0.69695 0.35002 0.97582 0.91500
Cu	Cu	0.80583 0.31547 0.03345 0.92200
O 	O 	0.71710 0.39230 0.89380 -0.41500
O 	O 	0.80950 0.37700 0.95120 -0.42700
C 	C 	0.76570 0.39930 0.89810 0.39300
C 	C 	0.76310 0.44160 0.82740 -0.12400
C 	C 	0.71640 0.49800 0.79190 -0.00200
C 	C 	0.81570 0.47850 0.85330 0.01500
C 	C 	0.75390 0.39410 0.75580 0.09000
C 	C 	0.77190 0.32460 0.76770 -0.03400
O 	O 	0.73080 0.43600 0.04590 -0.44400
O 	O 	0.82050 0.40410 0.09940 -0.43900
C 	C 	0.78190 0.44810 0.08980 0.45800
C 	C 	0.79490 0.51800 0.13690 -0.34000
H 	H 	0.83210 0.51160 0.18680 0.13100
C 	C 	0.74950 0.54520 0.16150 0.07700
H 	H 	0.71170 0.52360 0.12570 0.02100
H 	H 	0.76070 0.53050 0.21740 -0.00200
C 	C 	0.80050 0.58190 0.09030 0.34200
C 	C 	0.75260 0.58150 0.00090 -0.66700
H 	H 	0.71530 0.57710 0.99900 0.23500
H 	H 	0.75840 0.53950 0.97290 0.22800
H 	H 	0.75420 0.62750 0.97490 0.22800
C 	C 	0.86100 0.58380 0.09250 -0.64300
H 	H 	0.86350 0.54310 0.06010 0.21700
H 	H 	0.89130 0.57850 0.14800 0.20500
H 	H 	0.86560 0.63090 0.07080 0.21900
O 	O 	0.30160 0.29760 0.93270 -0.39100
O 	O 	0.21050 0.26340 0.88920 -0.41100
C 	C 	0.25530 0.26510 0.88450 0.33200
C 	C 	0.25910 0.22580 0.81360 -0.06700
C 	C 	0.31710 0.19660 0.83190 -0.05800
H 	H 	0.32400 0.14650 0.85550 0.03900
H 	H 	0.34820 0.23010 0.86740 0.05700
C 	C 	0.23270 0.27820 0.73610 0.00300
C 	C 	0.25140 0.35140 0.74940 -0.00200
C 	C 	0.16850 0.28740 0.69690 -0.01500
O 	O 	0.82280 0.75750 0.08490 -0.40700
O 	O 	0.73020 0.73830 0.04660 -0.40800
C 	C 	0.78290 0.72420 0.08740 0.32200
C 	C 	0.80050 0.65240 0.13870 -0.02900
C 	C 	0.84890 0.66780 0.21430 -0.35200
H 	H 	0.87900 0.69030 0.20560 0.13200
H 	H 	0.86310 0.62170 0.24450 0.11600
H 	H 	0.83790 0.70180 0.24480 0.13200
C 	C 	0.74750 0.62560 0.15420 -0.19000
H 	H 	0.75100 0.64840 0.20390 0.08500
H 	H 	0.71060 0.64110 0.10880 0.09600
Cu	Cu	0.29717 0.36262 0.53850 0.92000
Cu	Cu	0.19168 0.31690 0.44980 0.91400
O 	O 	0.26010 0.44080 0.56160 -0.40700
O 	O 	0.16820 0.41090 0.47610 -0.38600
C 	C 	0.20630 0.45530 0.52690 0.30100
C 	C 	0.18310 0.52670 0.55030 -0.09200
C 	C 	0.23190 0.55870 0.63340 -0.25100
H 	H 	0.23190 0.53310 0.67960 0.10600
H 	H 	0.27000 0.55370 0.63690 0.10800
C 	C 	0.12790 0.51010 0.54670 -0.28800
H 	H 	0.09770 0.51130 0.49080 0.09500
H 	H 	0.11970 0.54710 0.57780 0.09700
H 	H 	0.12930 0.46100 0.56920 0.12100
C 	C 	0.17860 0.59120 0.49560 0.53900
C 	C 	0.22870 0.59300 0.47470 -0.82700
H 	H 	0.26300 0.57220 0.51940 0.27800
H 	H 	0.23610 0.64420 0.46550 0.27800
H 	H 	0.21840 0.56390 0.42620 0.26200
C 	C 	0.12470 0.59930 0.42530 -0.93800
H 	H 	0.12240 0.64830 0.40200 0.29900
H 	H 	0.09400 0.59400 0.43960 0.28300
H 	H 	0.12070 0.56130 0.38620 0.29200
O 	O 	0.28900 0.29990 0.61920 -0.38000
O 	O 	0.19630 0.27370 0.54550 -0.40000
C 	C 	0.24250 0.26970 0.60860 0.27200
C 	C 	0.24550 0.22850 0.68100 0.09100
C 	C 	0.30810 0.19630 0.74200 -0.15300
H 	H 	0.31180 0.14520 0.72630 0.05900
H 	H 	0.33790 0.22700 0.73910 0.08000
C 	C 	0.20190 0.17390 0.65830 -0.49600
H 	H 	0.18760 0.17310 0.69750 0.18400
H 	H 	0.21760 0.12540 0.65670 0.16400
H 	H 	0.17050 0.18580 0.60510 0.18800
O 	O 	0.17110 0.77600 0.48780 -0.44800
O 	O 	0.25930 0.73430 0.55800 -0.43600
C 	C 	0.20540 0.72800 0.52940 0.46500
C 	C 	0.18470 0.65910 0.54800 -0.44800
H 	H 	0.14540 0.67010 0.53950 0.15900
C 	C 	0.21680 0.63250 0.63090 0.20600
H 	H 	0.25170 0.66260 0.66000 -0.02100
H 	H 	0.19320 0.63840 0.65820 -0.04500
O 	O 	0.71500 0.41230 0.56240 -0.41800
O 	O 	0.80380 0.36830 0.63750 -0.40200
C 	C 	0.75930 0.40530 0.62610 0.36800
C 	C 	0.76540 0.44450 0.70080 -0.19000
H 	H 	0.73690 0.48560 0.68330 0.08700
C 	C 	0.82750 0.47970 0.74890 0.00500
Co	Co	0.00352 0.08090 0.22107 1.09300
B 	B 	0.97240 0.95130 0.31070 1.49500
H 	H 	0.96120 0.91260 0.33830 -0.53100
N 	N 	0.94460 0.99310 0.16510 -0.21900
N 	N 	0.93870 0.94280 0.21810 -0.36000
C 	C 	0.90910 0.96520 0.09610 0.13700
H 	H 	0.90020 0.99110 0.04790 -0.01400
C 	C 	0.90160 0.88840 0.17320 0.13800
H 	H 	0.88900 0.84880 0.19370 -0.02000
N 	N 	0.88560 0.90050 0.09360 -0.21000
N 	N 	0.05780 0.99420 0.30120 -0.21000
N 	N 	0.03310 0.94650 0.33390 -0.41300
C 	C 	0.11060 0.97370 0.33630 0.14100
H 	H 	0.13840 0.00000 0.32840 -0.03300
C 	C 	0.07450 0.90070 0.38300 0.17900
H 	H 	0.06890 0.86310 0.41350 -0.03700
N 	N 	0.12520 0.91350 0.38470 -0.22200
N 	N 	0.97010 0.08830 0.29950 -0.21300
N 	N 	0.95960 0.02850 0.32990 -0.37400
C 	C 	0.95730 0.14520 0.33530 0.09600
H 	H 	0.96200 0.19540 0.32500 -0.00900
C 	C 	0.94320 0.05230 0.38660 0.14200
H 	H 	0.93660 0.02040 0.42130 -0.02800
N 	N 	0.93800 0.12560 0.38540 -0.15100
B 	B 	0.03870 0.21300 0.14270 1.41000
H 	H 	0.05090 0.25400 0.11890 -0.50200
N 	N 	0.06380 0.16540 0.28130 -0.21400
N 	N 	0.07000 0.21850 0.23430 -0.36000
C 	C 	0.09490 0.19040 0.35610 0.10900
H 	H 	0.10060 0.16330 0.40230 -0.02000
C 	C 	0.10240 0.27400 0.28240 0.15100
H 	H 	0.11270 0.31750 0.26440 -0.01400
N 	N 	0.11780 0.25810 0.35950 -0.20600
N 	N 	0.94930 0.16780 0.14350 -0.21900
N 	N 	0.97460 0.21850 0.11480 -0.36300
C 	C 	0.89840 0.19370 0.11690 0.13500
H 	H 	0.87010 0.16670 0.12300 -0.02500
C 	C 	0.93580 0.27250 0.07720 0.15900
H 	H 	0.94170 0.31420 0.05180 -0.02700
N 	N 	0.88670 0.25820 0.08120 -0.21400
N 	N 	0.03830 0.07720 0.14370 -0.21700
N 	N 	0.05140 0.13870 0.11700 -0.36100
C 	C 	0.05390 0.02190 0.11180 0.08400
H 	H 	0.04980 0.97110 0.12060 -0.00100
C 	C 	0.07560 0.11990 0.06920 0.15400
H 	H 	0.08930 0.15360 0.04380 -0.03000
N 	N 	0.07650 0.04720 0.06470 -0.14900
Cu	Cu	0.80305 0.85002 0.02418 0.91600
Cu	Cu	0.69417 0.81547 0.96655 0.92100
O 	O 	0.78290 0.89230 0.10620 -0.41500
O 	O 	0.69050 0.87700 0.04880 -0.42500
C 	C 	0.73430 0.89930 0.10190 0.39500
C 	C 	0.73690 0.94160 0.17260 -0.12600
C 	C 	0.78360 0.99800 0.20810 0.00400
C 	C 	0.68430 0.97850 0.14670 0.02000
C 	C 	0.74610 0.89410 0.24420 0.09100
C 	C 	0.72810 0.82460 0.23230 -0.03400
O 	O 	0.76920 0.93600 0.95410 -0.44400
O 	O 	0.67950 0.90410 0.90060 -0.44000
C 	C 	0.71810 0.94810 0.91020 0.46900
C 	C 	0.70510 0.01800 0.86310 -0.35200
H 	H 	0.66790 0.01160 0.81320 0.13200
C 	C 	0.75050 0.04520 0.83850 0.08400
H 	H 	0.78830 0.02360 0.87430 0.01600
H 	H 	0.73930 0.03050 0.78260 -0.00500
C 	C 	0.69950 0.08190 0.90970 0.34600
C 	C 	0.74740 0.08150 0.99910 -0.67800
H 	H 	0.78470 0.07710 0.00100 0.23700
H 	H 	0.74160 0.03950 0.02710 0.22800
H 	H 	0.74580 0.12750 0.02510 0.23100
C 	C 	0.63900 0.08380 0.90750 -0.64300
H 	H 	0.63650 0.04310 0.93990 0.21400
H 	H 	0.60870 0.07850 0.85200 0.20400
H 	H 	0.63440 0.13090 0.92920 0.21800
O 	O 	0.19840 0.79760 0.06730 -0.39100
O 	O 	0.28950 0.76340 0.11080 -0.41100
C 	C 	0.24470 0.76510 0.11550 0.33200
C 	C 	0.24090 0.72580 0.18640 -0.06500
C 	C 	0.18290 0.69660 0.16810 -0.05900
H 	H 	0.17600 0.64650 0.14450 0.04100
H 	H 	0.15180 0.73010 0.13260 0.05800
C 	C 	0.26730 0.77820 0.26390 0.00100
C 	C 	0.24860 0.85140 0.25060 0.00100
C 	C 	0.33150 0.78740 0.30310 -0.01400
O 	O 	0.67720 0.25750 0.91510 -0.40800
O 	O 	0.76980 0.23830 0.95340 -0.40900
C 	C 	0.71710 0.22420 0.91260 0.32300
C 	C 	0.69950 0.15240 0.86130 -0.03000
C 	C 	0.65110 0.16780 0.78570 -0.34900
H 	H 	0.62100 0.19030 0.79440 0.13000
H 	H 	0.63690 0.12170 0.75550 0.11500
H 	H 	0.66210 0.20180 0.75520 0.13100
C 	C 	0.75250 0.12560 0.84580 -0.19300
H 	H 	0.74900 0.14840 0.79610 0.08600
H 	H 	0.78940 0.14110 0.89120 0.09600
Cu	Cu	0.20283 0.86262 0.46150 0.92000
Cu	Cu	0.30832 0.81690 0.55020 0.91400
O 	O 	0.23990 0.94080 0.43840 -0.40500
O 	O 	0.33180 0.91090 0.52390 -0.38500
C 	C 	0.29370 0.95530 0.47310 0.30600
C 	C 	0.31690 0.02670 0.44970 -0.08900
C 	C 	0.26810 0.05870 0.36660 -0.25300
H 	H 	0.26810 0.03310 0.32040 0.10500
H 	H 	0.23000 0.05370 0.36310 0.10700
C 	C 	0.37210 0.01010 0.45330 -0.31800
H 	H 	0.40230 0.01130 0.50920 0.10100
H 	H 	0.38030 0.04710 0.42220 0.10400
H 	H 	0.37070 0.96100 0.43080 0.13600
C 	C 	0.32140 0.09120 0.50440 0.53200
C 	C 	0.27130 0.09300 0.52530 -0.81900
H 	H 	0.23700 0.07220 0.48060 0.27400
H 	H 	0.26390 0.14420 0.53450 0.27500
H 	H 	0.28160 0.06390 0.57380 0.25700
C 	C 	0.37530 0.09930 0.57470 -0.92900
H 	H 	0.37760 0.14830 0.59800 0.29600
H 	H 	0.40600 0.09400 0.56040 0.27900
H 	H 	0.37930 0.06130 0.61380 0.28700
O 	O 	0.21100 0.79990 0.38080 -0.38000
O 	O 	0.30370 0.77370 0.45450 -0.39900
C 	C 	0.25750 0.76970 0.39140 0.27100
C 	C 	0.25450 0.72850 0.31900 0.09400
C 	C 	0.19190 0.69630 0.25800 -0.15300
H 	H 	0.18820 0.64520 0.27370 0.06100
H 	H 	0.16210 0.72700 0.26090 0.08100
C 	C 	0.29810 0.67390 0.34170 -0.50100
H 	H 	0.31240 0.67310 0.30250 0.18600
H 	H 	0.28240 0.62540 0.34330 0.16700
H 	H 	0.32950 0.68580 0.39490 0.19000
O 	O 	0.32890 0.27600 0.51220 -0.44800
O 	O 	0.24070 0.23430 0.44200 -0.43600
C 	C 	0.29460 0.22800 0.47060 0.46400
C 	C 	0.31530 0.15910 0.45200 -0.44600
H 	H 	0.35460 0.17010 0.46050 0.15800
C 	C 	0.28320 0.13250 0.36910 0.20600
H 	H 	0.24830 0.16260 0.34000 -0.02100
H 	H 	0.30680 0.13840 0.34180 -0.04500
O 	O 	0.78500 0.91230 0.43760 -0.41700
O 	O 	0.69620 0.86830 0.36250 -0.40200
C 	C 	0.74070 0.90530 0.37390 0.37000
C 	C 	0.73460 0.94450 0.29920 -0.19100
H 	H 	0.76310 0.98560 0.31670 0.08900
C 	C 	0.67250 0.97970 0.25110 0.01000
Co	Co	0.50352 0.58090 0.22107 1.09600
B 	B 	0.47240 0.45130 0.31070 1.47900
H 	H 	0.46120 0.41260 0.33830 -0.52800
N 	N 	0.44460 0.49310 0.16510 -0.22200
N 	N 	0.43870 0.44280 0.21810 -0.35800
C 	C 	0.40910 0.46520 0.09610 0.13600
H 	H 	0.40020 0.49110 0.04790 -0.01800
C 	C 	0.40160 0.38840 0.17320 0.13600
H 	H 	0.38900 0.34880 0.19370 -0.02000
N 	N 	0.38560 0.40050 0.09360 -0.21100
N 	N 	0.55780 0.49420 0.30120 -0.21000
N 	N 	0.53310 0.44650 0.33390 -0.41100
C 	C 	0.61060 0.47370 0.33630 0.12400
H 	H 	0.63840 0.50000 0.32840 -0.02200
C 	C 	0.57450 0.40070 0.38300 0.17700
H 	H 	0.56890 0.36310 0.41350 -0.03700
N 	N 	0.62520 0.41350 0.38470 -0.22000
N 	N 	0.47010 0.58830 0.29950 -0.21200
N 	N 	0.45960 0.52850 0.32990 -0.36700
C 	C 	0.45730 0.64520 0.33530 0.09700
H 	H 	0.46200 0.69540 0.32500 -0.00900
C 	C 	0.44320 0.55230 0.38660 0.14300
H 	H 	0.43660 0.52040 0.42130 -0.02500
N 	N 	0.43800 0.62560 0.38540 -0.15000
B 	B 	0.53870 0.71300 0.14270 1.41200
H 	H 	0.55090 0.75400 0.11890 -0.50200
N 	N 	0.56380 0.66540 0.28130 -0.21400
N 	N 	0.57000 0.71850 0.23430 -0.36000
C 	C 	0.59490 0.69040 0.35610 0.11000
H 	H 	0.60060 0.66330 0.40230 -0.01900
C 	C 	0.60240 0.77400 0.28240 0.15200
H 	H 	0.61270 0.81750 0.26440 -0.01400
N 	N 	0.61780 0.75810 0.35950 -0.20600
N 	N 	0.44930 0.66780 0.14350 -0.21900
N 	N 	0.47460 0.71850 0.11480 -0.36300
C 	C 	0.39840 0.69370 0.11690 0.13600
H 	H 	0.37010 0.66670 0.12300 -0.02400
C 	C 	0.43580 0.77250 0.07720 0.15900
H 	H 	0.44170 0.81420 0.05180 -0.02700
N 	N 	0.38670 0.75820 0.08120 -0.21400
N 	N 	0.53830 0.57720 0.14370 -0.21800
N 	N 	0.55140 0.63870 0.11700 -0.36100
C 	C 	0.55390 0.52190 0.11180 0.10000
H 	H 	0.54980 0.47110 0.12060 -0.01200
C 	C 	0.57560 0.61990 0.06920 0.15400
H 	H 	0.58930 0.65360 0.04380 -0.02900
N 	N 	0.57650 0.54720 0.06470 -0.15000
Cu	Cu	0.30305 0.35002 0.02418 0.91500
Cu	Cu	0.19417 0.31547 0.96655 0.92200
O 	O 	0.28290 0.39230 0.10620 -0.41500
O 	O 	0.19050 0.37700 0.04880 -0.42700
C 	C 	0.23430 0.39930 0.10190 0.39300
C 	C 	0.23690 0.44160 0.17260 -0.12400
C 	C 	0.28360 0.49800 0.20810 -0.00200
C 	C 	0.18430 0.47850 0.14670 0.01500
C 	C 	0.24610 0.39410 0.24420 0.09000
C 	C 	0.22810 0.32460 0.23230 -0.03400
O 	O 	0.26920 0.43600 0.95410 -0.44400
O 	O 	0.17950 0.40410 0.90060 -0.43900
C 	C 	0.21810 0.44810 0.91020 0.45800
C 	C 	0.20510 0.51800 0.86310 -0.34000
H 	H 	0.16790 0.51160 0.81320 0.13100
C 	C 	0.25050 0.54520 0.83850 0.07700
H 	H 	0.28830 0.52360 0.87430 0.02100
H 	H 	0.23930 0.53050 0.78260 -0.00200
C 	C 	0.19950 0.58190 0.90970 0.34200
C 	C 	0.24740 0.58150 0.99910 -0.66700
H 	H 	0.28470 0.57710 0.00100 0.23500
H 	H 	0.24160 0.53950 0.02710 0.22800
H 	H 	0.24580 0.62750 0.02510 0.22800
C 	C 	0.13900 0.58380 0.90750 -0.64300
H 	H 	0.13650 0.54310 0.93990 0.21700
H 	H 	0.10870 0.57850 0.85200 0.20500
H 	H 	0.13440 0.63090 0.92920 0.21900
O 	O 	0.69840 0.29760 0.06730 -0.39100
O 	O 	0.78950 0.26340 0.11080 -0.41100
C 	C 	0.74470 0.26510 0.11550 0.33200
C 	C 	0.74090 0.22580 0.18640 -0.06700
C 	C 	0.68290 0.19660 0.16810 -0.05800
H 	H 	0.67600 0.14650 0.14450 0.03900
H 	H 	0.65180 0.23010 0.13260 0.05700
C 	C 	0.76730 0.27820 0.26390 0.00300
C 	C 	0.74860 0.35140 0.25060 -0.00200
C 	C 	0.83150 0.28740 0.30310 -0.01500
O 	O 	0.17720 0.75750 0.91510 -0.40700
O 	O 	0.26980 0.73830 0.95340 -0.40800
C 	C 	0.21710 0.72420 0.91260 0.32200
C 	C 	0.19950 0.65240 0.86130 -0.02900
C 	C 	0.15110 0.66780 0.78570 -0.35200
H 	H 	0.12100 0.69030 0.79440 0.13200
H 	H 	0.13690 0.62170 0.75550 0.11600
H 	H 	0.16210 0.70180 0.75520 0.13200
C 	C 	0.25250 0.62560 0.84580 -0.19000
H 	H 	0.24900 0.64840 0.79610 0.08500
H 	H 	0.28940 0.64110 0.89120 0.09600
Cu	Cu	0.70283 0.36262 0.46150 0.92000
Cu	Cu	0.80832 0.31690 0.55020 0.91400
O 	O 	0.73990 0.44080 0.43840 -0.40700
O 	O 	0.83180 0.41090 0.52390 -0.38600
C 	C 	0.79370 0.45530 0.47310 0.30100
C 	C 	0.81690 0.52670 0.44970 -0.09200
C 	C 	0.76810 0.55870 0.36660 -0.25100
H 	H 	0.76810 0.53310 0.32040 0.10600
H 	H 	0.73000 0.55370 0.36310 0.10800
C 	C 	0.87210 0.51010 0.45330 -0.28800
H 	H 	0.90230 0.51130 0.50920 0.09500
H 	H 	0.88030 0.54710 0.42220 0.09700
H 	H 	0.87070 0.46100 0.43080 0.12100
C 	C 	0.82140 0.59120 0.50440 0.53900
C 	C 	0.77130 0.59300 0.52530 -0.82700
H 	H 	0.73700 0.57220 0.48060 0.27800
H 	H 	0.76390 0.64420 0.53450 0.27800
H 	H 	0.78160 0.56390 0.57380 0.26200
C 	C 	0.87530 0.59930 0.57470 -0.93800
H 	H 	0.87760 0.64830 0.59800 0.29900
H 	H 	0.90600 0.59400 0.56040 0.28300
H 	H 	0.87930 0.56130 0.61380 0.29200
O 	O 	0.71100 0.29990 0.38080 -0.38000
O 	O 	0.80370 0.27370 0.45450 -0.40000
C 	C 	0.75750 0.26970 0.39140 0.27200
C 	C 	0.75450 0.22850 0.31900 0.09100
C 	C 	0.69190 0.19630 0.25800 -0.15300
H 	H 	0.68820 0.14520 0.27370 0.05900
H 	H 	0.66210 0.22700 0.26090 0.08000
C 	C 	0.79810 0.17390 0.34170 -0.49600
H 	H 	0.81240 0.17310 0.30250 0.18400
H 	H 	0.78240 0.12540 0.34330 0.16400
H 	H 	0.82950 0.18580 0.39490 0.18800
O 	O 	0.82890 0.77600 0.51220 -0.44800
O 	O 	0.74070 0.73430 0.44200 -0.43600
C 	C 	0.79460 0.72800 0.47060 0.46500
C 	C 	0.81530 0.65910 0.45200 -0.44800
H 	H 	0.85460 0.67010 0.46050 0.15900
C 	C 	0.78320 0.63250 0.36910 0.20600
H 	H 	0.74830 0.66260 0.34000 -0.02100
H 	H 	0.80680 0.63840 0.34180 -0.04500
O 	O 	0.28500 0.41230 0.43760 -0.41800
O 	O 	0.19620 0.36830 0.36250 -0.40200
C 	C 	0.24070 0.40530 0.37390 0.36800
C 	C 	0.23460 0.44450 0.29920 -0.19000
H 	H 	0.26310 0.48560 0.31670 0.08700
C 	C 	0.17250 0.47970 0.25110 0.00500
