data_crystal

_cell_length_a 21.58500
_cell_length_b 13.40430
_cell_length_c 22.08900
_cell_angle_alpha 90.00000
_cell_angle_beta  110.81400
_cell_angle_gamma 90.00000

_symmetry_space_group_name_	'P 1'
_symmetry_space_group_name_H-M	'P 1'

loop_
_symmetry_equiv_pos_as_xyz
  x,y,z

loop_
_atom_site_label
_atom_site_type_symbol
_atom_site_fract_x
_atom_site_fract_y
_atom_site_fract_z
_atom_site_charge
Ag	Ag	0.92939 0.20117 0.07035 0.52600
N 	N 	0.97650 0.06990 0.02680 -0.14200
C 	C 	0.78270 0.23150 0.06880 -0.05200
H 	H 	0.80260 0.27260 0.10820 0.02400
H 	H 	0.78720 0.16040 0.08190 0.02200
C 	C 	0.48500 0.97700 0.92100 -0.46100
H 	H 	0.50490 0.93010 0.89970 0.14700
H 	H 	0.43900 0.99080 0.89330 0.14500
H 	H 	0.48520 0.94820 0.96220 0.15100
Ag	Ag	0.57844 0.32430 0.92262 0.52500
N 	N 	0.47510 0.30500 0.68370 -0.14000
N 	N 	0.81800 0.24980 0.02330 -0.14100
N 	N 	0.69310 0.29640 0.97040 -0.13900
C 	C 	0.43520 0.25500 0.71570 -0.04500
H 	H 	0.39150 0.28850 0.70310 0.02400
H 	H 	0.42750 0.18520 0.70040 0.02300
N 	N 	0.52840 0.31400 0.81040 -0.14200
C 	C 	0.54100 0.26900 0.70500 -0.04200
H 	H 	0.54110 0.19910 0.68980 0.02300
H 	H 	0.56780 0.30970 0.68630 0.02100
N 	N 	0.52610 0.43500 0.97320 -0.14100
C 	C 	0.70920 0.25800 0.03640 -0.04600
H 	H 	0.68220 0.19750 0.03490 0.02700
H 	H 	0.69720 0.30860 0.06290 0.02400
N 	N 	0.54400 0.16700 0.95620 -0.19400
C 	C 	0.73570 0.38330 0.97260 -0.04700
H 	H 	0.72390 0.43820 0.99660 0.02100
H 	H 	0.72770 0.40670 0.92800 0.02100
N 	N 	0.98980 0.33250 0.04400 -0.24400
C 	C 	0.80810 0.35760 0.00540 -0.04800
H 	H 	0.83210 0.37390 0.97590 0.02100
H 	H 	0.82710 0.39870 0.04490 0.02400
C 	C 	0.78540 0.19040 0.96440 -0.04200
H 	H 	0.79090 0.11860 0.97560 0.01900
H 	H 	0.80730 0.20370 0.93270 0.02000
C 	C 	0.71210 0.21430 0.93370 -0.05800
H 	H 	0.70190 0.23510 0.88820 0.02600
H 	H 	0.68580 0.15370 0.93360 0.02800
C 	C 	0.51600 0.41300 0.78150 -0.04000
H 	H 	0.55850 0.44930 0.79280 0.01800
H 	H 	0.48740 0.45060 0.80020 0.02000
C 	C 	0.48200 0.41000 0.70740 -0.05500
H 	H 	0.43790 0.44180 0.69470 0.02500
H 	H 	0.50900 0.44860 0.68720 0.02500
C 	C 	0.46810 0.25600 0.79120 -0.04900
H 	H 	0.43710 0.28460 0.81030 0.02500
H 	H 	0.47840 0.18650 0.80720 0.02800
C 	C 	0.57270 0.27200 0.78120 -0.04600
H 	H 	0.58460 0.20290 0.79780 0.02300
H 	H 	0.61390 0.31150 0.79420 0.02100
C 	C 	0.46200 0.44700 0.94150 -0.01500
H 	H 	0.43900 0.38280 0.94100 0.01800
H 	H 	0.45470 0.46530 0.89610 0.01500
C 	C 	0.52900 0.55000 0.93720 -0.08700
H 	H 	0.57510 0.57080 0.94550 0.03200
H 	H 	0.50470 0.54740 0.88990 0.03200
C 	C 	0.49300 0.62800 0.97100 -0.07100
H 	H 	0.45210 0.65550 0.93830 0.03000
H 	H 	0.52290 0.68390 0.99130 0.03400
C 	C 	0.43240 0.52700 0.97170 -0.00700
H 	H 	0.41570 0.58150 0.94000 0.01500
H 	H 	0.39390 0.49790 0.97990 0.01000
C 	C 	0.03100 0.36910 0.03510 0.19500
C 	C 	0.08880 0.41600 0.02180 -0.56900
H 	H 	0.09490 0.38170 0.98500 0.17100
H 	H 	0.12910 0.40860 0.06020 0.17200
H 	H 	0.07980 0.48640 0.01160 0.17900
C 	C 	0.52600 0.08000 0.93600 0.09700
C 	C 	0.03400 0.09600 0.01600 0.12200
H 	H 	0.07020 0.10630 0.05780 -0.08900
H 	H 	0.02640 0.16080 0.99220 -0.04100
C 	C 	0.92500 0.02500 0.97090 0.04000
H 	H 	0.90700 0.07680 0.93700 -0.07500
H 	H 	0.88830 0.00170 0.98420 0.10300
C 	C 	0.00300 0.97200 0.07260 0.00100
H 	H 	0.03470 0.99380 0.11500 0.00200
H 	H 	0.96450 0.94100 0.08040 0.03400
C 	C 	0.96400 0.10800 0.95700 -0.17400
H 	H 	0.98390 0.17420 0.95760 0.06500
H 	H 	0.91570 0.11180 0.93180 0.11900
C 	C 	0.94360 0.98200 0.02400 -0.00500
H 	H 	0.89520 0.99310 0.00360 -0.10500
H 	H 	0.95270 0.95650 0.06850 -0.01900
C 	C 	0.04820 0.06500 0.05860 -0.13800
H 	H 	0.05980 0.05550 0.10580 0.05900
H 	H 	0.06860 0.12810 0.05150 0.11100
Ag	Ag	0.57061 0.70117 0.42965 0.52700
N 	N 	0.52350 0.56990 0.47320 -0.14200
C 	C 	0.71730 0.73150 0.43120 -0.05100
H 	H 	0.69740 0.77260 0.39180 0.02500
H 	H 	0.71280 0.66040 0.41810 0.02300
C 	C 	0.01500 0.47700 0.57900 -0.45900
H 	H 	0.99510 0.43010 0.60030 0.14700
H 	H 	0.06100 0.49080 0.60670 0.14500
H 	H 	0.01480 0.44820 0.53780 0.15100
Ag	Ag	0.92156 0.82430 0.57738 0.52500
N 	N 	0.02490 0.80500 0.81630 -0.14000
N 	N 	0.68200 0.74980 0.47670 -0.14100
N 	N 	0.80690 0.79640 0.52960 -0.13900
C 	C 	0.06480 0.75500 0.78430 -0.04500
H 	H 	0.10850 0.78850 0.79690 0.02400
H 	H 	0.07250 0.68520 0.79960 0.02300
N 	N 	0.97160 0.81400 0.68960 -0.14200
C 	C 	0.95900 0.76900 0.79500 -0.04200
H 	H 	0.95890 0.69910 0.81020 0.02300
H 	H 	0.93220 0.80970 0.81370 0.02100
N 	N 	0.97390 0.93500 0.52680 -0.14100
C 	C 	0.79080 0.75800 0.46360 -0.04600
H 	H 	0.81780 0.69750 0.46510 0.02700
H 	H 	0.80280 0.80860 0.43710 0.02400
N 	N 	0.95600 0.66700 0.54380 -0.19400
C 	C 	0.76430 0.88330 0.52740 -0.04600
H 	H 	0.77610 0.93820 0.50340 0.02100
H 	H 	0.77230 0.90670 0.57200 0.02100
N 	N 	0.51020 0.83250 0.45600 -0.24500
C 	C 	0.69190 0.85760 0.49460 -0.04900
H 	H 	0.66790 0.87390 0.52410 0.02200
H 	H 	0.67290 0.89870 0.45510 0.02400
C 	C 	0.71460 0.69040 0.53560 -0.04100
H 	H 	0.70910 0.61860 0.52440 0.01900
H 	H 	0.69270 0.70370 0.56730 0.01900
C 	C 	0.78790 0.71430 0.56630 -0.05800
H 	H 	0.79810 0.73510 0.61180 0.02600
H 	H 	0.81420 0.65370 0.56640 0.02800
C 	C 	0.98400 0.91300 0.71850 -0.04100
H 	H 	0.94150 0.94930 0.70720 0.01800
H 	H 	0.01260 0.95060 0.69980 0.02000
C 	C 	0.01800 0.91000 0.79260 -0.05500
H 	H 	0.06210 0.94180 0.80530 0.02500
H 	H 	0.99100 0.94860 0.81280 0.02500
C 	C 	0.03190 0.75600 0.70880 -0.04900
H 	H 	0.06290 0.78460 0.68970 0.02400
H 	H 	0.02160 0.68650 0.69280 0.02800
C 	C 	0.92730 0.77200 0.71880 -0.04600
H 	H 	0.91540 0.70290 0.70220 0.02300
H 	H 	0.88610 0.81150 0.70580 0.02100
C 	C 	0.03800 0.94700 0.55850 -0.01600
H 	H 	0.06100 0.88280 0.55900 0.01800
H 	H 	0.04530 0.96530 0.60390 0.01500
C 	C 	0.97100 0.05000 0.56280 -0.08800
H 	H 	0.92490 0.07080 0.55450 0.03200
H 	H 	0.99530 0.04740 0.61010 0.03200
C 	C 	0.00700 0.12800 0.52900 -0.07100
H 	H 	0.04790 0.15550 0.56170 0.03000
H 	H 	0.97710 0.18390 0.50870 0.03400
C 	C 	0.06760 0.02700 0.52830 -0.00600
H 	H 	0.08430 0.08150 0.56000 0.01400
H 	H 	0.10610 0.99790 0.52010 0.00900
C 	C 	0.46900 0.86910 0.46490 0.19500
C 	C 	0.41120 0.91600 0.47820 -0.56700
H 	H 	0.40510 0.88170 0.51500 0.17000
H 	H 	0.37090 0.90860 0.43980 0.17100
H 	H 	0.42020 0.98640 0.48840 0.17900
C 	C 	0.97400 0.58000 0.56400 0.09700
C 	C 	0.46600 0.59600 0.48400 0.16700
H 	H 	0.42980 0.60630 0.44220 -0.11200
H 	H 	0.47360 0.66080 0.50780 -0.05900
C 	C 	0.57500 0.52500 0.52910 0.06600
H 	H 	0.59300 0.57680 0.56300 -0.11700
H 	H 	0.61170 0.50170 0.51580 0.14900
C 	C 	0.49700 0.47200 0.42740 0.02400
H 	H 	0.46530 0.49380 0.38500 -0.00800
H 	H 	0.53550 0.44100 0.41960 0.04300
C 	C 	0.53600 0.60800 0.54300 -0.22100
H 	H 	0.51610 0.67420 0.54240 0.08300
H 	H 	0.58430 0.61180 0.56820 0.16600
C 	C 	0.55640 0.48200 0.47600 -0.00500
H 	H 	0.60480 0.49310 0.49640 -0.15600
H 	H 	0.54730 0.45650 0.43150 -0.03300
C 	C 	0.45180 0.56500 0.44140 -0.18100
H 	H 	0.44020 0.55550 0.39420 0.07600
H 	H 	0.43140 0.62810 0.44850 0.13600
Ag	Ag	0.07061 0.79883 0.92965 0.52700
N 	N 	0.02350 0.93010 0.97320 -0.14100
C 	C 	0.21730 0.76850 0.93120 -0.05100
H 	H 	0.19740 0.72740 0.89180 0.02500
H 	H 	0.21280 0.83960 0.91810 0.02300
C 	C 	0.51500 0.02300 0.07900 -0.46000
H 	H 	0.49510 0.06990 0.10030 0.14700
H 	H 	0.56100 0.00920 0.10670 0.14500
H 	H 	0.51480 0.05180 0.03780 0.15100
Ag	Ag	0.42156 0.67570 0.07738 0.52500
N 	N 	0.52490 0.69500 0.31630 -0.14000
N 	N 	0.18200 0.75020 0.97670 -0.14100
N 	N 	0.30690 0.70360 0.02960 -0.13900
C 	C 	0.56480 0.74500 0.28430 -0.04500
H 	H 	0.60850 0.71150 0.29690 0.02400
H 	H 	0.57250 0.81480 0.29960 0.02300
N 	N 	0.47160 0.68600 0.18960 -0.14200
C 	C 	0.45900 0.73100 0.29500 -0.04200
H 	H 	0.45890 0.80090 0.31020 0.02300
H 	H 	0.43220 0.69030 0.31370 0.02100
N 	N 	0.47390 0.56500 0.02680 -0.14100
C 	C 	0.29080 0.74200 0.96360 -0.04600
H 	H 	0.31780 0.80250 0.96510 0.02700
H 	H 	0.30280 0.69140 0.93710 0.02400
N 	N 	0.45600 0.83300 0.04380 -0.19400
C 	C 	0.26430 0.61670 0.02740 -0.04700
H 	H 	0.27610 0.56180 0.00340 0.02100
H 	H 	0.27230 0.59330 0.07200 0.02100
N 	N 	0.01020 0.66750 0.95600 -0.24400
C 	C 	0.19190 0.64240 0.99460 -0.04800
H 	H 	0.16790 0.62610 0.02410 0.02100
H 	H 	0.17290 0.60130 0.95510 0.02400
C 	C 	0.21460 0.80960 0.03560 -0.04200
H 	H 	0.20910 0.88140 0.02440 0.01900
H 	H 	0.19270 0.79630 0.06730 0.02000
C 	C 	0.28790 0.78570 0.06630 -0.05800
H 	H 	0.29810 0.76490 0.11180 0.02600
H 	H 	0.31420 0.84630 0.06640 0.02800
C 	C 	0.48400 0.58700 0.21850 -0.04000
H 	H 	0.44150 0.55070 0.20720 0.01800
H 	H 	0.51260 0.54940 0.19980 0.02000
C 	C 	0.51800 0.59000 0.29260 -0.05500
H 	H 	0.56210 0.55820 0.30530 0.02500
H 	H 	0.49100 0.55140 0.31280 0.02500
C 	C 	0.53190 0.74400 0.20880 -0.04900
H 	H 	0.56290 0.71540 0.18970 0.02500
H 	H 	0.52160 0.81350 0.19280 0.02800
C 	C 	0.42730 0.72800 0.21880 -0.04600
H 	H 	0.41540 0.79710 0.20220 0.02300
H 	H 	0.38610 0.68850 0.20580 0.02100
C 	C 	0.53800 0.55300 0.05850 -0.01500
H 	H 	0.56100 0.61720 0.05900 0.01800
H 	H 	0.54530 0.53470 0.10390 0.01500
C 	C 	0.47100 0.45000 0.06280 -0.08700
H 	H 	0.42490 0.42920 0.05450 0.03200
H 	H 	0.49530 0.45260 0.11010 0.03200
C 	C 	0.50700 0.37200 0.02900 -0.07100
H 	H 	0.54790 0.34450 0.06170 0.03000
H 	H 	0.47710 0.31610 0.00870 0.03400
C 	C 	0.56760 0.47300 0.02830 -0.00700
H 	H 	0.58430 0.41850 0.06000 0.01500
H 	H 	0.60610 0.50210 0.02010 0.01000
C 	C 	0.96900 0.63090 0.96490 0.19500
C 	C 	0.91120 0.58400 0.97820 -0.56900
H 	H 	0.90510 0.61830 0.01500 0.17100
H 	H 	0.87090 0.59140 0.93980 0.17200
H 	H 	0.92020 0.51360 0.98840 0.17900
C 	C 	0.47400 0.92000 0.06400 0.09700
C 	C 	0.96600 0.90400 0.98400 0.12200
H 	H 	0.92980 0.89370 0.94220 -0.08900
H 	H 	0.97360 0.83920 0.00780 -0.04100
C 	C 	0.07500 0.97500 0.02910 0.04000
H 	H 	0.09300 0.92320 0.06300 -0.07500
H 	H 	0.11170 0.99830 0.01580 0.10300
C 	C 	0.99700 0.02800 0.92740 0.00100
H 	H 	0.96530 0.00620 0.88500 0.00200
H 	H 	0.03550 0.05900 0.91960 0.03400
C 	C 	0.03600 0.89200 0.04300 -0.17400
H 	H 	0.01610 0.82580 0.04240 0.06500
H 	H 	0.08430 0.88820 0.06820 0.11900
C 	C 	0.05640 0.01800 0.97600 -0.00500
H 	H 	0.10480 0.00690 0.99640 -0.10500
H 	H 	0.04730 0.04350 0.93150 -0.01900
C 	C 	0.95180 0.93500 0.94140 -0.13800
H 	H 	0.94020 0.94450 0.89420 0.05900
H 	H 	0.93140 0.87190 0.94850 0.11100
Ag	Ag	0.42939 0.29883 0.57035 0.52700
N 	N 	0.47650 0.43010 0.52680 -0.14200
C 	C 	0.28270 0.26850 0.56880 -0.05100
H 	H 	0.30260 0.22740 0.60820 0.02500
H 	H 	0.28720 0.33960 0.58190 0.02300
C 	C 	0.98500 0.52300 0.42100 -0.45900
H 	H 	0.00490 0.56990 0.39970 0.14700
H 	H 	0.93900 0.50920 0.39330 0.14500
H 	H 	0.98520 0.55180 0.46220 0.15100
Ag	Ag	0.07844 0.17570 0.42262 0.52500
N 	N 	0.97510 0.19500 0.18370 -0.14000
N 	N 	0.31800 0.25020 0.52330 -0.14100
N 	N 	0.19310 0.20360 0.47040 -0.13900
C 	C 	0.93520 0.24500 0.21570 -0.04500
H 	H 	0.89150 0.21150 0.20310 0.02400
H 	H 	0.92750 0.31480 0.20040 0.02300
N 	N 	0.02840 0.18600 0.31040 -0.14200
C 	C 	0.04100 0.23100 0.20500 -0.04200
H 	H 	0.04110 0.30090 0.18980 0.02300
H 	H 	0.06780 0.19030 0.18630 0.02100
N 	N 	0.02610 0.06500 0.47320 -0.14100
C 	C 	0.20920 0.24200 0.53640 -0.04600
H 	H 	0.18220 0.30250 0.53490 0.02700
H 	H 	0.19720 0.19140 0.56290 0.02400
N 	N 	0.04400 0.33300 0.45620 -0.19400
C 	C 	0.23570 0.11670 0.47260 -0.04600
H 	H 	0.22390 0.06180 0.49660 0.02100
H 	H 	0.22770 0.09330 0.42800 0.02100
N 	N 	0.48980 0.16750 0.54400 -0.24500
C 	C 	0.30810 0.14240 0.50540 -0.04900
H 	H 	0.33210 0.12610 0.47590 0.02200
H 	H 	0.32710 0.10130 0.54490 0.02400
C 	C 	0.28540 0.30960 0.46440 -0.04100
H 	H 	0.29090 0.38140 0.47560 0.01900
H 	H 	0.30730 0.29630 0.43270 0.01900
C 	C 	0.21210 0.28570 0.43370 -0.05800
H 	H 	0.20190 0.26490 0.38820 0.02600
H 	H 	0.18580 0.34630 0.43360 0.02800
C 	C 	0.01600 0.08700 0.28150 -0.04100
H 	H 	0.05850 0.05070 0.29280 0.01800
H 	H 	0.98740 0.04940 0.30020 0.02000
C 	C 	0.98200 0.09000 0.20740 -0.05500
H 	H 	0.93790 0.05820 0.19470 0.02500
H 	H 	0.00900 0.05140 0.18720 0.02500
C 	C 	0.96810 0.24400 0.29120 -0.04900
H 	H 	0.93710 0.21540 0.31030 0.02400
H 	H 	0.97840 0.31350 0.30720 0.02800
C 	C 	0.07270 0.22800 0.28120 -0.04600
H 	H 	0.08460 0.29710 0.29780 0.02300
H 	H 	0.11390 0.18850 0.29420 0.02100
C 	C 	0.96200 0.05300 0.44150 -0.01600
H 	H 	0.93900 0.11720 0.44100 0.01800
H 	H 	0.95470 0.03470 0.39610 0.01500
C 	C 	0.02900 0.95000 0.43720 -0.08800
H 	H 	0.07510 0.92920 0.44550 0.03200
H 	H 	0.00470 0.95260 0.38990 0.03200
C 	C 	0.99300 0.87200 0.47100 -0.07100
H 	H 	0.95210 0.84450 0.43830 0.03000
H 	H 	0.02290 0.81610 0.49130 0.03400
C 	C 	0.93240 0.97300 0.47170 -0.00600
H 	H 	0.91570 0.91850 0.44000 0.01400
H 	H 	0.89390 0.00210 0.47990 0.00900
C 	C 	0.53100 0.13090 0.53510 0.19500
C 	C 	0.58880 0.08400 0.52180 -0.56700
H 	H 	0.59490 0.11830 0.48500 0.17000
H 	H 	0.62910 0.09140 0.56020 0.17100
H 	H 	0.57980 0.01360 0.51160 0.17900
C 	C 	0.02600 0.42000 0.43600 0.09700
C 	C 	0.53400 0.40400 0.51600 0.16700
H 	H 	0.57020 0.39370 0.55780 -0.11200
H 	H 	0.52640 0.33920 0.49220 -0.05900
C 	C 	0.42500 0.47500 0.47090 0.06600
H 	H 	0.40700 0.42320 0.43700 -0.11700
H 	H 	0.38830 0.49830 0.48420 0.14900
C 	C 	0.50300 0.52800 0.57260 0.02400
H 	H 	0.53470 0.50620 0.61500 -0.00800
H 	H 	0.46450 0.55900 0.58040 0.04300
C 	C 	0.46400 0.39200 0.45700 -0.22100
H 	H 	0.48390 0.32580 0.45760 0.08300
H 	H 	0.41570 0.38820 0.43180 0.16600
C 	C 	0.44360 0.51800 0.52400 -0.00500
H 	H 	0.39520 0.50690 0.50360 -0.15600
H 	H 	0.45270 0.54350 0.56850 -0.03300
C 	C 	0.54820 0.43500 0.55860 -0.18100
H 	H 	0.55980 0.44450 0.60580 0.07600
H 	H 	0.56860 0.37190 0.55150 0.13600
