data_crystal

_cell_length_a 26.87610
_cell_length_b 26.87610
_cell_length_c 10.04560
_cell_angle_alpha 90.00000
_cell_angle_beta  90.00000
_cell_angle_gamma 120.00000

_symmetry_space_group_name_	'P 1'
_symmetry_space_group_name_H-M	'P 1'

loop_
_symmetry_equiv_pos_as_xyz
  x,y,z

loop_
_atom_site_label
_atom_site_type_symbol
_atom_site_fract_x
_atom_site_fract_y
_atom_site_fract_z
_atom_site_charge
N 	N 	0.55882 0.00066 0.14660 -0.24100
C 	C 	0.48015 0.87555 0.00530 0.06500
H 	H 	0.52010 0.89590 0.00580 -0.05100
C 	C 	0.45279 0.81674 0.00590 -0.15300
H 	H 	0.47390 0.79790 0.00820 0.06500
C 	C 	0.59580 0.00790 0.21370 -0.18100
N 	N 	0.22549 0.33399 0.47993 -0.21700
C 	C 	0.14682 0.20888 0.33863 0.08300
H 	H 	0.18677 0.22923 0.33913 -0.04600
C 	C 	0.11946 0.15007 0.33923 -0.17400
H 	H 	0.14057 0.13123 0.34153 0.07500
C 	C 	0.26247 0.34123 0.54703 -0.12300
N 	N 	0.89215 0.66733 0.81327 -0.22700
C 	C 	0.81348 0.54222 0.67197 0.07400
H 	H 	0.85343 0.56257 0.67247 -0.03300
C 	C 	0.78612 0.48341 0.67257 -0.14800
H 	H 	0.80723 0.46457 0.67487 0.07500
C 	C 	0.92913 0.67457 0.88037 -0.05200
N 	N 	0.99934 0.55816 0.14660 -0.22700
C 	C 	0.12445 0.60460 0.00530 0.06500
H 	H 	0.10410 0.62420 0.00580 -0.05800
C 	C 	0.18326 0.63605 0.00590 -0.15500
H 	H 	0.20210 0.67600 0.00820 0.06600
C 	C 	0.99210 0.58790 0.21370 -0.15500
N 	N 	0.66601 0.89149 0.47993 -0.21600
C 	C 	0.79112 0.93793 0.33863 0.02900
H 	H 	0.77077 0.95753 0.33913 -0.01700
C 	C 	0.84993 0.96938 0.33923 -0.06000
H 	H 	0.86877 0.00933 0.34153 0.02100
C 	C 	0.65877 0.92123 0.54703 -0.11200
N 	N 	0.33267 0.22483 0.81327 -0.22400
C 	C 	0.45778 0.27127 0.67197 0.07400
H 	H 	0.43743 0.29087 0.67247 -0.03600
C 	C 	0.51659 0.30272 0.67257 -0.14900
H 	H 	0.53543 0.34267 0.67487 0.07300
C 	C 	0.32543 0.25457 0.88037 -0.06700
N 	N 	0.44184 0.44118 0.14660 -0.23500
C 	C 	0.39540 0.51985 0.00530 0.06500
H 	H 	0.37580 0.47990 0.00580 -0.05600
C 	C 	0.36395 0.54721 0.00590 -0.15400
H 	H 	0.32400 0.52610 0.00820 0.06600
C 	C 	0.41210 0.40420 0.21370 -0.16700
N 	N 	0.10851 0.77451 0.47993 -0.21600
C 	C 	0.06207 0.85318 0.33863 0.09100
H 	H 	0.04247 0.81323 0.33913 -0.05200
C 	C 	0.03062 0.88054 0.33923 -0.19600
H 	H 	0.99067 0.85943 0.34153 0.10200
C 	C 	0.07877 0.73753 0.54703 -0.13000
N 	N 	0.77517 0.10785 0.81327 -0.22400
C 	C 	0.72873 0.18652 0.67197 0.07500
H 	H 	0.70913 0.14657 0.67247 -0.03800
C 	C 	0.69728 0.21388 0.67257 -0.14900
H 	H 	0.65733 0.19277 0.67487 0.07200
C 	C 	0.74543 0.07087 0.88037 -0.07400
N 	N 	0.00066 0.55882 0.85340 -0.18800
C 	C 	0.87555 0.48015 0.99470 0.08800
H 	H 	0.89590 0.52010 0.99420 -0.00700
C 	C 	0.81674 0.45279 0.99410 -0.13500
H 	H 	0.79790 0.47390 0.99180 0.08900
C 	C 	0.00790 0.59580 0.78630 -0.11900
N 	N 	0.66733 0.89215 0.18673 -0.22100
C 	C 	0.54222 0.81348 0.32803 0.08100
H 	H 	0.56257 0.85343 0.32753 -0.03300
C 	C 	0.48341 0.78612 0.32743 -0.14400
H 	H 	0.46457 0.80723 0.32513 0.08400
C 	C 	0.67457 0.92913 0.11963 -0.15400
N 	N 	0.33399 0.22549 0.52007 -0.21900
C 	C 	0.20888 0.14682 0.66137 0.10000
H 	H 	0.22923 0.18677 0.66087 -0.03700
C 	C 	0.15007 0.11946 0.66077 -0.17100
H 	H 	0.13123 0.14057 0.65847 0.09500
C 	C 	0.34123 0.26247 0.45297 -0.15600
N 	N 	0.55816 0.99934 0.85340 -0.17600
C 	C 	0.60460 0.12445 0.99470 0.08700
H 	H 	0.62420 0.10410 0.99420 -0.01300
C 	C 	0.63605 0.18326 0.99410 -0.13700
H 	H 	0.67600 0.20210 0.99180 0.08900
C 	C 	0.58790 0.99210 0.78630 -0.09500
N 	N 	0.22483 0.33267 0.18673 -0.21900
C 	C 	0.27127 0.45778 0.32803 0.08100
H 	H 	0.29087 0.43743 0.32753 -0.03600
C 	C 	0.30272 0.51659 0.32743 -0.14500
H 	H 	0.34267 0.53543 0.32513 0.08200
C 	C 	0.25457 0.32543 0.11963 -0.17400
N 	N 	0.89149 0.66601 0.52007 -0.21900
C 	C 	0.93793 0.79112 0.66137 0.05000
H 	H 	0.95753 0.77077 0.66087 -0.01200
C 	C 	0.96938 0.84993 0.66077 -0.06900
H 	H 	0.00933 0.86877 0.65847 0.04600
C 	C 	0.92123 0.65877 0.45297 -0.14700
N 	N 	0.44118 0.44184 0.85340 -0.18400
C 	C 	0.51985 0.39540 0.99470 0.08700
H 	H 	0.47990 0.37580 0.99420 -0.01000
C 	C 	0.54721 0.36395 0.99410 -0.13600
H 	H 	0.52610 0.32400 0.99180 0.08900
C 	C 	0.40420 0.41210 0.78630 -0.10800
N 	N 	0.10785 0.77517 0.18673 -0.21900
C 	C 	0.18652 0.72873 0.32803 0.08100
H 	H 	0.14657 0.70913 0.32753 -0.03900
C 	C 	0.21388 0.69728 0.32743 -0.14500
H 	H 	0.19277 0.65733 0.32513 0.08100
C 	C 	0.07087 0.74543 0.11963 -0.18000
N 	N 	0.77451 0.10851 0.52007 -0.21900
C 	C 	0.85318 0.06207 0.66137 0.11300
H 	H 	0.81323 0.04247 0.66087 -0.04800
C 	C 	0.88054 0.03062 0.66077 -0.20600
H 	H 	0.85943 0.99067 0.65847 0.12700
C 	C 	0.73753 0.07877 0.45297 -0.16400
N 	N 	0.44118 0.99934 0.85340 -0.17600
C 	C 	0.51985 0.12445 0.99470 0.08700
H 	H 	0.47990 0.10410 0.99420 -0.01300
C 	C 	0.54721 0.18326 0.99410 -0.13700
H 	H 	0.52610 0.20210 0.99180 0.08900
C 	C 	0.40420 0.99210 0.78630 -0.09500
N 	N 	0.10785 0.33267 0.18673 -0.21900
C 	C 	0.18652 0.45778 0.32803 0.08100
H 	H 	0.14657 0.43743 0.32753 -0.03900
C 	C 	0.21388 0.51659 0.32743 -0.14600
H 	H 	0.19277 0.53543 0.32513 0.08100
C 	C 	0.07087 0.32543 0.11963 -0.18100
N 	N 	0.77451 0.66601 0.52007 -0.21900
C 	C 	0.85318 0.79112 0.66137 0.07200
H 	H 	0.81323 0.77077 0.66087 -0.02700
C 	C 	0.88054 0.84993 0.66077 -0.12000
H 	H 	0.85943 0.86877 0.65847 0.08000
C 	C 	0.73753 0.65877 0.45297 -0.15500
N 	N 	0.00066 0.44184 0.85340 -0.18800
C 	C 	0.87555 0.39540 0.99470 0.08800
H 	H 	0.89590 0.37580 0.99420 -0.00700
C 	C 	0.81674 0.36395 0.99410 -0.13500
H 	H 	0.79790 0.32400 0.99180 0.08900
C 	C 	0.00790 0.41210 0.78630 -0.11900
N 	N 	0.66733 0.77517 0.18673 -0.21900
C 	C 	0.54222 0.72873 0.32803 0.08100
H 	H 	0.56257 0.70913 0.32753 -0.03600
C 	C 	0.48341 0.69728 0.32743 -0.14500
H 	H 	0.46457 0.65733 0.32513 0.08200
C 	C 	0.67457 0.74543 0.11963 -0.17200
N 	N 	0.33399 0.10851 0.52007 -0.21900
C 	C 	0.20888 0.06207 0.66137 0.12600
H 	H 	0.22923 0.04247 0.66087 -0.05300
C 	C 	0.15007 0.03062 0.66077 -0.23000
H 	H 	0.13123 0.99067 0.65847 0.13400
C 	C 	0.34123 0.07877 0.45297 -0.16500
N 	N 	0.55816 0.55882 0.85340 -0.18400
C 	C 	0.60460 0.48015 0.99470 0.08700
H 	H 	0.62420 0.52010 0.99420 -0.01000
C 	C 	0.63605 0.45279 0.99410 -0.13600
H 	H 	0.67600 0.47390 0.99180 0.08900
C 	C 	0.58790 0.59580 0.78630 -0.10800
N 	N 	0.22483 0.89215 0.18673 -0.22100
C 	C 	0.27127 0.81348 0.32803 0.08100
H 	H 	0.29087 0.85343 0.32753 -0.03300
C 	C 	0.30272 0.78612 0.32743 -0.14400
H 	H 	0.34267 0.80723 0.32513 0.08400
C 	C 	0.25457 0.92913 0.11963 -0.15500
N 	N 	0.89149 0.22549 0.52007 -0.21900
C 	C 	0.93793 0.14682 0.66137 0.06500
H 	H 	0.95753 0.18677 0.66087 -0.01800
C 	C 	0.96938 0.11946 0.66077 -0.09600
H 	H 	0.00933 0.14057 0.65847 0.05500
C 	C 	0.92123 0.26247 0.45297 -0.14700
N 	N 	0.99934 0.44118 0.14660 -0.22700
C 	C 	0.12445 0.51985 0.00530 0.06500
H 	H 	0.10410 0.47990 0.00580 -0.05800
C 	C 	0.18326 0.54721 0.00590 -0.15500
H 	H 	0.20210 0.52610 0.00820 0.06600
C 	C 	0.99210 0.40420 0.21370 -0.15500
N 	N 	0.66601 0.77451 0.47993 -0.21600
C 	C 	0.79112 0.85318 0.33863 0.05500
H 	H 	0.77077 0.81323 0.33913 -0.03300
C 	C 	0.84993 0.88054 0.33923 -0.12100
H 	H 	0.86877 0.85943 0.34153 0.06100
C 	C 	0.65877 0.73753 0.54703 -0.12200
N 	N 	0.33267 0.10785 0.81327 -0.22400
C 	C 	0.45778 0.18652 0.67197 0.07500
H 	H 	0.43743 0.14657 0.67247 -0.03800
C 	C 	0.51659 0.21388 0.67257 -0.14900
H 	H 	0.53543 0.19277 0.67487 0.07200
C 	C 	0.32543 0.07087 0.88037 -0.07400
N 	N 	0.44184 0.00066 0.14660 -0.24000
C 	C 	0.39540 0.87555 0.00530 0.06600
H 	H 	0.37580 0.89590 0.00580 -0.05000
C 	C 	0.36395 0.81674 0.00590 -0.15200
H 	H 	0.32400 0.79790 0.00820 0.06600
C 	C 	0.41210 0.00790 0.21370 -0.18000
N 	N 	0.10851 0.33399 0.47993 -0.21600
C 	C 	0.06207 0.20888 0.33863 0.10700
H 	H 	0.04247 0.22923 0.33913 -0.05800
C 	C 	0.03062 0.15007 0.33923 -0.22500
H 	H 	0.99067 0.13123 0.34153 0.11100
C 	C 	0.07877 0.34123 0.54703 -0.13000
N 	N 	0.77517 0.66733 0.81327 -0.22400
C 	C 	0.72873 0.54222 0.67197 0.07400
H 	H 	0.70913 0.56257 0.67247 -0.03600
C 	C 	0.69728 0.48341 0.67257 -0.14800
H 	H 	0.65733 0.46457 0.67487 0.07300
C 	C 	0.74543 0.67457 0.88037 -0.06600
N 	N 	0.55882 0.55816 0.14660 -0.23500
C 	C 	0.48015 0.60460 0.00530 0.06500
H 	H 	0.52010 0.62420 0.00580 -0.05500
C 	C 	0.45279 0.63605 0.00590 -0.15400
H 	H 	0.47390 0.67600 0.00820 0.06600
C 	C 	0.59580 0.58790 0.21370 -0.16700
N 	N 	0.22549 0.89149 0.47993 -0.21600
C 	C 	0.14682 0.93793 0.33863 0.04100
H 	H 	0.18677 0.95753 0.33913 -0.02100
C 	C 	0.11946 0.96938 0.33923 -0.08300
H 	H 	0.14057 0.00933 0.34153 0.02700
C 	C 	0.26247 0.92123 0.54703 -0.11200
N 	N 	0.89215 0.22483 0.81327 -0.22600
C 	C 	0.81348 0.27127 0.67197 0.07400
H 	H 	0.85343 0.29087 0.67247 -0.03300
C 	C 	0.78612 0.30272 0.67257 -0.14800
H 	H 	0.80723 0.34267 0.67487 0.07500
C 	C 	0.92913 0.25457 0.88037 -0.05200
N 	N 	0.45255 0.90510 0.00400 -0.25600
C 	C 	0.39265 0.78530 0.00310 0.04800
C 	C 	0.36150 0.72300 0.00310 0.08400
N 	N 	0.11922 0.23843 0.33733 -0.25900
C 	C 	0.05932 0.11863 0.33643 0.08400
C 	C 	0.02817 0.05633 0.33643 0.05000
N 	N 	0.78588 0.57177 0.67067 -0.24800
C 	C 	0.72598 0.45197 0.66977 0.05300
C 	C 	0.69483 0.38967 0.66977 0.08800
N 	N 	0.09490 0.54745 0.00400 -0.26600
C 	C 	0.21470 0.60735 0.00310 0.04800
C 	C 	0.27700 0.63850 0.00310 0.08400
N 	N 	0.76157 0.88078 0.33733 -0.23800
C 	C 	0.88137 0.94068 0.33643 0.01000
C 	C 	0.94367 0.97183 0.33643 0.12900
N 	N 	0.42823 0.21412 0.67067 -0.24800
C 	C 	0.54803 0.27402 0.66977 0.05300
C 	C 	0.61033 0.30517 0.66977 0.08800
N 	N 	0.45255 0.54745 0.00400 -0.26300
C 	C 	0.39265 0.60735 0.00310 0.04800
C 	C 	0.36150 0.63850 0.00310 0.08400
N 	N 	0.11922 0.88078 0.33733 -0.24700
C 	C 	0.05932 0.94068 0.33643 0.04300
C 	C 	0.02817 0.97183 0.33643 0.09300
N 	N 	0.78588 0.21412 0.67067 -0.24800
C 	C 	0.72598 0.27402 0.66977 0.05300
C 	C 	0.69483 0.30517 0.66977 0.08800
N 	N 	0.90510 0.45255 0.99600 -0.21400
C 	C 	0.78530 0.39265 0.99690 0.06800
C 	C 	0.72300 0.36150 0.99690 0.10800
N 	N 	0.57177 0.78588 0.32933 -0.24900
C 	C 	0.45197 0.72598 0.33023 0.06500
C 	C 	0.38967 0.69483 0.33023 0.10300
N 	N 	0.23843 0.11922 0.66267 -0.25900
C 	C 	0.11863 0.05932 0.66357 0.10700
C 	C 	0.05633 0.02817 0.66357 0.06400
N 	N 	0.54745 0.09490 0.99600 -0.22200
C 	C 	0.60735 0.21470 0.99690 0.06800
C 	C 	0.63850 0.27700 0.99690 0.10800
N 	N 	0.21412 0.42823 0.32933 -0.25000
C 	C 	0.27402 0.54803 0.33023 0.06500
C 	C 	0.30517 0.61033 0.33023 0.10300
N 	N 	0.88078 0.76157 0.66267 -0.23800
C 	C 	0.94068 0.88137 0.66357 0.03400
C 	C 	0.97183 0.94367 0.66357 0.14100
N 	N 	0.54745 0.45255 0.99600 -0.21900
C 	C 	0.60735 0.39265 0.99690 0.06800
C 	C 	0.63850 0.36150 0.99690 0.10800
N 	N 	0.21412 0.78588 0.32933 -0.24900
C 	C 	0.27402 0.72598 0.33023 0.06500
C 	C 	0.30517 0.69483 0.33023 0.10300
N 	N 	0.88078 0.11922 0.66267 -0.24900
C 	C 	0.94068 0.05932 0.66357 0.07300
C 	C 	0.97183 0.02817 0.66357 0.10000
Ag	Ag	0.66667 0.03504 0.33333 0.43700
Ag	Ag	0.96496 0.63162 0.33333 0.45200
Ag	Ag	0.36838 0.33333 0.33333 0.44400
Ag	Ag	0.03504 0.66667 0.66667 0.46600
Ag	Ag	0.70171 0.00000 -0.00000 0.37800
Ag	Ag	0.63162 0.96496 0.66667 0.48000
Ag	Ag	0.29829 0.29829 -0.00000 0.39100
Ag	Ag	0.33333 0.36838 0.66667 0.47200
Ag	Ag	-0.00000 0.70171 -0.00000 0.38100
Ag	Ag	0.33333 0.96496 0.66667 0.48000
Ag	Ag	-0.00000 0.29829 -0.00000 0.38000
Ag	Ag	0.03504 0.36838 0.66667 0.46600
Ag	Ag	0.70171 0.70171 -0.00000 0.39300
Ag	Ag	0.63162 0.66667 0.66667 0.47200
Ag	Ag	0.29829 0.00000 -0.00000 0.37700
Ag	Ag	0.96496 0.33333 0.33333 0.45100
Ag	Ag	0.36838 0.03504 0.33333 0.43700
Ag	Ag	0.66667 0.63162 0.33333 0.44400
Fe	Fe	0.50000 0.00000 -0.00000 1.03000
Fe	Fe	0.16667 0.33333 0.33333 1.10500
Fe	Fe	0.83333 0.66667 0.66667 1.11000
Fe	Fe	0.00000 0.50000 -0.00000 1.03300
Fe	Fe	0.66667 0.83333 0.33333 1.10700
Fe	Fe	0.33333 0.16667 0.66667 1.10900
Fe	Fe	0.50000 0.50000 -0.00000 1.04400
Fe	Fe	0.16667 0.83333 0.33333 1.10600
Fe	Fe	0.83333 0.16667 0.66667 1.11000
N 	N 	0.30391 0.69609 0.00440 -0.14500
N 	N 	0.97058 0.02942 0.33773 -0.14700
N 	N 	0.63724 0.36276 0.67107 -0.14300
N 	N 	0.30391 0.60782 0.00440 -0.14500
N 	N 	0.97058 0.94115 0.33773 -0.13800
N 	N 	0.63724 0.27449 0.67107 -0.14300
N 	N 	0.39218 0.69609 0.00440 -0.14500
N 	N 	0.05885 0.02942 0.33773 -0.15400
N 	N 	0.72551 0.36276 0.67107 -0.14200
N 	N 	0.69609 0.30391 0.99560 -0.13300
N 	N 	0.36276 0.63724 0.32893 -0.13600
N 	N 	0.02942 0.97058 0.66227 -0.13200
N 	N 	0.60782 0.30391 0.99560 -0.13300
N 	N 	0.27449 0.63724 0.32893 -0.13600
N 	N 	0.94115 0.97058 0.66227 -0.12500
N 	N 	0.69609 0.39218 0.99560 -0.13300
N 	N 	0.36276 0.72551 0.32893 -0.13600
N 	N 	0.02942 0.05885 0.66227 -0.14000
