data_crystal

_cell_length_a 26.21740
_cell_length_b 26.21740
_cell_length_c 9.57340
_cell_angle_alpha 90.00000
_cell_angle_beta  90.00000
_cell_angle_gamma 120.00000

_symmetry_space_group_name_	'P 1'
_symmetry_space_group_name_H-M	'P 1'

loop_
_symmetry_equiv_pos_as_xyz
  x,y,z

loop_
_atom_site_label
_atom_site_type_symbol
_atom_site_fract_x
_atom_site_fract_y
_atom_site_fract_z
_atom_site_charge
N 	N 	0.44566 0.99845 0.85870 -0.18800
C 	C 	0.60326 0.11858 0.99380 0.08600
H 	H 	0.62350 0.09790 0.99210 -0.01100
C 	C 	0.63551 0.17955 0.99570 -0.13900
H 	H 	0.67650 0.19930 0.99620 0.09100
C 	C 	0.40810 0.99340 0.78590 -0.08500
N 	N 	0.11233 0.33178 0.19203 -0.23600
C 	C 	0.26993 0.45191 0.32713 0.07900
H 	H 	0.29017 0.43123 0.32543 -0.03400
C 	C 	0.30218 0.51288 0.32903 -0.14600
H 	H 	0.34317 0.53263 0.32953 0.08400
C 	C 	0.07477 0.32673 0.11923 -0.17500
N 	N 	0.77899 0.66512 0.52537 -0.23600
C 	C 	0.93659 0.78525 0.66047 0.04800
H 	H 	0.95683 0.76457 0.65877 -0.01000
C 	C 	0.96884 0.84622 0.66237 -0.06500
H 	H 	0.00983 0.86597 0.66287 0.04600
C 	C 	0.74143 0.66007 0.45257 -0.15000
N 	N 	0.00155 0.44721 0.85870 -0.20100
C 	C 	0.88142 0.48468 0.99380 0.08700
H 	H 	0.90210 0.52560 0.99210 -0.00300
C 	C 	0.82045 0.45596 0.99570 -0.13600
H 	H 	0.80070 0.47720 0.99620 0.09100
C 	C 	0.00660 0.41470 0.78590 -0.11200
N 	N 	0.66822 0.78054 0.19203 -0.23500
C 	C 	0.54809 0.81801 0.32713 0.07900
H 	H 	0.56877 0.85893 0.32543 -0.03100
C 	C 	0.48712 0.78929 0.32903 -0.14500
H 	H 	0.46737 0.81053 0.32953 0.08600
C 	C 	0.67327 0.74803 0.11923 -0.16600
N 	N 	0.33488 0.11388 0.52537 -0.23600
C 	C 	0.21475 0.15135 0.66047 0.09900
H 	H 	0.23543 0.19227 0.65877 -0.03500
C 	C 	0.15378 0.12263 0.66237 -0.17300
H 	H 	0.13403 0.14387 0.66287 0.09800
C 	C 	0.33993 0.08137 0.45257 -0.16000
N 	N 	0.55279 0.55434 0.85870 -0.19600
C 	C 	0.51532 0.39674 0.99380 0.08700
H 	H 	0.47440 0.37650 0.99210 -0.00700
C 	C 	0.54404 0.36449 0.99570 -0.13700
H 	H 	0.52280 0.32350 0.99620 0.09200
C 	C 	0.58530 0.59190 0.78590 -0.10000
N 	N 	0.21946 0.88767 0.19203 -0.23800
C 	C 	0.18199 0.73007 0.32713 0.08000
H 	H 	0.14107 0.70983 0.32543 -0.03700
C 	C 	0.21071 0.69782 0.32903 -0.14600
H 	H 	0.18947 0.65683 0.32953 0.08300
C 	C 	0.25197 0.92523 0.11923 -0.14800
N 	N 	0.88612 0.22101 0.52537 -0.23700
C 	C 	0.84865 0.06341 0.66047 0.11200
H 	H 	0.80773 0.04317 0.65877 -0.04700
C 	C 	0.87737 0.03116 0.66237 -0.21000
H 	H 	0.85613 0.99017 0.66287 0.13200
C 	C 	0.91863 0.25857 0.45257 -0.14100
N 	N 	0.99845 0.44566 0.14130 -0.24500
C 	C 	0.11858 0.60326 0.00620 0.06100
H 	H 	0.09790 0.62350 0.00790 -0.05700
C 	C 	0.17955 0.63551 0.00430 -0.15600
H 	H 	0.19930 0.67650 0.00380 0.06600
C 	C 	0.99340 0.40810 0.21410 -0.14700
N 	N 	0.66512 0.77899 0.47463 -0.23300
C 	C 	0.78525 0.93659 0.33953 0.02600
H 	H 	0.76457 0.95683 0.34123 -0.01400
C 	C 	0.84622 0.96884 0.33763 -0.05700
H 	H 	0.86597 0.00983 0.33713 0.01800
C 	C 	0.66007 0.74143 0.54743 -0.11200
N 	N 	0.33178 0.11233 0.80797 -0.24100
C 	C 	0.45191 0.26993 0.67287 0.07200
H 	H 	0.43123 0.29017 0.67457 -0.03400
C 	C 	0.51288 0.30218 0.67097 -0.15000
H 	H 	0.53263 0.34317 0.67047 0.07400
C 	C 	0.32673 0.07477 0.88077 -0.06600
N 	N 	0.44721 0.00155 0.14130 -0.25900
C 	C 	0.48468 0.88142 0.00620 0.06200
H 	H 	0.52560 0.90210 0.00790 -0.04800
C 	C 	0.45596 0.82045 0.00430 -0.15300
H 	H 	0.47720 0.80070 0.00380 0.06600
C 	C 	0.41470 0.00660 0.21410 -0.17600
N 	N 	0.11388 0.33488 0.47463 -0.23200
C 	C 	0.15135 0.21475 0.33953 0.08200
H 	H 	0.19227 0.23543 0.34123 -0.04200
C 	C 	0.12263 0.15378 0.33763 -0.17600
H 	H 	0.14387 0.13403 0.33713 0.07700
C 	C 	0.08137 0.33993 0.54743 -0.12100
N 	N 	0.78054 0.66822 0.80797 -0.24000
C 	C 	0.81801 0.54809 0.67287 0.07200
H 	H 	0.85893 0.56877 0.67457 -0.03100
C 	C 	0.78929 0.48712 0.67097 -0.14900
H 	H 	0.81053 0.46737 0.67047 0.07500
C 	C 	0.74803 0.67327 0.88077 -0.05700
N 	N 	0.55434 0.55279 0.14130 -0.25400
C 	C 	0.39674 0.51532 0.00620 0.06100
H 	H 	0.37650 0.47440 0.00790 -0.05400
C 	C 	0.36449 0.54404 0.00430 -0.15500
H 	H 	0.32350 0.52280 0.00380 0.06600
C 	C 	0.59190 0.58530 0.21410 -0.16100
N 	N 	0.22101 0.88612 0.47463 -0.23300
C 	C 	0.06341 0.84865 0.33953 0.09000
H 	H 	0.04317 0.80773 0.34123 -0.05100
C 	C 	0.03116 0.87737 0.33763 -0.20100
H 	H 	0.99017 0.85613 0.33713 0.10500
C 	C 	0.25857 0.91863 0.54743 -0.10300
N 	N 	0.88767 0.21946 0.80797 -0.24300
C 	C 	0.73007 0.18199 0.67287 0.07300
H 	H 	0.70983 0.14107 0.67457 -0.03700
C 	C 	0.69782 0.21071 0.67097 -0.15000
H 	H 	0.65683 0.18947 0.67047 0.07200
C 	C 	0.92523 0.25197 0.88077 -0.04300
N 	N 	0.55434 0.00155 0.14130 -0.25900
C 	C 	0.39674 0.88142 0.00620 0.06200
H 	H 	0.37650 0.90210 0.00790 -0.04800
C 	C 	0.36449 0.82045 0.00430 -0.15300
H 	H 	0.32350 0.80070 0.00380 0.06600
C 	C 	0.59190 0.00660 0.21410 -0.17600
N 	N 	0.22101 0.33488 0.47463 -0.23300
C 	C 	0.06341 0.21475 0.33953 0.10600
H 	H 	0.04317 0.23543 0.34123 -0.05700
C 	C 	0.03116 0.15378 0.33763 -0.23200
H 	H 	0.99017 0.13403 0.33713 0.11400
C 	C 	0.25857 0.33993 0.54743 -0.11300
N 	N 	0.88767 0.66822 0.80797 -0.24200
C 	C 	0.73007 0.54809 0.67287 0.07200
H 	H 	0.70983 0.56877 0.67457 -0.03400
C 	C 	0.69782 0.48712 0.67097 -0.15000
H 	H 	0.65683 0.46737 0.67047 0.07400
C 	C 	0.92523 0.67327 0.88077 -0.04300
N 	N 	0.99845 0.55279 0.14130 -0.24500
C 	C 	0.11858 0.51532 0.00620 0.06100
H 	H 	0.09790 0.47440 0.00790 -0.05700
C 	C 	0.17955 0.54404 0.00430 -0.15600
H 	H 	0.19930 0.52280 0.00380 0.06600
C 	C 	0.99340 0.58530 0.21410 -0.14700
N 	N 	0.66512 0.88612 0.47463 -0.23300
C 	C 	0.78525 0.84865 0.33953 0.05300
H 	H 	0.76457 0.80773 0.34123 -0.03100
C 	C 	0.84622 0.87737 0.33763 -0.12100
H 	H 	0.86597 0.85613 0.33713 0.06100
C 	C 	0.66007 0.91863 0.54743 -0.10200
N 	N 	0.33178 0.21946 0.80797 -0.24100
C 	C 	0.45191 0.18199 0.67287 0.07300
H 	H 	0.43123 0.14107 0.67457 -0.03700
C 	C 	0.51288 0.21071 0.67097 -0.15100
H 	H 	0.53263 0.18947 0.67047 0.07200
C 	C 	0.32673 0.25197 0.88077 -0.05800
N 	N 	0.44721 0.44566 0.14130 -0.25400
C 	C 	0.48468 0.60326 0.00620 0.06100
H 	H 	0.52560 0.62350 0.00790 -0.05400
C 	C 	0.45596 0.63551 0.00430 -0.15500
H 	H 	0.47720 0.67650 0.00380 0.06600
C 	C 	0.41470 0.40810 0.21410 -0.16100
N 	N 	0.11388 0.77899 0.47463 -0.23200
C 	C 	0.15135 0.93659 0.33953 0.03900
H 	H 	0.19227 0.95683 0.34123 -0.01800
C 	C 	0.12263 0.96884 0.33763 -0.08100
H 	H 	0.14387 0.00983 0.33713 0.02500
C 	C 	0.08137 0.74143 0.54743 -0.12000
N 	N 	0.78054 0.11233 0.80797 -0.24000
C 	C 	0.81801 0.26993 0.67287 0.07200
H 	H 	0.85893 0.29017 0.67457 -0.03100
C 	C 	0.78929 0.30218 0.67097 -0.14900
H 	H 	0.81053 0.34317 0.67047 0.07500
C 	C 	0.74803 0.07477 0.88077 -0.06500
N 	N 	0.00155 0.55434 0.85870 -0.20100
C 	C 	0.88142 0.39674 0.99380 0.08700
H 	H 	0.90210 0.37650 0.99210 -0.00300
C 	C 	0.82045 0.36449 0.99570 -0.13600
H 	H 	0.80070 0.32350 0.99620 0.09100
C 	C 	0.00660 0.59190 0.78590 -0.11300
N 	N 	0.66822 0.88767 0.19203 -0.23800
C 	C 	0.54809 0.73007 0.32713 0.07900
H 	H 	0.56877 0.70983 0.32543 -0.03400
C 	C 	0.48712 0.69782 0.32903 -0.14600
H 	H 	0.46737 0.65683 0.32953 0.08400
C 	C 	0.67327 0.92523 0.11923 -0.14800
N 	N 	0.33488 0.22101 0.52537 -0.23600
C 	C 	0.21475 0.06341 0.66047 0.12500
H 	H 	0.23543 0.04317 0.65877 -0.05200
C 	C 	0.15378 0.03116 0.66237 -0.23500
H 	H 	0.13403 0.99017 0.66287 0.13900
C 	C 	0.33993 0.25857 0.45257 -0.15100
N 	N 	0.55279 0.99845 0.85870 -0.18700
C 	C 	0.51532 0.11858 0.99380 0.08700
H 	H 	0.47440 0.09790 0.99210 -0.01000
C 	C 	0.54404 0.17955 0.99570 -0.13800
H 	H 	0.52280 0.19930 0.99620 0.09200
C 	C 	0.58530 0.99340 0.78590 -0.08600
N 	N 	0.21946 0.33178 0.19203 -0.23600
C 	C 	0.18199 0.45191 0.32713 0.08000
H 	H 	0.14107 0.43123 0.32543 -0.03700
C 	C 	0.21071 0.51288 0.32903 -0.14600
H 	H 	0.18947 0.53263 0.32953 0.08300
C 	C 	0.25197 0.32673 0.11923 -0.16800
N 	N 	0.88612 0.66512 0.52537 -0.23600
C 	C 	0.84865 0.78525 0.66047 0.07100
H 	H 	0.80773 0.76457 0.65877 -0.02500
C 	C 	0.87737 0.84622 0.66237 -0.11900
H 	H 	0.85613 0.86597 0.66287 0.08200
C 	C 	0.91863 0.66007 0.45257 -0.14100
N 	N 	0.44566 0.44721 0.85870 -0.19600
C 	C 	0.60326 0.48468 0.99380 0.08700
H 	H 	0.62350 0.52560 0.99210 -0.00700
C 	C 	0.63551 0.45596 0.99570 -0.13700
H 	H 	0.67650 0.47720 0.99620 0.09200
C 	C 	0.40810 0.41470 0.78590 -0.10000
N 	N 	0.11233 0.78054 0.19203 -0.23500
C 	C 	0.26993 0.81801 0.32713 0.07900
H 	H 	0.29017 0.85893 0.32543 -0.03100
C 	C 	0.30218 0.78929 0.32903 -0.14500
H 	H 	0.34317 0.81053 0.32953 0.08600
C 	C 	0.07477 0.74803 0.11923 -0.17400
N 	N 	0.77899 0.11388 0.52537 -0.23600
C 	C 	0.93659 0.15135 0.66047 0.06300
H 	H 	0.95683 0.19227 0.65877 -0.01500
C 	C 	0.96884 0.12263 0.66237 -0.09200
H 	H 	0.00983 0.14387 0.66287 0.05400
C 	C 	0.74143 0.08137 0.45257 -0.15900
Ag	Ag	0.33333 0.96595 0.66667 0.48000
Ag	Ag	0.00000 0.29928 -0.00000 0.37300
Ag	Ag	0.03405 0.36739 0.66667 0.46400
Ag	Ag	0.70072 0.70072 -0.00000 0.38800
Ag	Ag	0.63261 0.66667 0.66667 0.47100
Ag	Ag	0.29928 0.00000 -0.00000 0.37100
Ag	Ag	0.96595 0.33333 0.33333 0.44900
Ag	Ag	0.36739 0.03405 0.33333 0.43200
Ag	Ag	0.66667 0.63261 0.33333 0.44100
Ag	Ag	0.66667 0.03405 0.33333 0.43300
Ag	Ag	0.96595 0.63261 0.33333 0.44900
Ag	Ag	0.36739 0.33333 0.33333 0.44000
Ag	Ag	0.03405 0.66667 0.66667 0.46400
Ag	Ag	0.70072 0.00000 -0.00000 0.37100
Ag	Ag	0.63261 0.96595 0.66667 0.48000
Ag	Ag	0.29928 0.29928 -0.00000 0.38600
Ag	Ag	0.33333 0.36739 0.66667 0.47100
Ag	Ag	0.00000 0.70072 -0.00000 0.37400
Fe	Fe	0.50000 0.00000 -0.00000 1.08200
Fe	Fe	0.16667 0.33333 0.33333 1.16500
Fe	Fe	0.83333 0.66667 0.66667 1.16900
Fe	Fe	0.00000 0.50000 -0.00000 1.08500
Fe	Fe	0.66667 0.83333 0.33333 1.16600
Fe	Fe	0.33333 0.16667 0.66667 1.16800
Fe	Fe	0.50000 0.50000 -0.00000 1.09800
Fe	Fe	0.16667 0.83333 0.33333 1.16500
Fe	Fe	0.83333 0.16667 0.66667 1.16900
N 	N 	0.54385 0.08770 0.99440 -0.23200
C 	C 	0.60525 0.21050 0.99660 0.07400
C 	C 	0.63805 0.27610 0.99960 0.10900
N 	N 	0.21052 0.42103 0.32773 -0.26300
C 	C 	0.27192 0.54383 0.32993 0.07100
C 	C 	0.30472 0.60943 0.33293 0.10400
N 	N 	0.87718 0.75437 0.66107 -0.25200
C 	C 	0.93858 0.87717 0.66327 0.03800
C 	C 	0.97138 0.94277 0.66627 0.14400
N 	N 	0.91230 0.45615 0.99440 -0.22300
C 	C 	0.78950 0.39475 0.99660 0.07300
C 	C 	0.72390 0.36195 0.99960 0.10900
N 	N 	0.57897 0.78948 0.32773 -0.26300
C 	C 	0.45617 0.72808 0.32993 0.07100
C 	C 	0.39057 0.69528 0.33293 0.10400
N 	N 	0.24563 0.12282 0.66107 -0.27200
C 	C 	0.12283 0.06142 0.66327 0.11400
C 	C 	0.05723 0.02862 0.66627 0.06300
N 	N 	0.54385 0.45615 0.99440 -0.22900
C 	C 	0.60525 0.39475 0.99660 0.07400
C 	C 	0.63805 0.36195 0.99960 0.10900
N 	N 	0.21052 0.78948 0.32773 -0.26300
C 	C 	0.27192 0.72808 0.32993 0.07100
C 	C 	0.30472 0.69528 0.33293 0.10400
N 	N 	0.87718 0.12282 0.66107 -0.26300
C 	C 	0.93858 0.06142 0.66327 0.07800
C 	C 	0.97138 0.02862 0.66627 0.10100
N 	N 	0.08770 0.54385 0.00560 -0.28000
C 	C 	0.21050 0.60525 0.00340 0.05300
C 	C 	0.27610 0.63805 0.00040 0.08200
N 	N 	0.75437 0.87718 0.33893 -0.25200
C 	C 	0.87717 0.93858 0.33673 0.01400
C 	C 	0.94277 0.97138 0.33373 0.12900
N 	N 	0.42103 0.21052 0.67227 -0.26200
C 	C 	0.54383 0.27192 0.67007 0.05800
C 	C 	0.60943 0.30472 0.66707 0.08600
N 	N 	0.45615 0.91230 0.00560 -0.26900
C 	C 	0.39475 0.78950 0.00340 0.05300
C 	C 	0.36195 0.72390 0.00040 0.08300
N 	N 	0.12282 0.24563 0.33893 -0.27300
C 	C 	0.06142 0.12283 0.33673 0.09200
C 	C 	0.02862 0.05723 0.33373 0.04600
N 	N 	0.78948 0.57897 0.67227 -0.26200
C 	C 	0.72808 0.45617 0.67007 0.05800
C 	C 	0.69528 0.39057 0.66707 0.08600
N 	N 	0.45615 0.54385 0.00560 -0.27800
C 	C 	0.39475 0.60525 0.00340 0.05300
C 	C 	0.36195 0.63805 0.00040 0.08200
N 	N 	0.12282 0.87718 0.33893 -0.26100
C 	C 	0.06142 0.93858 0.33673 0.04900
C 	C 	0.02862 0.97138 0.33373 0.09200
N 	N 	0.78948 0.21052 0.67227 -0.26200
C 	C 	0.72808 0.27192 0.67007 0.05800
C 	C 	0.69528 0.30472 0.66707 0.08600
N 	N 	0.60590 0.30295 0.99900 -0.13300
N 	N 	0.27257 0.63628 0.33233 -0.13600
N 	N 	0.93923 0.96962 0.66567 -0.12400
N 	N 	0.69705 0.30295 0.99900 -0.13300
N 	N 	0.36372 0.63628 0.33233 -0.13600
N 	N 	0.03038 0.96962 0.66567 -0.13200
N 	N 	0.69705 0.39410 0.99900 -0.13300
N 	N 	0.36372 0.72743 0.33233 -0.13500
N 	N 	0.03038 0.06077 0.66567 -0.14100
N 	N 	0.30295 0.60590 0.00100 -0.14600
N 	N 	0.96962 0.93923 0.33433 -0.13800
N 	N 	0.63628 0.27257 0.66767 -0.14400
N 	N 	0.30295 0.69705 0.00100 -0.14600
N 	N 	0.96962 0.03038 0.33433 -0.14700
N 	N 	0.63628 0.36372 0.66767 -0.14300
N 	N 	0.39410 0.69705 0.00100 -0.14600
N 	N 	0.06077 0.03038 0.33433 -0.15600
N 	N 	0.72743 0.36372 0.66767 -0.14300
