data_crystal

_cell_length_a 21.44100
_cell_length_b 23.21200
_cell_length_c 24.64600
_cell_angle_alpha 68.10000
_cell_angle_beta  67.49000
_cell_angle_gamma 79.99000

_symmetry_space_group_name_	'P 1'
_symmetry_space_group_name_H-M	'P 1'

loop_
_symmetry_equiv_pos_as_xyz
  x,y,z

loop_
_atom_site_label
_atom_site_type_symbol
_atom_site_fract_x
_atom_site_fract_y
_atom_site_fract_z
_atom_site_charge
Zn	Zn	0.74203 0.18920 0.22661 1.21700
Zn	Zn	0.09323 0.80013 0.80771 1.22100
Zn	Zn	0.75922 0.30872 0.09234 1.21800
Zn	Zn	0.83055 0.08328 0.27453 1.21300
Zn	Zn	0.19742 0.79560 0.67778 1.20600
Zn	Zn	0.31898 0.67422 0.76368 1.23100
S 	S 	0.59393 0.85877 0.49061 0.32500
O 	O 	0.39078 0.71790 0.68321 -0.43300
O 	O 	0.29730 0.77667 0.68080 -0.57800
C 	C 	0.36040 0.76590 0.65750 0.37500
C 	C 	0.40000 0.81360 0.59830 -0.13100
C 	C 	0.36780 0.86590 0.56880 0.05600
H 	H 	0.32090 0.86930 0.58300 0.01400
C 	C 	0.46810 0.80720 0.57720 0.05200
H 	H 	0.49000 0.77150 0.59600 0.04900
C 	C 	0.40450 0.91250 0.51890 -0.11300
H 	H 	0.38200 0.94750 0.50000 0.08200
C 	C 	0.50490 0.85570 0.52610 -0.07400
C 	C 	0.47380 0.90880 0.49600 0.04900
C 	C 	0.52130 0.95400 0.44560 0.04200
C 	C 	0.50830 0.01280 0.40920 -0.10300
H 	H 	0.46400 0.02760 0.41400 0.08200
C 	C 	0.58830 0.93360 0.43840 -0.07100
C 	C 	0.56080 0.04900 0.36590 0.04300
H 	H 	0.55160 0.08850 0.34100 0.04400
C 	C 	0.64170 0.96850 0.39400 0.03400
H 	H 	0.68580 0.95260 0.38800 0.05100
C 	C 	0.62820 0.02870 0.35780 -0.10300
C 	C 	0.68650 0.07010 0.31050 0.38900
O 	O 	0.74500 0.04483 0.30214 -0.48200
O 	O 	0.67204 0.12580 0.28566 -0.46000
O 	O 	0.62380 0.86000 0.53240 -0.21000
O 	O 	0.62150 0.81460 0.45710 -0.19400
S 	S 	0.97677 0.89301 0.50705 0.32600
O 	O 	0.78700 0.11060 0.39218 -0.45400
O 	O 	0.86070 0.04550 0.34680 -0.45200
C 	C 	0.82930 0.06600 0.39210 0.35200
C 	C 	0.85030 0.03110 0.44860 -0.09300
C 	C 	0.89900 0.98370 0.44660 0.03200
H 	H 	0.91840 0.97130 0.41170 0.05600
C 	C 	0.82220 0.04890 0.50010 0.03400
H 	H 	0.78940 0.08100 0.50010 0.03400
C 	C 	0.84070 0.02100 0.55230 -0.08600
H 	H 	0.82130 0.03420 0.58670 0.07900
C 	C 	0.91740 0.95610 0.49740 -0.06300
C 	C 	0.88970 0.97220 0.55180 0.04300
C 	C 	0.92230 0.93730 0.59840 0.05000
C 	C 	0.90940 0.94310 0.65440 -0.08700
H 	H 	0.87540 0.97020 0.66890 0.07800
C 	C 	0.97320 0.89600 0.57850 -0.07100
C 	C 	0.00160 0.86680 0.66670 -0.08500
C 	C 	0.04710 0.83430 0.70740 0.36900
C 	C 	0.01460 0.86180 0.61120 0.03700
H 	H 	0.05000 0.83640 0.59530 0.04600
C 	C 	0.94990 0.90590 0.69060 0.02000
H 	H 	0.94190 0.90790 0.72970 0.04800
O 	O 	0.09870 0.81013 0.67710 -0.46400
O 	O 	0.02910 0.83220 0.76280 -0.47200
O 	O 	0.04160 0.91160 0.45990 -0.21400
O 	O 	0.94990 0.83660 0.51630 -0.20100
S 	S 	0.54301 0.45108 0.91277 0.33600
O 	O 	0.26750 0.60165 0.89305 -0.44900
O 	O 	0.36328 0.60285 0.81270 -0.42300
C 	C 	0.32560 0.58280 0.87090 0.36000
C 	C 	0.36000 0.53450 0.91240 -0.10200
C 	C 	0.42940 0.51990 0.88990 0.03900
H 	H 	0.45560 0.53880 0.84840 0.05300
C 	C 	0.32310 0.50670 0.97430 0.04400
H 	H 	0.27720 0.51690 0.98900 0.03000
C 	C 	0.45760 0.47660 0.93120 -0.07300
C 	C 	0.35220 0.46410 0.01510 -0.09900
H 	H 	0.32630 0.44600 0.05690 0.08200
C 	C 	0.42040 0.44830 0.99350 0.05000
C 	C 	0.46330 0.40590 0.02740 0.05100
C 	C 	0.44460 0.36970 0.09050 -0.09700
H 	H 	0.39960 0.36860 0.11640 0.08500
C 	C 	0.52950 0.40490 0.99220 -0.07300
C 	C 	0.49370 0.33540 0.11400 0.04800
H 	H 	0.48060 0.30980 0.15560 0.04100
C 	C 	0.57990 0.37200 0.01660 0.04500
H 	H 	0.62510 0.37350 0.99110 0.04300
C 	C 	0.56050 0.33770 0.07860 -0.11100
C 	C 	0.61100 0.30650 0.10760 0.34800
O 	O 	0.67300 0.31684 0.07222 -0.41700
O 	O 	0.59470 0.27154 0.16330 -0.26100
O 	O 	0.58780 0.50070 0.89060 -0.21600
O 	O 	0.55980 0.41280 0.87580 -0.20400
S 	S 	0.87681 0.57211 0.07417 0.32400
O 	O 	0.75140 0.36240 0.24205 -0.49500
O 	O 	0.83488 0.29190 0.25653 -0.50500
C 	C 	0.81260 0.34570 0.23360 0.42400
C 	C 	0.86330 0.39260 0.19290 -0.14300
C 	C 	0.84200 0.45160 0.16200 0.05400
H 	H 	0.79630 0.46180 0.16900 0.04400
C 	C 	0.93370 0.37970 0.18180 0.06300
H 	H 	0.94810 0.34090 0.20360 0.02700
C 	C 	0.98150 0.42360 0.13910 -0.11200
H 	H 	0.02730 0.41410 0.13210 0.08300
C 	C 	0.89140 0.49570 0.12000 -0.07500
C 	C 	0.96040 0.48090 0.10770 0.05300
C 	C 	0.00290 0.52960 0.05460 0.04300
C 	C 	0.07280 0.53120 0.02590 -0.11100
H 	H 	0.09980 0.49740 0.04010 0.08600
C 	C 	0.96400 0.58280 0.03150 -0.07500
C 	C 	0.10180 0.58220 0.97700 0.05100
H 	H 	0.14860 0.58260 0.95800 0.01300
C 	C 	0.99220 0.63300 0.98340 0.05100
H 	H 	0.96540 0.66690 0.96910 0.04600
C 	C 	0.06270 0.63380 0.95480 -0.13600
C 	C 	0.09680 0.68820 0.89980 0.39500
O 	O 	0.05483 0.72650 0.87542 -0.45300
O 	O 	0.15760 0.69702 0.88098 -0.52700
O 	O 	0.84131 0.57355 0.03450 -0.21300
O 	O 	0.84990 0.61140 0.11230 -0.19700
S 	S 	0.95201 0.11750 0.89981 0.32800
O 	O 	0.10150 0.95032 0.78810 -0.46600
O 	O 	0.06380 0.85730 0.85702 -0.47300
C 	C 	0.06430 0.91640 0.84120 0.38900
C 	C 	0.02110 0.94720 0.88440 -0.13400
C 	C 	0.98390 0.91260 0.94760 0.07400
H 	H 	0.98800 0.86950 0.96020 0.03200
C 	C 	0.01280 0.01090 0.86730 0.05600
H 	H 	0.03560 0.03580 0.82670 0.04500
C 	C 	0.94480 0.93780 0.98850 -0.13000
H 	H 	0.92290 0.91280 0.02930 0.09800
C 	C 	0.97100 0.03730 0.91000 -0.07800
C 	C 	0.93540 0.00200 0.97170 0.05400
C 	C 	0.89510 0.03820 0.01150 0.04700
C 	C 	0.85400 0.02020 0.07440 -0.11300
H 	H 	0.84700 0.97830 0.09730 0.08500
C 	C 	0.89850 0.10450 0.97820 -0.08300
C 	C 	0.86770 0.14580 0.00640 0.07200
H 	H 	0.87170 0.18810 0.98380 0.03400
C 	C 	0.82450 0.06310 0.10220 0.06700
H 	H 	0.79990 0.05000 0.14480 0.02900
C 	C 	0.82980 0.12630 0.06910 -0.14300
C 	C 	0.79710 0.16840 0.10410 0.39200
O 	O 	0.77210 0.14800 0.16340 -0.49800
O 	O 	0.79700 0.22740 0.07190 -0.44400
O 	O 	0.01090 0.14840 0.88750 -0.21200
O 	O 	0.91430 0.14380 0.85810 -0.19900
O 	O 	0.81952 0.17319 0.25085 -0.91800
O 	O 	0.70355 0.26915 0.18865 -0.65900
Zn	Zn	0.25797 0.81080 0.77339 1.21700
Zn	Zn	0.90677 0.19987 0.19229 1.22100
Zn	Zn	0.24078 0.69128 0.90766 1.21800
Zn	Zn	0.16945 0.91672 0.72547 1.21300
Zn	Zn	0.80258 0.20440 0.32222 1.20600
Zn	Zn	0.68102 0.32578 0.23632 1.23100
S 	S 	0.40607 0.14123 0.50939 0.32500
O 	O 	0.60922 0.28210 0.31679 -0.43300
O 	O 	0.70270 0.22333 0.31920 -0.57800
C 	C 	0.63960 0.23410 0.34250 0.37500
C 	C 	0.60000 0.18640 0.40170 -0.13100
C 	C 	0.63220 0.13410 0.43120 0.05600
H 	H 	0.67910 0.13070 0.41700 0.01400
C 	C 	0.53190 0.19280 0.42280 0.05200
H 	H 	0.51000 0.22850 0.40400 0.04900
C 	C 	0.59550 0.08750 0.48110 -0.11300
H 	H 	0.61800 0.05250 0.50000 0.08200
C 	C 	0.49510 0.14430 0.47390 -0.07400
C 	C 	0.52620 0.09120 0.50400 0.04900
C 	C 	0.47870 0.04600 0.55440 0.04200
C 	C 	0.49170 0.98720 0.59080 -0.10300
H 	H 	0.53600 0.97240 0.58600 0.08200
C 	C 	0.41170 0.06640 0.56160 -0.07100
C 	C 	0.43920 0.95100 0.63410 0.04300
H 	H 	0.44840 0.91150 0.65900 0.04400
C 	C 	0.35830 0.03150 0.60600 0.03400
H 	H 	0.31420 0.04740 0.61200 0.05100
C 	C 	0.37180 0.97130 0.64220 -0.10300
C 	C 	0.31350 0.92990 0.68950 0.38900
O 	O 	0.25500 0.95517 0.69786 -0.48200
O 	O 	0.32796 0.87420 0.71434 -0.46000
O 	O 	0.37620 0.14000 0.46760 -0.21000
O 	O 	0.37850 0.18540 0.54290 -0.19400
S 	S 	0.02323 0.10699 0.49295 0.32600
O 	O 	0.21300 0.88940 0.60782 -0.45400
O 	O 	0.13930 0.95450 0.65320 -0.45200
C 	C 	0.17070 0.93400 0.60790 0.35200
C 	C 	0.14970 0.96890 0.55140 -0.09300
C 	C 	0.10100 0.01630 0.55340 0.03200
H 	H 	0.08160 0.02870 0.58830 0.05600
C 	C 	0.17780 0.95110 0.49990 0.03400
H 	H 	0.21060 0.91900 0.49990 0.03400
C 	C 	0.15930 0.97900 0.44770 -0.08600
H 	H 	0.17870 0.96580 0.41330 0.07900
C 	C 	0.08260 0.04390 0.50260 -0.06300
C 	C 	0.11030 0.02780 0.44820 0.04300
C 	C 	0.07770 0.06270 0.40160 0.05000
C 	C 	0.09060 0.05690 0.34560 -0.08700
H 	H 	0.12460 0.02980 0.33110 0.07800
C 	C 	0.02680 0.10400 0.42150 -0.07100
C 	C 	0.99840 0.13320 0.33330 -0.08500
C 	C 	0.95290 0.16570 0.29260 0.36900
C 	C 	0.98540 0.13820 0.38880 0.03700
H 	H 	0.95000 0.16360 0.40470 0.04600
C 	C 	0.05010 0.09410 0.30940 0.02000
H 	H 	0.05810 0.09210 0.27030 0.04800
O 	O 	0.90130 0.18987 0.32290 -0.46400
O 	O 	0.97090 0.16780 0.23720 -0.47200
O 	O 	0.95840 0.08840 0.54010 -0.21400
O 	O 	0.05010 0.16340 0.48370 -0.20100
S 	S 	0.45699 0.54892 0.08723 0.33600
O 	O 	0.73250 0.39835 0.10695 -0.44900
O 	O 	0.63672 0.39715 0.18730 -0.42300
C 	C 	0.67440 0.41720 0.12910 0.36000
C 	C 	0.64000 0.46550 0.08760 -0.10200
C 	C 	0.57060 0.48010 0.11010 0.03900
H 	H 	0.54440 0.46120 0.15160 0.05300
C 	C 	0.67690 0.49330 0.02570 0.04400
H 	H 	0.72280 0.48310 0.01100 0.03000
C 	C 	0.54240 0.52340 0.06880 -0.07300
C 	C 	0.64780 0.53590 0.98490 -0.09900
H 	H 	0.67370 0.55400 0.94310 0.08200
C 	C 	0.57960 0.55170 0.00650 0.05000
C 	C 	0.53670 0.59410 0.97260 0.05100
C 	C 	0.55540 0.63030 0.90950 -0.09700
H 	H 	0.60040 0.63140 0.88360 0.08500
C 	C 	0.47050 0.59510 0.00780 -0.07300
C 	C 	0.50630 0.66460 0.88600 0.04800
H 	H 	0.51940 0.69020 0.84440 0.04100
C 	C 	0.42010 0.62800 0.98340 0.04500
H 	H 	0.37490 0.62650 0.00890 0.04300
C 	C 	0.43950 0.66230 0.92140 -0.11100
C 	C 	0.38900 0.69350 0.89240 0.34800
O 	O 	0.32700 0.68316 0.92778 -0.41700
O 	O 	0.40530 0.72846 0.83670 -0.26100
O 	O 	0.41220 0.49930 0.10940 -0.21600
O 	O 	0.44020 0.58720 0.12420 -0.20400
S 	S 	0.12319 0.42789 0.92583 0.32400
O 	O 	0.24860 0.63760 0.75795 -0.49500
O 	O 	0.16512 0.70810 0.74347 -0.50500
C 	C 	0.18740 0.65430 0.76640 0.42400
C 	C 	0.13670 0.60740 0.80710 -0.14300
C 	C 	0.15800 0.54840 0.83800 0.05400
H 	H 	0.20370 0.53820 0.83100 0.04400
C 	C 	0.06630 0.62030 0.81820 0.06300
H 	H 	0.05190 0.65910 0.79640 0.02700
C 	C 	0.01850 0.57640 0.86090 -0.11200
H 	H 	0.97270 0.58590 0.86790 0.08300
C 	C 	0.10860 0.50430 0.88000 -0.07500
C 	C 	0.03960 0.51910 0.89230 0.05300
C 	C 	0.99710 0.47040 0.94540 0.04300
C 	C 	0.92720 0.46880 0.97410 -0.11100
H 	H 	0.90020 0.50260 0.95990 0.08600
C 	C 	0.03600 0.41720 0.96850 -0.07500
C 	C 	0.89820 0.41780 0.02300 0.05100
H 	H 	0.85140 0.41740 0.04200 0.01300
C 	C 	0.00780 0.36700 0.01660 0.05100
H 	H 	0.03460 0.33310 0.03090 0.04600
C 	C 	0.93730 0.36620 0.04520 -0.13600
C 	C 	0.90320 0.31180 0.10020 0.39500
O 	O 	0.94517 0.27350 0.12458 -0.45300
O 	O 	0.84240 0.30298 0.11902 -0.52700
O 	O 	0.15869 0.42645 0.96550 -0.21300
O 	O 	0.15010 0.38860 0.88770 -0.19700
S 	S 	0.04799 0.88250 0.10019 0.32800
O 	O 	0.89850 0.04968 0.21190 -0.46600
O 	O 	0.93620 0.14270 0.14298 -0.47300
C 	C 	0.93570 0.08360 0.15880 0.38900
C 	C 	0.97890 0.05280 0.11560 -0.13400
C 	C 	0.01610 0.08740 0.05240 0.07400
H 	H 	0.01200 0.13050 0.03980 0.03200
C 	C 	0.98720 0.98910 0.13270 0.05600
H 	H 	0.96440 0.96420 0.17330 0.04500
C 	C 	0.05520 0.06220 0.01150 -0.13000
H 	H 	0.07710 0.08720 0.97070 0.09800
C 	C 	0.02900 0.96270 0.09000 -0.07800
C 	C 	0.06460 0.99800 0.02830 0.05400
C 	C 	0.10490 0.96180 0.98850 0.04700
C 	C 	0.14600 0.97980 0.92560 -0.11300
H 	H 	0.15300 0.02170 0.90270 0.08500
C 	C 	0.10150 0.89550 0.02180 -0.08300
C 	C 	0.13230 0.85420 0.99360 0.07200
H 	H 	0.12830 0.81190 0.01620 0.03400
C 	C 	0.17550 0.93690 0.89780 0.06700
H 	H 	0.20010 0.95000 0.85520 0.02900
C 	C 	0.17020 0.87370 0.93090 -0.14300
C 	C 	0.20290 0.83160 0.89590 0.39200
O 	O 	0.22790 0.85200 0.83660 -0.49800
O 	O 	0.20300 0.77260 0.92810 -0.44400
O 	O 	0.98910 0.85160 0.11250 -0.21200
O 	O 	0.08570 0.85620 0.14190 -0.19900
O 	O 	0.18048 0.82681 0.74915 -0.91800
O 	O 	0.29645 0.73085 0.81135 -0.65900
