data_crystal

_cell_length_a 11.35280
_cell_length_b 11.35280
_cell_length_c 23.14500
_cell_angle_alpha 90.00000
_cell_angle_beta  90.00000
_cell_angle_gamma 90.00000

_symmetry_space_group_name_	'P 1'
_symmetry_space_group_name_H-M	'P 1'

loop_
_symmetry_equiv_pos_as_xyz
  x,y,z

loop_
_atom_site_label
_atom_site_type_symbol
_atom_site_fract_x
_atom_site_fract_y
_atom_site_fract_z
_atom_site_charge
N 	N 	0.07290 0.95050 0.08140 -0.11600
N 	N 	0.15600 0.84440 0.18130 -0.24500
C 	C 	0.06850 0.83310 0.08820 -0.03700
C 	C 	0.11460 0.01390 0.12530 -0.23900
H 	H 	0.11570 0.09560 0.12260 0.11100
C 	C 	0.15570 0.96070 0.17440 0.30600
H 	H 	0.18450 0.00780 0.20410 -0.10000
C 	C 	0.10980 0.78060 0.13830 0.05300
H 	H 	0.10530 0.69920 0.14210 0.03200
C 	C 	0.01790 0.76240 0.03880 0.17300
O 	O 	0.01710 0.65500 0.04610 -0.39400
O 	O 	0.98210 0.81750 0.99530 -0.20400
N 	N 	0.42710 0.54950 0.08140 -0.19300
N 	N 	0.34400 0.65560 0.18130 -0.19300
C 	C 	0.43150 0.66690 0.08820 -0.02700
C 	C 	0.38540 0.48610 0.12530 0.03200
H 	H 	0.38430 0.40440 0.12260 0.03100
C 	C 	0.34430 0.53930 0.17440 0.01700
H 	H 	0.31550 0.49220 0.20410 0.04700
C 	C 	0.39020 0.71940 0.13830 0.03500
H 	H 	0.39470 0.80080 0.14210 0.05000
C 	C 	0.48210 0.73760 0.03880 0.23000
O 	O 	0.48290 0.84500 0.04610 -0.36600
O 	O 	0.51790 0.68250 0.99530 -0.27900
N 	N 	0.54950 0.07290 0.08140 -0.20400
N 	N 	0.65560 0.15600 0.18130 -0.19500
C 	C 	0.66690 0.06850 0.08820 -0.01700
C 	C 	0.48610 0.11460 0.12530 0.02800
H 	H 	0.40440 0.11570 0.12260 0.02500
C 	C 	0.53930 0.15570 0.17440 0.00900
H 	H 	0.49220 0.18450 0.20410 0.04500
C 	C 	0.71940 0.10980 0.13830 0.01900
H 	H 	0.80080 0.10530 0.14210 0.04900
C 	C 	0.73760 0.01790 0.03880 0.15600
O 	O 	0.84500 0.01710 0.04610 -0.36600
O 	O 	0.68250 0.98210 0.99530 -0.21100
N 	N 	0.95050 0.42710 0.08140 -0.11000
N 	N 	0.84440 0.34400 0.18130 -0.24400
C 	C 	0.83310 0.43150 0.08820 -0.04700
C 	C 	0.01390 0.38540 0.12530 -0.22800
H 	H 	0.09560 0.38430 0.12260 0.11400
C 	C 	0.96070 0.34430 0.17440 0.30600
H 	H 	0.00780 0.31550 0.20410 -0.09500
C 	C 	0.78060 0.39020 0.13830 0.06700
H 	H 	0.69920 0.39470 0.14210 0.03400
C 	C 	0.76240 0.48210 0.03880 0.24400
O 	O 	0.65500 0.48290 0.04610 -0.39300
O 	O 	0.81750 0.51790 0.99530 -0.27000
N 	N 	0.92710 0.45050 0.41860 -0.16000
N 	N 	0.84400 0.34440 0.31870 -0.19800
C 	C 	0.93150 0.33310 0.41180 -0.07400
C 	C 	0.88540 0.51390 0.37470 0.03300
H 	H 	0.88430 0.59560 0.37740 0.04500
C 	C 	0.84430 0.46070 0.32560 0.03000
H 	H 	0.81550 0.50780 0.29590 0.05200
C 	C 	0.89020 0.28060 0.36170 0.07200
H 	H 	0.89470 0.19920 0.35790 0.02900
C 	C 	0.98210 0.26240 0.46120 0.44600
O 	O 	0.98290 0.15500 0.45390 -0.41000
O 	O 	0.01790 0.31750 0.50470 -0.46900
N 	N 	0.57290 0.04950 0.41860 -0.25200
N 	N 	0.65600 0.15560 0.31870 -0.15200
C 	C 	0.56850 0.16690 0.41180 -0.04700
C 	C 	0.61460 0.98610 0.37470 0.27900
H 	H 	0.61570 0.90440 0.37740 -0.04100
C 	C 	0.65570 0.03930 0.32560 -0.25300
H 	H 	0.68450 0.99220 0.29590 0.18500
C 	C 	0.60980 0.21940 0.36170 0.02600
H 	H 	0.60530 0.30080 0.35790 0.04300
C 	C 	0.51790 0.23760 0.46120 0.35700
O 	O 	0.51710 0.34500 0.45390 -0.40500
O 	O 	0.48210 0.18250 0.50470 -0.40700
N 	N 	0.45050 0.57290 0.41860 -0.17700
N 	N 	0.34440 0.65600 0.31870 -0.20000
C 	C 	0.33310 0.56850 0.41180 -0.06600
C 	C 	0.51390 0.61460 0.37470 0.03000
H 	H 	0.59560 0.61570 0.37740 0.03800
C 	C 	0.46070 0.65570 0.32560 0.02200
H 	H 	0.50780 0.68450 0.29590 0.05100
C 	C 	0.28060 0.60980 0.36170 0.05700
H 	H 	0.19920 0.60530 0.35790 0.02800
C 	C 	0.26240 0.51790 0.46120 0.36900
O 	O 	0.15500 0.51710 0.45390 -0.42100
O 	O 	0.31750 0.48210 0.50470 -0.40300
N 	N 	0.04950 0.92710 0.41860 -0.23100
N 	N 	0.15560 0.84400 0.31870 -0.15200
C 	C 	0.16690 0.93150 0.41180 -0.05600
C 	C 	0.98610 0.88540 0.37470 0.27000
H 	H 	0.90440 0.88430 0.37740 -0.03100
C 	C 	0.03930 0.84430 0.32560 -0.23300
H 	H 	0.99220 0.81550 0.29590 0.18100
C 	C 	0.21940 0.89020 0.36170 0.04300
H 	H 	0.30080 0.89470 0.35790 0.04400
C 	C 	0.23760 0.98210 0.46120 0.43700
O 	O 	0.34500 0.98290 0.45390 -0.39600
O 	O 	0.18250 0.01790 0.50470 -0.47400
N 	N 	0.92710 0.04950 0.91860 -0.20600
N 	N 	0.84400 0.15560 0.81870 -0.15700
C 	C 	0.93150 0.16690 0.91180 -0.07700
C 	C 	0.88540 0.98610 0.87470 0.26000
H 	H 	0.88430 0.90440 0.87740 -0.02400
C 	C 	0.84430 0.03930 0.82560 -0.22200
H 	H 	0.81550 0.99220 0.79590 0.17700
C 	C 	0.89020 0.21940 0.86170 0.05900
H 	H 	0.89470 0.30080 0.85790 0.03900
C 	C 	0.98210 0.23760 0.96120 0.55900
O 	O 	0.98290 0.34500 0.95390 -0.39100
O 	O 	0.01790 0.18250 0.00470 -0.57100
N 	N 	0.57290 0.45050 0.91860 -0.15300
N 	N 	0.65600 0.34440 0.81870 -0.20300
C 	C 	0.56850 0.33310 0.91180 -0.08800
C 	C 	0.61460 0.51390 0.87470 0.02700
H 	H 	0.61570 0.59560 0.87740 0.04300
C 	C 	0.65570 0.46070 0.82560 0.02700
H 	H 	0.68450 0.50780 0.79590 0.04900
C 	C 	0.60980 0.28060 0.86170 0.07300
H 	H 	0.60530 0.19920 0.85790 0.02300
C 	C 	0.51790 0.26240 0.96120 0.49400
O 	O 	0.51710 0.15500 0.95390 -0.41600
O 	O 	0.48210 0.31750 0.00470 -0.50300
N 	N 	0.45050 0.92710 0.91860 -0.13700
N 	N 	0.34440 0.84400 0.81870 -0.20100
C 	C 	0.33310 0.93150 0.91180 -0.09500
C 	C 	0.51390 0.88540 0.87470 0.03000
H 	H 	0.59560 0.88430 0.87740 0.05000
C 	C 	0.46070 0.84430 0.82560 0.03500
H 	H 	0.50780 0.81550 0.79590 0.05100
C 	C 	0.28060 0.89020 0.86170 0.08800
H 	H 	0.19920 0.89470 0.85790 0.02500
C 	C 	0.26240 0.98210 0.96120 0.56800
O 	O 	0.15500 0.98290 0.95390 -0.40500
O 	O 	0.31750 0.01790 0.00470 -0.56600
N 	N 	0.04950 0.57290 0.91860 -0.22600
N 	N 	0.15560 0.65600 0.81870 -0.15600
C 	C 	0.16690 0.56850 0.91180 -0.06900
C 	C 	0.98610 0.61460 0.87470 0.26900
H 	H 	0.90440 0.61570 0.87740 -0.03400
C 	C 	0.03930 0.65570 0.82560 -0.24100
H 	H 	0.99220 0.68450 0.79590 0.18000
C 	C 	0.21940 0.60980 0.86170 0.04200
H 	H 	0.30080 0.60530 0.85790 0.03800
C 	C 	0.23760 0.51790 0.96120 0.48300
O 	O 	0.34500 0.51710 0.95390 -0.40000
O 	O 	0.18250 0.48210 0.00470 -0.50600
N 	N 	0.07290 0.54950 0.58140 -0.18900
N 	N 	0.15600 0.65560 0.68130 -0.19800
C 	C 	0.06850 0.66690 0.58820 -0.04300
C 	C 	0.11460 0.48610 0.62530 0.02600
H 	H 	0.11570 0.40440 0.62260 0.02800
C 	C 	0.15570 0.53930 0.67440 0.01300
H 	H 	0.18450 0.49220 0.70410 0.04400
C 	C 	0.10980 0.71940 0.63830 0.03700
H 	H 	0.10530 0.80080 0.64210 0.04400
C 	C 	0.01790 0.73760 0.53880 0.28300
O 	O 	0.01710 0.84500 0.54610 -0.37600
O 	O 	0.98210 0.68250 0.49530 -0.32300
N 	N 	0.42710 0.95050 0.58140 -0.09600
N 	N 	0.34400 0.84440 0.68130 -0.24600
C 	C 	0.43150 0.83310 0.58820 -0.07300
C 	C 	0.38540 0.01390 0.62530 -0.22900
H 	H 	0.38430 0.09560 0.62260 0.11600
C 	C 	0.34430 0.96070 0.67440 0.30700
H 	H 	0.31550 0.00780 0.70410 -0.09400
C 	C 	0.39020 0.78060 0.63830 0.08500
H 	H 	0.39470 0.69920 0.64210 0.02800
C 	C 	0.48210 0.76240 0.53880 0.37300
O 	O 	0.48290 0.65500 0.54610 -0.40300
O 	O 	0.51790 0.81750 0.49530 -0.38500
N 	N 	0.54950 0.42710 0.58140 -0.17800
N 	N 	0.65560 0.34400 0.68130 -0.19700
C 	C 	0.66690 0.43150 0.58820 -0.05400
C 	C 	0.48610 0.38540 0.62530 0.02900
H 	H 	0.40440 0.38430 0.62260 0.03300
C 	C 	0.53930 0.34430 0.67440 0.02100
H 	H 	0.49220 0.31550 0.70410 0.04600
C 	C 	0.71940 0.39020 0.63830 0.05300
H 	H 	0.80080 0.39470 0.64210 0.04400
C 	C 	0.73760 0.48210 0.53880 0.36000
O 	O 	0.84500 0.48290 0.54610 -0.37700
O 	O 	0.68250 0.51790 0.49530 -0.39500
N 	N 	0.95050 0.07290 0.58140 -0.10400
N 	N 	0.84440 0.15600 0.68130 -0.24900
C 	C 	0.83310 0.06850 0.58820 -0.06400
C 	C 	0.01390 0.11460 0.62530 -0.24000
H 	H 	0.09560 0.11570 0.62260 0.11300
C 	C 	0.96070 0.15570 0.67440 0.30700
H 	H 	0.00780 0.18450 0.70410 -0.09900
C 	C 	0.78060 0.10980 0.63830 0.07100
H 	H 	0.69920 0.10530 0.64210 0.02700
C 	C 	0.76240 0.01790 0.53880 0.29900
O 	O 	0.65500 0.01710 0.54610 -0.40400
O 	O 	0.81750 0.98210 0.49530 -0.31600
Co	Co	0.25000 0.75000 0.25000 1.14900
Co	Co	0.75000 0.25000 0.25000 1.14900
Co	Co	0.75000 0.25000 0.75000 1.14900
Co	Co	0.25000 0.75000 0.75000 1.14900
Co	Co	-0.00000 0.00000 -0.00000 1.09300
Co	Co	0.50000 0.50000 -0.00000 1.14600
Co	Co	0.50000 0.00000 -0.00000 1.12000
Co	Co	-0.00000 0.50000 -0.00000 1.12000
Co	Co	-0.00000 0.50000 0.50000 1.16300
Co	Co	0.50000 0.00000 0.50000 1.16200
Co	Co	0.50000 0.50000 0.50000 1.18800
Co	Co	0.00000 0.00000 0.50000 1.13500
Cl	Cl	0.09940 0.59940 0.25000 -0.49600
Cl	Cl	0.40060 0.90060 0.25000 -0.43500
Cl	Cl	0.90060 0.09940 0.25000 -0.46300
Cl	Cl	0.59940 0.40060 0.25000 -0.46700
Cl	Cl	0.90060 0.40060 0.75000 -0.43500
Cl	Cl	0.59940 0.09940 0.75000 -0.49500
Cl	Cl	0.09940 0.90060 0.75000 -0.46300
Cl	Cl	0.40060 0.59940 0.75000 -0.46500
