data_crystal

_cell_length_a 8.91990
_cell_length_b 9.45660
_cell_length_c 10.41400
_cell_angle_alpha 90.00000
_cell_angle_beta  90.00000
_cell_angle_gamma 90.00000

_symmetry_space_group_name_	'P 1'
_symmetry_space_group_name_H-M	'P 1'

loop_
_symmetry_equiv_pos_as_xyz
  x,y,z

loop_
_atom_site_label
_atom_site_type_symbol
_atom_site_fract_x
_atom_site_fract_y
_atom_site_fract_z
_atom_site_charge
Co	Co	0.79756 0.55381 0.27399 1.19500
O 	O 	0.93130 0.39050 0.32960 -0.52000
O 	O 	0.04700 0.19020 0.30570 -0.49900
O 	O 	0.77850 0.48060 0.08460 -0.40600
O 	O 	0.64410 0.35310 0.94820 -0.38300
N 	N 	0.61360 0.39950 0.27900 -0.17300
N 	N 	0.38140 0.20850 0.24880 -0.20600
C 	C 	0.00480 0.30630 0.27700 0.67600
H 	H 	0.03730 0.33530 0.19640 -0.18200
C 	C 	0.67560 0.39780 0.05820 0.33900
C 	C 	0.58150 0.34510 0.17040 -0.04500
C 	C 	0.46150 0.25140 0.15050 0.05200
H 	H 	0.43900 0.22000 0.06810 0.02800
C 	C 	0.41180 0.26110 0.36470 0.03000
H 	H 	0.35400 0.23280 0.43450 0.03700
C 	C 	0.52770 0.35710 0.38400 -0.01000
H 	H 	0.54760 0.39250 0.46560 0.06500
Co	Co	0.70244 0.44619 0.77399 1.19400
O 	O 	0.56870 0.60950 0.82960 -0.52200
O 	O 	0.45300 0.80980 0.80570 -0.50000
O 	O 	0.72150 0.51940 0.58460 -0.40600
O 	O 	0.85590 0.64690 0.44820 -0.38500
N 	N 	0.88640 0.60050 0.77900 -0.17300
N 	N 	0.11860 0.79150 0.74880 -0.20600
C 	C 	0.49520 0.69370 0.77700 0.67700
H 	H 	0.46270 0.66470 0.69640 -0.18200
C 	C 	0.82440 0.60220 0.55820 0.34200
C 	C 	0.91850 0.65490 0.67040 -0.04700
C 	C 	0.03850 0.74860 0.65050 0.05300
H 	H 	0.06100 0.78000 0.56810 0.02900
C 	C 	0.08820 0.73890 0.86470 0.03000
H 	H 	0.14600 0.76720 0.93450 0.03600
C 	C 	0.97230 0.64290 0.88400 -0.01100
H 	H 	0.95240 0.60750 0.96560 0.06500
Co	Co	0.20244 0.05381 0.22601 1.19300
O 	O 	0.06870 0.89050 0.17040 -0.51400
O 	O 	0.95300 0.69020 0.19430 -0.49600
O 	O 	0.22150 0.98060 0.41540 -0.40500
O 	O 	0.35590 0.85310 0.55180 -0.38500
N 	N 	0.38640 0.89950 0.22100 -0.17200
N 	N 	0.61860 0.70850 0.25120 -0.20500
C 	C 	0.99520 0.80630 0.22300 0.66900
H 	H 	0.96270 0.83530 0.30360 -0.18000
C 	C 	0.32440 0.89780 0.44180 0.34100
C 	C 	0.41850 0.84510 0.32960 -0.04500
C 	C 	0.53850 0.75140 0.34950 0.05200
H 	H 	0.56100 0.72000 0.43190 0.02900
C 	C 	0.58820 0.76110 0.13530 0.03000
H 	H 	0.64600 0.73280 0.06550 0.03800
C 	C 	0.47230 0.85710 0.11600 -0.01000
H 	H 	0.45240 0.89250 0.03440 0.06600
Co	Co	0.29756 0.94619 0.72601 1.19400
O 	O 	0.43130 0.10950 0.67040 -0.52000
O 	O 	0.54700 0.30980 0.69430 -0.49800
O 	O 	0.27850 0.01940 0.91540 -0.40600
O 	O 	0.14410 0.14690 0.05180 -0.38800
N 	N 	0.11360 0.10050 0.72100 -0.17100
N 	N 	0.88140 0.29150 0.75120 -0.20700
C 	C 	0.50480 0.19370 0.72300 0.67600
H 	H 	0.53730 0.16470 0.80360 -0.18100
C 	C 	0.17560 0.10220 0.94180 0.34500
C 	C 	0.08150 0.15490 0.82960 -0.05000
C 	C 	0.96150 0.24860 0.84950 0.05700
H 	H 	0.93900 0.28000 0.93190 0.02800
C 	C 	0.91180 0.23890 0.63530 0.03500
H 	H 	0.85400 0.26720 0.56550 0.03600
C 	C 	0.02770 0.14290 0.61600 -0.01400
H 	H 	0.04760 0.10750 0.53440 0.06600
