data_crystal

_cell_length_a 16.64600
_cell_length_b 18.34500
_cell_length_c 16.30900
_cell_angle_alpha 90.00000
_cell_angle_beta  108.89300
_cell_angle_gamma 90.00000

_symmetry_space_group_name_	'P 1'
_symmetry_space_group_name_H-M	'P 1'

loop_
_symmetry_equiv_pos_as_xyz
  x,y,z

loop_
_atom_site_label
_atom_site_type_symbol
_atom_site_fract_x
_atom_site_fract_y
_atom_site_fract_z
_atom_site_charge
Zn	Zn	0.05950 0.13772 0.36451 1.23500
O 	O 	0.09690 0.09731 0.48120 -0.44900
O 	O 	0.22640 0.14091 0.50460 -0.48700
O 	O 	0.51050 0.26561 0.84970 -0.50500
O 	O 	0.62170 0.22480 0.94920 -0.49900
O 	O 	0.65870 0.95960 0.99500 -0.37800
H 	H 	0.68590 0.92150 0.00630 0.20500
O 	O 	0.55350 0.88390 0.92720 -0.24200
O 	O 	0.13580 0.90392 0.80850 -0.48300
O 	O 	0.04360 0.92300 0.67660 -0.48100
C 	C 	0.17450 0.10520 0.52740 0.38800
C 	C 	0.20150 0.06820 0.61410 -0.10900
C 	C 	0.28160 0.08200 0.67210 -0.00600
H 	H 	0.31740 0.11470 0.65740 0.03300
C 	C 	0.30920 0.04700 0.75330 0.00200
C 	C 	0.25360 0.99750 0.77410 -0.01100
H 	H 	0.27020 0.97400 0.82750 0.07300
C 	C 	0.17370 0.98420 0.71430 -0.10400
C 	C 	0.14880 0.01880 0.63420 0.04800
H 	H 	0.09610 0.00850 0.59400 0.05000
C 	C 	0.11280 0.93320 0.73530 0.41700
C 	C 	0.39740 0.05930 0.81260 0.00900
C 	C 	0.43380 0.12850 0.82400 0.00200
H 	H 	0.40330 0.16760 0.79270 0.04300
C 	C 	0.51510 0.14000 0.88130 -0.11000
C 	C 	0.56340 0.08110 0.92320 0.04100
H 	H 	0.61800 0.08840 0.96140 0.06000
C 	C 	0.53020 0.01140 0.90790 -0.07000
C 	C 	0.44730 0.00170 0.85530 -0.01700
H 	H 	0.42420 0.95500 0.84840 0.06700
C 	C 	0.55280 0.21560 0.89380 0.44800
C 	C 	0.58120 0.94550 0.94440 0.34800
Zn	Zn	0.55950 0.63772 0.36451 1.23400
O 	O 	0.59690 0.59731 0.48120 -0.45000
O 	O 	0.72640 0.64091 0.50460 -0.48800
O 	O 	0.01050 0.76561 0.84970 -0.50600
O 	O 	0.12170 0.72480 0.94920 -0.49900
O 	O 	0.15870 0.45960 0.99500 -0.37800
H 	H 	0.18590 0.42150 0.00630 0.20500
O 	O 	0.05350 0.38390 0.92720 -0.24200
O 	O 	0.63580 0.40392 0.80850 -0.48400
O 	O 	0.54360 0.42300 0.67660 -0.48100
C 	C 	0.67450 0.60520 0.52740 0.38900
C 	C 	0.70150 0.56820 0.61410 -0.10900
C 	C 	0.78160 0.58200 0.67210 -0.00600
H 	H 	0.81740 0.61470 0.65740 0.03300
C 	C 	0.80920 0.54700 0.75330 0.00200
C 	C 	0.75360 0.49750 0.77410 -0.01200
H 	H 	0.77020 0.47400 0.82750 0.07300
C 	C 	0.67370 0.48420 0.71430 -0.10400
C 	C 	0.64880 0.51880 0.63420 0.04900
H 	H 	0.59610 0.50850 0.59400 0.05000
C 	C 	0.61280 0.43320 0.73530 0.41700
C 	C 	0.89740 0.55930 0.81260 0.01000
C 	C 	0.93380 0.62850 0.82400 -0.00000
H 	H 	0.90330 0.66760 0.79270 0.04300
C 	C 	0.01510 0.64000 0.88130 -0.10800
C 	C 	0.06340 0.58110 0.92320 0.03900
H 	H 	0.11800 0.58840 0.96140 0.06100
C 	C 	0.03020 0.51140 0.90790 -0.06700
C 	C 	0.94730 0.50170 0.85530 -0.01800
H 	H 	0.92420 0.45500 0.84840 0.06600
C 	C 	0.05280 0.71560 0.89380 0.44700
C 	C 	0.08120 0.44550 0.94440 0.34700
Zn	Zn	0.94050 0.13772 0.13549 1.23200
O 	O 	0.90310 0.09731 0.01880 -0.50100
O 	O 	0.77360 0.14091 0.99540 -0.47900
O 	O 	0.48950 0.26561 0.65030 -0.51200
O 	O 	0.37830 0.22480 0.55080 -0.52200
O 	O 	0.34130 0.95960 0.50500 -0.47100
H 	H 	0.31410 0.92150 0.49370 0.28200
O 	O 	0.44650 0.88390 0.57280 -0.27000
O 	O 	0.86420 0.90392 0.69150 -0.49300
O 	O 	0.95640 0.92300 0.82340 -0.47900
C 	C 	0.82550 0.10520 0.97260 0.44700
C 	C 	0.79850 0.06820 0.88590 -0.12400
C 	C 	0.71840 0.08200 0.82790 0.00500
H 	H 	0.68260 0.11470 0.84260 0.03000
C 	C 	0.69080 0.04700 0.74670 -0.00400
C 	C 	0.74640 0.99750 0.72590 -0.00400
H 	H 	0.72980 0.97400 0.67250 0.06100
C 	C 	0.82630 0.98420 0.78570 -0.11100
C 	C 	0.85120 0.01880 0.86580 0.06300
H 	H 	0.90390 0.00850 0.90600 0.05600
C 	C 	0.88720 0.93320 0.76470 0.42200
C 	C 	0.60260 0.05930 0.68740 0.00100
C 	C 	0.56620 0.12850 0.67600 0.00600
H 	H 	0.59670 0.16760 0.70730 0.04000
C 	C 	0.48490 0.14000 0.61870 -0.12400
C 	C 	0.43660 0.08110 0.57680 0.05000
H 	H 	0.38200 0.08840 0.53860 0.05000
C 	C 	0.46980 0.01140 0.59210 -0.09100
C 	C 	0.55270 0.00170 0.64470 -0.01000
H 	H 	0.57580 0.95500 0.65160 0.05900
C 	C 	0.44720 0.21560 0.60620 0.45300
C 	C 	0.41880 0.94550 0.55560 0.37200
Zn	Zn	0.44050 0.63772 0.13549 1.23200
O 	O 	0.40310 0.59731 0.01880 -0.50600
O 	O 	0.27360 0.64091 0.99540 -0.47900
O 	O 	0.98950 0.76561 0.65030 -0.51300
O 	O 	0.87830 0.72480 0.55080 -0.52200
O 	O 	0.84130 0.45960 0.50500 -0.47000
H 	H 	0.81410 0.42150 0.49370 0.28200
O 	O 	0.94650 0.38390 0.57280 -0.27100
O 	O 	0.36420 0.40392 0.69150 -0.49200
O 	O 	0.45640 0.42300 0.82340 -0.47900
C 	C 	0.32550 0.60520 0.97260 0.45200
C 	C 	0.29850 0.56820 0.88590 -0.12500
C 	C 	0.21840 0.58200 0.82790 0.00600
H 	H 	0.18260 0.61470 0.84260 0.03000
C 	C 	0.19080 0.54700 0.74670 -0.00400
C 	C 	0.24640 0.49750 0.72590 -0.00400
H 	H 	0.22980 0.47400 0.67250 0.06100
C 	C 	0.32630 0.48420 0.78570 -0.11200
C 	C 	0.35120 0.51880 0.86580 0.06500
H 	H 	0.40390 0.50850 0.90600 0.05600
C 	C 	0.38720 0.43320 0.76470 0.42200
C 	C 	0.10260 0.55930 0.68740 0.00100
C 	C 	0.06620 0.62850 0.67600 0.00700
H 	H 	0.09670 0.66760 0.70730 0.04000
C 	C 	0.98490 0.64000 0.61870 -0.12500
C 	C 	0.93660 0.58110 0.57680 0.05100
H 	H 	0.88200 0.58840 0.53860 0.05000
C 	C 	0.96980 0.51140 0.59210 -0.09200
C 	C 	0.05270 0.50170 0.64470 -0.00900
H 	H 	0.07580 0.45500 0.65160 0.05800
C 	C 	0.94720 0.71560 0.60620 0.45400
C 	C 	0.91880 0.44550 0.55560 0.37300
Zn	Zn	0.94050 0.86228 0.63549 1.23400
O 	O 	0.90310 0.90269 0.51880 -0.45100
O 	O 	0.77360 0.85909 0.49540 -0.48800
O 	O 	0.48950 0.73439 0.15030 -0.51900
O 	O 	0.37830 0.77520 0.05080 -0.53800
O 	O 	0.34130 0.04040 0.00500 -0.55900
H 	H 	0.31410 0.07850 0.99370 0.35600
O 	O 	0.44650 0.11610 0.07280 -0.30100
O 	O 	0.86420 0.09608 0.19150 -0.50100
O 	O 	0.95640 0.07700 0.32340 -0.48300
C 	C 	0.82550 0.89480 0.47260 0.38900
C 	C 	0.79850 0.93180 0.38590 -0.11300
C 	C 	0.71840 0.91800 0.32790 -0.00500
H 	H 	0.68260 0.88530 0.34260 0.03300
C 	C 	0.69080 0.95300 0.24670 -0.00300
C 	C 	0.74640 0.00250 0.22590 -0.00600
H 	H 	0.72980 0.02600 0.17250 0.05200
C 	C 	0.82630 0.01580 0.28570 -0.11400
C 	C 	0.85120 0.98120 0.36580 0.05100
H 	H 	0.90390 0.99150 0.40600 0.04800
C 	C 	0.88720 0.06680 0.26470 0.42100
C 	C 	0.60260 0.94070 0.18740 -0.01100
C 	C 	0.56620 0.87150 0.17600 0.01300
H 	H 	0.59670 0.83240 0.20730 0.03400
C 	C 	0.48490 0.86000 0.11870 -0.13900
C 	C 	0.43660 0.91890 0.07680 0.06100
H 	H 	0.38200 0.91160 0.03860 0.04000
C 	C 	0.46980 0.98860 0.09210 -0.11600
C 	C 	0.55270 0.99830 0.14470 -0.00400
H 	H 	0.57580 0.04500 0.15160 0.05000
C 	C 	0.44720 0.78440 0.10620 0.45700
C 	C 	0.41880 0.05450 0.05560 0.39900
Zn	Zn	0.44050 0.36228 0.63549 1.23400
O 	O 	0.40310 0.40269 0.51880 -0.45100
O 	O 	0.27360 0.35909 0.49540 -0.48800
O 	O 	0.98950 0.23439 0.15030 -0.51700
O 	O 	0.87830 0.27520 0.05080 -0.53600
O 	O 	0.84130 0.54040 0.00500 -0.56000
H 	H 	0.81410 0.57850 0.99370 0.35700
O 	O 	0.94650 0.61610 0.07280 -0.30000
O 	O 	0.36420 0.59608 0.19150 -0.50200
O 	O 	0.45640 0.57700 0.32340 -0.48400
C 	C 	0.32550 0.39480 0.47260 0.38900
C 	C 	0.29850 0.43180 0.38590 -0.11300
C 	C 	0.21840 0.41800 0.32790 -0.00500
H 	H 	0.18260 0.38530 0.34260 0.03300
C 	C 	0.19080 0.45300 0.24670 -0.00300
C 	C 	0.24640 0.50250 0.22590 -0.00700
H 	H 	0.22980 0.52600 0.17250 0.05100
C 	C 	0.32630 0.51580 0.28570 -0.11500
C 	C 	0.35120 0.48120 0.36580 0.05300
H 	H 	0.40390 0.49150 0.40600 0.04800
C 	C 	0.38720 0.56680 0.26470 0.42100
C 	C 	0.10260 0.44070 0.18740 -0.00900
C 	C 	0.06620 0.37150 0.17600 0.01000
H 	H 	0.09670 0.33240 0.20730 0.03500
C 	C 	0.98490 0.36000 0.11870 -0.13600
C 	C 	0.93660 0.41890 0.07680 0.05800
H 	H 	0.88200 0.41160 0.03860 0.04200
C 	C 	0.96980 0.48860 0.09210 -0.11200
C 	C 	0.05270 0.49830 0.14470 -0.00400
H 	H 	0.07580 0.54500 0.15160 0.04800
C 	C 	0.94720 0.28440 0.10620 0.45600
C 	C 	0.91880 0.55450 0.05560 0.39700
Zn	Zn	0.05950 0.86228 0.86451 1.23600
O 	O 	0.09690 0.90269 0.98120 -0.39300
O 	O 	0.22640 0.85909 0.00460 -0.49000
O 	O 	0.51050 0.73439 0.34970 -0.51300
O 	O 	0.62170 0.77520 0.44920 -0.52200
O 	O 	0.65870 0.04040 0.49500 -0.47100
H 	H 	0.68590 0.07850 0.50630 0.28300
O 	O 	0.55350 0.11610 0.42720 -0.27300
O 	O 	0.13580 0.09608 0.30850 -0.49400
O 	O 	0.04360 0.07700 0.17660 -0.48700
C 	C 	0.17450 0.89480 0.02740 0.32200
C 	C 	0.20150 0.93180 0.11410 -0.09400
C 	C 	0.28160 0.91800 0.17210 -0.01900
H 	H 	0.31740 0.88530 0.15740 0.03800
C 	C 	0.30920 0.95300 0.25330 0.00500
C 	C 	0.25360 0.00250 0.27410 -0.01600
H 	H 	0.27020 0.02600 0.32750 0.06400
C 	C 	0.17370 0.01580 0.21430 -0.10400
C 	C 	0.14880 0.98120 0.13420 0.03300
H 	H 	0.09610 0.99150 0.09400 0.04200
C 	C 	0.11280 0.06680 0.23530 0.41600
C 	C 	0.39740 0.94070 0.31260 -0.00500
C 	C 	0.43380 0.87150 0.32400 0.01100
H 	H 	0.40330 0.83240 0.29270 0.03700
C 	C 	0.51510 0.86000 0.38130 -0.12700
C 	C 	0.56340 0.91890 0.42320 0.05300
H 	H 	0.61800 0.91160 0.46140 0.05000
C 	C 	0.53020 0.98860 0.40790 -0.09400
C 	C 	0.44730 0.99830 0.35530 -0.00700
H 	H 	0.42420 0.04500 0.34840 0.05600
C 	C 	0.55280 0.78440 0.39380 0.45400
C 	C 	0.58120 0.05450 0.44440 0.37400
Zn	Zn	0.55950 0.36228 0.86451 1.23600
O 	O 	0.59690 0.40269 0.98120 -0.39600
O 	O 	0.72640 0.35909 0.00460 -0.49000
O 	O 	0.01050 0.23439 0.34970 -0.51400
O 	O 	0.12170 0.27520 0.44920 -0.52200
O 	O 	0.15870 0.54040 0.49500 -0.47100
H 	H 	0.18590 0.57850 0.50630 0.28300
O 	O 	0.05350 0.61610 0.42720 -0.27400
O 	O 	0.63580 0.59608 0.30850 -0.49300
O 	O 	0.54360 0.57700 0.17660 -0.48700
C 	C 	0.67450 0.39480 0.02740 0.32500
C 	C 	0.70150 0.43180 0.11410 -0.09500
C 	C 	0.78160 0.41800 0.17210 -0.01900
H 	H 	0.81740 0.38530 0.15740 0.03800
C 	C 	0.80920 0.45300 0.25330 0.00700
C 	C 	0.75360 0.50250 0.27410 -0.01700
H 	H 	0.77020 0.52600 0.32750 0.06400
C 	C 	0.67370 0.51580 0.21430 -0.10600
C 	C 	0.64880 0.48120 0.13420 0.03600
H 	H 	0.59610 0.49150 0.09400 0.04200
C 	C 	0.61280 0.56680 0.23530 0.41600
C 	C 	0.89740 0.44070 0.31260 -0.00700
C 	C 	0.93380 0.37150 0.32400 0.01400
H 	H 	0.90330 0.33240 0.29270 0.03600
C 	C 	0.01510 0.36000 0.38130 -0.12900
C 	C 	0.06340 0.41890 0.42320 0.05500
H 	H 	0.11800 0.41160 0.46140 0.04900
C 	C 	0.03020 0.48860 0.40790 -0.09600
C 	C 	0.94730 0.49830 0.35530 -0.00200
H 	H 	0.92420 0.54500 0.34840 0.05400
C 	C 	0.05280 0.28440 0.39380 0.45500
C 	C 	0.08120 0.55450 0.44440 0.37500
Zn	Zn	0.25000 0.25000 0.50000 1.20500
Zn	Zn	0.75000 0.25000 -0.00000 1.19000
Zn	Zn	0.75000 0.75000 0.50000 1.20500
Zn	Zn	0.25000 0.75000 -0.00000 1.18900
