data_crystal

_cell_length_a 12.14500
_cell_length_b 30.72000
_cell_length_c 22.75000
_cell_angle_alpha 90.00000
_cell_angle_beta  94.00000
_cell_angle_gamma 90.00000

_symmetry_space_group_name_	'P 1'
_symmetry_space_group_name_H-M	'P 1'

loop_
_symmetry_equiv_pos_as_xyz
  x,y,z

loop_
_atom_site_label
_atom_site_type_symbol
_atom_site_fract_x
_atom_site_fract_y
_atom_site_fract_z
_atom_site_charge
Zn	Zn	0.31427 0.13252 0.48747 1.24300
Zn	Zn	0.25880 0.08310 0.34284 1.24300
O 	O 	0.26060 0.17288 0.42348 -0.47300
O 	O 	0.17560 0.13581 0.34893 -0.49400
O 	O 	0.15940 0.32299 0.45454 -0.45500
O 	O 	0.06910 0.36042 0.38530 -0.29100
O 	O 	0.22460 0.02983 0.38104 -0.46700
O 	O 	0.05230 0.03438 0.34154 -0.47500
O 	O 	0.76250 0.93940 0.42700 -0.27900
O 	O 	0.81630 0.90119 0.50493 -0.47100
O 	O 	0.12230 0.92340 0.72850 -0.40300
O 	O 	0.29790 0.92036 0.76138 -0.49200
O 	O 	0.58900 0.90365 0.62561 -0.49000
O 	O 	0.54600 0.89388 0.53066 -0.47700
C 	C 	0.19770 0.17015 0.37800 0.42000
C 	C 	0.14300 0.21065 0.35510 -0.13100
C 	C 	0.15130 0.24828 0.38870 0.05900
H 	H 	0.19020 0.24790 0.42540 0.04400
C 	C 	0.10190 0.28647 0.36790 -0.11200
C 	C 	0.04170 0.28636 0.31360 0.01800
H 	H 	0.00700 0.31180 0.30000 0.03600
C 	C 	0.03260 0.24882 0.27930 -0.06600
C 	C 	0.08310 0.21121 0.30080 0.02800
H 	H 	0.07690 0.18580 0.27860 0.03000
C 	C 	0.10970 0.32700 0.40450 0.37900
C 	C 	0.12250 0.01769 0.37660 0.38400
C 	C 	0.09080 0.98446 0.41900 -0.14600
C 	C 	0.98320 0.97038 0.41880 0.07400
H 	H 	0.93120 0.98020 0.38990 0.03300
C 	C 	0.95160 0.94147 0.46190 -0.05200
C 	C 	0.02850 0.92735 0.50540 -0.07200
H 	H 	0.00730 0.90830 0.53430 0.06300
C 	C 	0.13830 0.94165 0.50630 0.02100
C 	C 	0.16800 0.96951 0.46270 -0.00900
H 	H 	0.24100 0.97860 0.46230 0.05900
C 	C 	0.21860 0.92911 0.55540 -0.02300
C 	C 	0.18580 0.92970 0.61280 0.02900
H 	H 	0.11260 0.93550 0.61960 0.04000
C 	C 	0.26240 0.92160 0.66030 -0.15300
C 	C 	0.37310 0.91332 0.65010 0.08400
H 	H 	0.42490 0.90900 0.68160 0.04000
C 	C 	0.40470 0.91151 0.59240 -0.12900
C 	C 	0.32790 0.91904 0.54530 0.01600
H 	H 	0.34940 0.91740 0.50700 0.04900
C 	C 	0.83340 0.92630 0.46360 0.36300
C 	C 	0.22610 0.92450 0.72150 0.54400
C 	C 	0.52230 0.90234 0.58220 0.43300
O 	O 	0.16330 0.96070 0.72820 -0.32200
Zn	Zn	0.81427 0.63252 0.48747 1.24300
Zn	Zn	0.75880 0.58310 0.34284 1.24400
O 	O 	0.76060 0.67288 0.42348 -0.46800
O 	O 	0.67560 0.63581 0.34893 -0.48800
O 	O 	0.65940 0.82299 0.45454 -0.45000
O 	O 	0.56910 0.86042 0.38530 -0.28000
O 	O 	0.72460 0.52983 0.38104 -0.46100
O 	O 	0.55230 0.53438 0.34154 -0.45600
O 	O 	0.26250 0.43940 0.42700 -0.28700
O 	O 	0.31630 0.40119 0.50493 -0.48100
O 	O 	0.62230 0.42340 0.72850 -0.39400
O 	O 	0.79790 0.42036 0.76138 -0.48300
O 	O 	0.08900 0.40365 0.62561 -0.48900
O 	O 	0.04600 0.39388 0.53066 -0.47700
C 	C 	0.69770 0.67015 0.37800 0.41300
C 	C 	0.64300 0.71065 0.35510 -0.10400
C 	C 	0.65130 0.74828 0.38870 0.03900
H 	H 	0.69020 0.74790 0.42540 0.05300
C 	C 	0.60190 0.78647 0.36790 -0.08500
C 	C 	0.54170 0.78636 0.31360 -0.01900
H 	H 	0.50700 0.81180 0.30000 0.06000
C 	C 	0.53260 0.74882 0.27930 0.00400
C 	C 	0.58310 0.71121 0.30080 -0.00900
H 	H 	0.57690 0.68580 0.27860 0.05400
C 	C 	0.60970 0.82700 0.40450 0.37100
C 	C 	0.62250 0.51769 0.37660 0.37200
C 	C 	0.59080 0.48446 0.41900 -0.10100
C 	C 	0.48320 0.47038 0.41880 0.03200
H 	H 	0.43120 0.48020 0.38990 0.04000
C 	C 	0.45160 0.44147 0.46190 -0.08400
C 	C 	0.52850 0.42735 0.50540 -0.02100
H 	H 	0.50730 0.40830 0.53430 0.06000
C 	C 	0.63830 0.44165 0.50630 0.00900
C 	C 	0.66800 0.46951 0.46270 -0.01300
H 	H 	0.74100 0.47860 0.46230 0.06400
C 	C 	0.71860 0.42911 0.55540 0.00400
C 	C 	0.68580 0.42970 0.61280 0.00700
H 	H 	0.61260 0.43550 0.61960 0.05600
C 	C 	0.76240 0.42160 0.66030 -0.12600
C 	C 	0.87310 0.41332 0.65010 0.05300
H 	H 	0.92490 0.40900 0.68160 0.06100
C 	C 	0.90470 0.41151 0.59240 -0.07200
C 	C 	0.82790 0.41904 0.54530 -0.01500
H 	H 	0.84940 0.41740 0.50700 0.07000
C 	C 	0.33340 0.42630 0.46360 0.37000
C 	C 	0.72610 0.42450 0.72150 0.53200
C 	C 	0.02230 0.40234 0.58220 0.38900
O 	O 	0.66330 0.46070 0.72820 -0.31600
Zn	Zn	0.68573 0.13252 0.01253 1.24200
Zn	Zn	0.74120 0.08310 0.15716 1.24300
O 	O 	0.73940 0.17288 0.07652 -0.46700
O 	O 	0.82440 0.13581 0.15107 -0.48200
O 	O 	0.84060 0.32299 0.04546 -0.44500
O 	O 	0.93090 0.36042 0.11470 -0.26800
O 	O 	0.77540 0.02983 0.11896 -0.45900
O 	O 	0.94770 0.03438 0.15846 -0.43300
O 	O 	0.23750 0.93940 0.07300 -0.28600
O 	O 	0.18370 0.90119 0.99507 -0.49000
O 	O 	0.87770 0.92340 0.77150 -0.38300
O 	O 	0.70210 0.92036 0.73862 -0.48800
O 	O 	0.41100 0.90365 0.87439 -0.49000
O 	O 	0.45400 0.89388 0.96934 -0.47600
C 	C 	0.80230 0.17015 0.12200 0.40500
C 	C 	0.85700 0.21065 0.14490 -0.07900
C 	C 	0.84870 0.24828 0.11130 0.01800
H 	H 	0.80980 0.24790 0.07460 0.06100
C 	C 	0.89810 0.28647 0.13210 -0.05900
C 	C 	0.95830 0.28636 0.18640 -0.05600
H 	H 	0.99300 0.31180 0.20000 0.08500
C 	C 	0.96740 0.24882 0.22070 0.07300
C 	C 	0.91690 0.21121 0.19920 -0.04600
H 	H 	0.92310 0.18580 0.22140 0.07600
C 	C 	0.89030 0.32700 0.09550 0.36200
C 	C 	0.87750 0.01769 0.12340 0.35800
C 	C 	0.90920 0.98446 0.08100 -0.05400
C 	C 	0.01680 0.97038 0.08120 -0.01600
H 	H 	0.06880 0.98020 0.11010 0.05000
C 	C 	0.04840 0.94147 0.03810 -0.10900
C 	C 	0.97150 0.92735 0.99460 0.01900
H 	H 	0.99270 0.90830 0.96570 0.05900
C 	C 	0.86170 0.94165 0.99370 0.00800
C 	C 	0.83200 0.96951 0.03730 -0.02400
H 	H 	0.75900 0.97860 0.03770 0.06600
C 	C 	0.78140 0.92911 0.94460 -0.00500
C 	C 	0.81420 0.92970 0.88720 0.01500
H 	H 	0.88740 0.93550 0.88040 0.06000
C 	C 	0.73760 0.92160 0.83970 -0.13600
C 	C 	0.62690 0.91332 0.84990 0.07500
H 	H 	0.57510 0.90900 0.81840 0.04300
C 	C 	0.59530 0.91151 0.90760 -0.12100
C 	C 	0.67210 0.91904 0.95470 0.00700
H 	H 	0.65060 0.91740 0.99300 0.05500
C 	C 	0.16660 0.92630 0.03640 0.37500
C 	C 	0.77390 0.92450 0.77850 0.53300
C 	C 	0.47770 0.90234 0.91780 0.43100
O 	O 	0.83670 0.96070 0.77180 -0.31100
Zn	Zn	0.18573 0.63252 0.01253 1.24100
Zn	Zn	0.24120 0.58310 0.15716 1.24200
O 	O 	0.23940 0.67288 0.07652 -0.47300
O 	O 	0.32440 0.63581 0.15107 -0.48900
O 	O 	0.34060 0.82299 0.04546 -0.45100
O 	O 	0.43090 0.86042 0.11470 -0.27900
O 	O 	0.27540 0.52983 0.11896 -0.46700
O 	O 	0.44770 0.53438 0.15846 -0.45600
O 	O 	0.73750 0.43940 0.07300 -0.27900
O 	O 	0.68370 0.40119 0.99507 -0.48200
O 	O 	0.37770 0.42340 0.77150 -0.39700
O 	O 	0.20210 0.42036 0.73862 -0.49900
O 	O 	0.91100 0.40365 0.87439 -0.49200
O 	O 	0.95400 0.39388 0.96934 -0.47700
C 	C 	0.30230 0.67015 0.12200 0.41200
C 	C 	0.35700 0.71065 0.14490 -0.10700
C 	C 	0.34870 0.74828 0.11130 0.03800
H 	H 	0.30980 0.74790 0.07460 0.05100
C 	C 	0.39810 0.78647 0.13210 -0.08600
C 	C 	0.45830 0.78636 0.18640 -0.01900
H 	H 	0.49300 0.81180 0.20000 0.06200
C 	C 	0.46740 0.74882 0.22070 0.00300
C 	C 	0.41690 0.71121 0.19920 -0.00900
H 	H 	0.42310 0.68580 0.22140 0.05200
C 	C 	0.39030 0.82700 0.09550 0.37000
C 	C 	0.37750 0.51769 0.12340 0.37100
C 	C 	0.40920 0.48446 0.08100 -0.10000
C 	C 	0.51680 0.47038 0.08120 0.02800
H 	H 	0.56880 0.48020 0.11010 0.04200
C 	C 	0.54840 0.44147 0.03810 -0.07800
C 	C 	0.47150 0.42735 0.99460 -0.03200
H 	H 	0.49270 0.40830 0.96570 0.06200
C 	C 	0.36170 0.44165 0.99370 0.02100
C 	C 	0.33200 0.46951 0.03730 -0.02000
H 	H 	0.25900 0.47860 0.03770 0.06100
C 	C 	0.28140 0.42911 0.94460 -0.03200
C 	C 	0.31420 0.42970 0.88720 0.03700
H 	H 	0.38740 0.43550 0.88040 0.04500
C 	C 	0.23760 0.42160 0.83970 -0.16400
C 	C 	0.12690 0.41332 0.84990 0.10600
H 	H 	0.07510 0.40900 0.81840 0.02200
C 	C 	0.09530 0.41151 0.90760 -0.17700
C 	C 	0.17210 0.41904 0.95470 0.03800
H 	H 	0.15060 0.41740 0.99300 0.03400
C 	C 	0.66660 0.42630 0.03640 0.36900
C 	C 	0.27390 0.42450 0.77850 0.54700
C 	C 	0.97770 0.40234 0.91780 0.47300
O 	O 	0.33670 0.46070 0.77180 -0.32100
Zn	Zn	0.68573 0.86748 0.51253 1.24200
Zn	Zn	0.74120 0.91690 0.65716 1.24300
O 	O 	0.73940 0.82712 0.57652 -0.46800
O 	O 	0.82440 0.86419 0.65107 -0.48200
O 	O 	0.84060 0.67701 0.54546 -0.44600
O 	O 	0.93090 0.63958 0.61470 -0.26800
O 	O 	0.77540 0.97017 0.61896 -0.45900
O 	O 	0.94770 0.96562 0.65846 -0.43300
O 	O 	0.23750 0.06060 0.57300 -0.28700
O 	O 	0.18370 0.09881 0.49507 -0.48900
O 	O 	0.87770 0.07660 0.27150 -0.38200
O 	O 	0.70210 0.07964 0.23862 -0.48800
O 	O 	0.41100 0.09635 0.37439 -0.49000
O 	O 	0.45400 0.10612 0.46934 -0.47600
C 	C 	0.80230 0.82985 0.62200 0.40600
C 	C 	0.85700 0.78935 0.64490 -0.08000
C 	C 	0.84870 0.75172 0.61130 0.01800
H 	H 	0.80980 0.75210 0.57460 0.06000
C 	C 	0.89810 0.71353 0.63210 -0.06000
C 	C 	0.95830 0.71364 0.68640 -0.05500
H 	H 	0.99300 0.68820 0.70000 0.08500
C 	C 	0.96740 0.75118 0.72070 0.07200
C 	C 	0.91690 0.78879 0.69920 -0.04500
H 	H 	0.92310 0.81420 0.72140 0.07500
C 	C 	0.89030 0.67300 0.59550 0.36200
C 	C 	0.87750 0.98231 0.62340 0.35800
C 	C 	0.90920 0.01554 0.58100 -0.05500
C 	C 	0.01680 0.02962 0.58120 -0.01500
H 	H 	0.06880 0.01980 0.61010 0.04900
C 	C 	0.04840 0.05853 0.53810 -0.11100
C 	C 	0.97150 0.07265 0.49460 0.02100
H 	H 	0.99270 0.09170 0.46570 0.05900
C 	C 	0.86170 0.05835 0.49370 0.01000
C 	C 	0.83200 0.03049 0.53730 -0.02700
H 	H 	0.75900 0.02140 0.53770 0.06600
C 	C 	0.78140 0.07089 0.44460 -0.00500
C 	C 	0.81420 0.07030 0.38720 0.01500
H 	H 	0.88740 0.06450 0.38040 0.06100
C 	C 	0.73760 0.07840 0.33970 -0.13600
C 	C 	0.62690 0.08668 0.34990 0.07500
H 	H 	0.57510 0.09100 0.31840 0.04300
C 	C 	0.59530 0.08849 0.40760 -0.12000
C 	C 	0.67210 0.08096 0.45470 0.00700
H 	H 	0.65060 0.08260 0.49300 0.05500
C 	C 	0.16660 0.07370 0.53640 0.37500
C 	C 	0.77390 0.07550 0.27850 0.53200
C 	C 	0.47770 0.09766 0.41780 0.43100
O 	O 	0.83670 0.03930 0.27180 -0.31100
Zn	Zn	0.18573 0.36748 0.51253 1.24100
Zn	Zn	0.24120 0.41690 0.65716 1.24200
O 	O 	0.23940 0.32712 0.57652 -0.47300
O 	O 	0.32440 0.36419 0.65107 -0.49000
O 	O 	0.34060 0.17701 0.54546 -0.45200
O 	O 	0.43090 0.13958 0.61470 -0.28000
O 	O 	0.27540 0.47017 0.61896 -0.46700
O 	O 	0.44770 0.46562 0.65846 -0.45600
O 	O 	0.73750 0.56060 0.57300 -0.27900
O 	O 	0.68370 0.59881 0.49507 -0.48000
O 	O 	0.37770 0.57660 0.27150 -0.39700
O 	O 	0.20210 0.57964 0.23862 -0.49900
O 	O 	0.91100 0.59635 0.37439 -0.49200
O 	O 	0.95400 0.60612 0.46934 -0.47700
C 	C 	0.30230 0.32985 0.62200 0.41200
C 	C 	0.35700 0.28935 0.64490 -0.10700
C 	C 	0.34870 0.25172 0.61130 0.03800
H 	H 	0.30980 0.25210 0.57460 0.05100
C 	C 	0.39810 0.21353 0.63210 -0.08600
C 	C 	0.45830 0.21364 0.68640 -0.01900
H 	H 	0.49300 0.18820 0.70000 0.06100
C 	C 	0.46740 0.25118 0.72070 0.00300
C 	C 	0.41690 0.28879 0.69920 -0.00900
H 	H 	0.42310 0.31420 0.72140 0.05200
C 	C 	0.39030 0.17300 0.59550 0.37100
C 	C 	0.37750 0.48231 0.62340 0.37100
C 	C 	0.40920 0.51554 0.58100 -0.10000
C 	C 	0.51680 0.52962 0.58120 0.02700
H 	H 	0.56880 0.51980 0.61010 0.04200
C 	C 	0.54840 0.55853 0.53810 -0.07900
C 	C 	0.47150 0.57265 0.49460 -0.03000
H 	H 	0.49270 0.59170 0.46570 0.06200
C 	C 	0.36170 0.55835 0.49370 0.02200
C 	C 	0.33200 0.53049 0.53730 -0.02200
H 	H 	0.25900 0.52140 0.53770 0.06100
C 	C 	0.28140 0.57089 0.44460 -0.03300
C 	C 	0.31420 0.57030 0.38720 0.03800
H 	H 	0.38740 0.56450 0.38040 0.04500
C 	C 	0.23760 0.57840 0.33970 -0.16400
C 	C 	0.12690 0.58668 0.34990 0.10700
H 	H 	0.07510 0.59100 0.31840 0.02100
C 	C 	0.09530 0.58849 0.40760 -0.17900
C 	C 	0.17210 0.58096 0.45470 0.03900
H 	H 	0.15060 0.58260 0.49300 0.03400
C 	C 	0.66660 0.57370 0.53640 0.36700
C 	C 	0.27390 0.57550 0.27850 0.54700
C 	C 	0.97770 0.59766 0.41780 0.47500
O 	O 	0.33670 0.53930 0.27180 -0.32100
Zn	Zn	0.31427 0.86748 0.98747 1.24200
Zn	Zn	0.25880 0.91690 0.84284 1.24200
O 	O 	0.26060 0.82712 0.92348 -0.47400
O 	O 	0.17560 0.86419 0.84893 -0.49500
O 	O 	0.15940 0.67701 0.95454 -0.45700
O 	O 	0.06910 0.63958 0.88530 -0.29200
O 	O 	0.22460 0.97017 0.88104 -0.46800
O 	O 	0.05230 0.96562 0.84154 -0.47500
O 	O 	0.76250 0.06060 0.92700 -0.28000
O 	O 	0.81630 0.09881 0.00493 -0.47100
O 	O 	0.12230 0.07660 0.22850 -0.40500
O 	O 	0.29790 0.07964 0.26138 -0.49300
O 	O 	0.58900 0.09635 0.12561 -0.49100
O 	O 	0.54600 0.10612 0.03066 -0.47800
C 	C 	0.19770 0.82985 0.87800 0.42000
C 	C 	0.14300 0.78935 0.85510 -0.13100
C 	C 	0.15130 0.75172 0.88870 0.05900
H 	H 	0.19020 0.75210 0.92540 0.04400
C 	C 	0.10190 0.71353 0.86790 -0.11200
C 	C 	0.04170 0.71364 0.81360 0.01700
H 	H 	0.00700 0.68820 0.80000 0.03700
C 	C 	0.03260 0.75118 0.77930 -0.06500
C 	C 	0.08310 0.78879 0.80080 0.02800
H 	H 	0.07690 0.81420 0.77860 0.03100
C 	C 	0.10970 0.67300 0.90450 0.37900
C 	C 	0.12250 0.98231 0.87660 0.38300
C 	C 	0.09080 0.01554 0.91900 -0.14400
C 	C 	0.98320 0.02962 0.91880 0.07300
H 	H 	0.93120 0.01980 0.88990 0.03400
C 	C 	0.95160 0.05853 0.96190 -0.05300
C 	C 	0.02850 0.07265 0.00540 -0.07100
H 	H 	0.00730 0.09170 0.03430 0.06300
C 	C 	0.13830 0.05835 0.00630 0.02200
C 	C 	0.16800 0.03049 0.96270 -0.01000
H 	H 	0.24100 0.02140 0.96230 0.05900
C 	C 	0.21860 0.07089 0.05540 -0.02300
C 	C 	0.18580 0.07030 0.11280 0.02900
H 	H 	0.11260 0.06450 0.11960 0.04000
C 	C 	0.26240 0.07840 0.16030 -0.15300
C 	C 	0.37310 0.08668 0.15010 0.08400
H 	H 	0.42490 0.09100 0.18160 0.04000
C 	C 	0.40470 0.08849 0.09240 -0.12900
C 	C 	0.32790 0.08096 0.04530 0.01600
H 	H 	0.34940 0.08260 0.00700 0.05000
C 	C 	0.83340 0.07370 0.96360 0.36100
C 	C 	0.22610 0.07550 0.22150 0.54400
C 	C 	0.52230 0.09766 0.08220 0.43300
O 	O 	0.16330 0.03930 0.22820 -0.32200
Zn	Zn	0.81427 0.36748 0.98747 1.24200
Zn	Zn	0.75880 0.41690 0.84284 1.24300
O 	O 	0.76060 0.32712 0.92348 -0.46900
O 	O 	0.67560 0.36419 0.84893 -0.48800
O 	O 	0.65940 0.17701 0.95454 -0.45100
O 	O 	0.56910 0.13958 0.88530 -0.28000
O 	O 	0.72460 0.47017 0.88104 -0.46100
O 	O 	0.55230 0.46562 0.84154 -0.45600
O 	O 	0.26250 0.56060 0.92700 -0.28700
O 	O 	0.31630 0.59881 0.00493 -0.48000
O 	O 	0.62230 0.57660 0.22850 -0.39400
O 	O 	0.79790 0.57964 0.26138 -0.48200
O 	O 	0.08900 0.59635 0.12561 -0.48900
O 	O 	0.04600 0.60612 0.03066 -0.47700
C 	C 	0.69770 0.32985 0.87800 0.41300
C 	C 	0.64300 0.28935 0.85510 -0.10400
C 	C 	0.65130 0.25172 0.88870 0.03900
H 	H 	0.69020 0.25210 0.92540 0.05300
C 	C 	0.60190 0.21353 0.86790 -0.08500
C 	C 	0.54170 0.21364 0.81360 -0.01900
H 	H 	0.50700 0.18820 0.80000 0.06000
C 	C 	0.53260 0.25118 0.77930 0.00400
C 	C 	0.58310 0.28879 0.80080 -0.00800
H 	H 	0.57690 0.31420 0.77860 0.05400
C 	C 	0.60970 0.17300 0.90450 0.37100
C 	C 	0.62250 0.48231 0.87660 0.37200
C 	C 	0.59080 0.51554 0.91900 -0.10100
C 	C 	0.48320 0.52962 0.91880 0.03200
H 	H 	0.43120 0.51980 0.88990 0.04000
C 	C 	0.45160 0.55853 0.96190 -0.08500
C 	C 	0.52850 0.57265 0.00540 -0.01900
H 	H 	0.50730 0.59170 0.03430 0.06000
C 	C 	0.63830 0.55835 0.00630 0.01100
C 	C 	0.66800 0.53049 0.96270 -0.01600
H 	H 	0.74100 0.52140 0.96230 0.06400
C 	C 	0.71860 0.57089 0.05540 0.00400
C 	C 	0.68580 0.57030 0.11280 0.00700
H 	H 	0.61260 0.56450 0.11960 0.05600
C 	C 	0.76240 0.57840 0.16030 -0.12600
C 	C 	0.87310 0.58668 0.15010 0.05300
H 	H 	0.92490 0.59100 0.18160 0.06100
C 	C 	0.90470 0.58849 0.09240 -0.07100
C 	C 	0.82790 0.58096 0.04530 -0.01500
H 	H 	0.84940 0.58260 0.00700 0.07100
C 	C 	0.33340 0.57370 0.96360 0.36900
C 	C 	0.72610 0.57550 0.22150 0.53200
C 	C 	0.02230 0.59766 0.08220 0.38900
O 	O 	0.66330 0.53930 0.22820 -0.31600
Zn	Zn	-0.00000 0.03794 0.25000 1.22500
Zn	Zn	0.50000 0.53794 0.25000 1.23600
Zn	Zn	-0.00000 0.96206 0.75000 1.22600
Zn	Zn	0.50000 0.46206 0.75000 1.23600
