data_crystal

_cell_length_a 9.64160
_cell_length_b 10.97300
_cell_length_c 15.99700
_cell_angle_alpha 109.52000
_cell_angle_beta  91.56000
_cell_angle_gamma 109.61000

_symmetry_space_group_name_	'P 1'
_symmetry_space_group_name_H-M	'P 1'

loop_
_symmetry_equiv_pos_as_xyz
  x,y,z

loop_
_atom_site_label
_atom_site_type_symbol
_atom_site_fract_x
_atom_site_fract_y
_atom_site_fract_z
_atom_site_charge
U 	U 	0.10097 0.29971 0.37978 0.00600
U 	U 	0.85495 0.82900 0.99680 0.02000
O 	O 	0.14500 0.09110 0.28580 -0.20000
O 	O 	0.03790 0.08000 0.40300 -0.20200
C 	C 	0.08860 0.02420 0.33300 0.24500
C 	C 	0.08450 0.87980 0.31240 0.03500
C 	C 	0.09380 0.80220 0.22640 -0.17200
H 	H 	0.10330 0.84200 0.18290 0.12000
C 	C 	0.08970 0.66770 0.20220 0.20900
C 	C 	0.07420 0.60680 0.26740 -0.17500
H 	H 	0.06500 0.51470 0.25240 0.12500
C 	C 	0.07280 0.68790 0.35540 0.04700
C 	C 	0.07350 0.82110 0.37930 -0.09400
H 	H 	0.06680 0.87080 0.43790 0.09300
C 	C 	0.07100 0.62680 0.43040 0.26700
O 	O 	0.03230 0.68370 0.49970 -0.18500
O 	O 	0.10370 0.52270 0.41360 -0.18500
N 	N 	0.08900 0.58840 0.11420 -0.33800
H 	H 	0.09120 0.62270 0.07290 0.17400
H 	H 	0.08640 0.50490 0.10070 0.18400
O 	O 	0.67680 0.65580 0.04730 -0.19400
O 	O 	0.80170 0.85790 0.14910 -0.20500
C 	C 	0.70760 0.73750 0.12830 0.25200
C 	C 	0.62650 0.69720 0.19810 0.04300
C 	C 	0.68460 0.77620 0.28490 -0.17000
H 	H 	0.76970 0.85590 0.29910 0.11800
C 	C 	0.61600 0.73800 0.35480 0.20900
C 	C 	0.48740 0.62020 0.33080 -0.17500
H 	H 	0.43920 0.59440 0.37520 0.12500
C 	C 	0.42980 0.53980 0.24040 0.04700
C 	C 	0.50000 0.57860 0.17440 -0.09700
H 	H 	0.46220 0.52520 0.11420 0.10800
C 	C 	0.29010 0.41130 0.21600 0.25600
O 	O 	0.22450 0.36050 0.13890 -0.20600
O 	O 	0.24370 0.36790 0.27700 -0.18600
N 	N 	0.67840 0.81680 0.44280 -0.33800
H 	H 	0.63780 0.79360 0.48510 0.18400
H 	H 	0.75830 0.88940 0.45560 0.18200
O 	O 	0.00230 0.94390 0.91360 -0.58900
H 	H 	0.04710 0.91050 0.87810 0.33500
H 	H 	0.95020 0.94360 0.87370 0.32900
U 	U 	0.89903 0.70029 0.62022 0.00500
U 	U 	0.14505 0.17100 0.00320 0.01900
O 	O 	0.85500 0.90890 0.71420 -0.20100
O 	O 	0.96210 0.92000 0.59700 -0.20300
C 	C 	0.91140 0.97580 0.66700 0.24500
C 	C 	0.91550 0.12020 0.68760 0.03500
C 	C 	0.90620 0.19780 0.77360 -0.17200
H 	H 	0.89670 0.15800 0.81710 0.12000
C 	C 	0.91030 0.33230 0.79780 0.20900
C 	C 	0.92580 0.39320 0.73260 -0.17500
H 	H 	0.93500 0.48530 0.74760 0.12500
C 	C 	0.92720 0.31210 0.64460 0.04700
C 	C 	0.92650 0.17890 0.62070 -0.09400
H 	H 	0.93320 0.12920 0.56210 0.09300
C 	C 	0.92900 0.37320 0.56960 0.26700
O 	O 	0.96770 0.31630 0.50030 -0.18500
O 	O 	0.89630 0.47730 0.58640 -0.18500
N 	N 	0.91100 0.41160 0.88580 -0.33800
H 	H 	0.90880 0.37730 0.92710 0.17400
H 	H 	0.91360 0.49510 0.89930 0.18400
O 	O 	0.32320 0.34420 0.95270 -0.19400
O 	O 	0.19830 0.14210 0.85090 -0.20500
C 	C 	0.29240 0.26250 0.87170 0.25200
C 	C 	0.37350 0.30280 0.80190 0.04300
C 	C 	0.31540 0.22380 0.71510 -0.17000
H 	H 	0.23030 0.14410 0.70090 0.11800
C 	C 	0.38400 0.26200 0.64520 0.20900
C 	C 	0.51260 0.37980 0.66920 -0.17500
H 	H 	0.56080 0.40560 0.62480 0.12500
C 	C 	0.57020 0.46020 0.75960 0.04700
C 	C 	0.50000 0.42140 0.82560 -0.09700
H 	H 	0.53780 0.47480 0.88580 0.10800
C 	C 	0.70990 0.58870 0.78400 0.25600
O 	O 	0.77550 0.63950 0.86110 -0.20600
O 	O 	0.75630 0.63210 0.72300 -0.18600
N 	N 	0.32160 0.18320 0.55720 -0.33800
H 	H 	0.36220 0.20640 0.51490 0.18400
H 	H 	0.24170 0.11060 0.54440 0.18200
O 	O 	0.99770 0.05610 0.08640 -0.58900
H 	H 	0.95290 0.08950 0.12190 0.33500
H 	H 	0.04980 0.05640 0.12630 0.32900
