data_crystal

_cell_length_a 9.66550
_cell_length_b 11.00200
_cell_length_c 15.30400
_cell_angle_alpha 108.95000
_cell_angle_beta  95.14000
_cell_angle_gamma 109.32000

_symmetry_space_group_name_	'P 1'
_symmetry_space_group_name_H-M	'P 1'

loop_
_symmetry_equiv_pos_as_xyz
  x,y,z

loop_
_atom_site_label
_atom_site_type_symbol
_atom_site_fract_x
_atom_site_fract_y
_atom_site_fract_z
_atom_site_charge
U 	U 	0.88670 0.18904 0.11375 0.02700
U 	U 	0.14972 0.66407 0.49976 -0.00100
O 	O 	0.82560 0.38570 0.20530 -0.18600
O 	O 	0.93930 0.40760 0.08920 -0.18000
C 	C 	0.88360 0.45830 0.15760 0.26900
C 	C 	0.88510 0.60060 0.18320 -0.03900
C 	C 	0.90870 0.66680 0.11900 -0.01000
H 	H 	0.92440 0.62150 0.06020 0.08100
C 	C 	0.90910 0.79810 0.14200 -0.03500
C 	C 	0.88700 0.86520 0.23000 -0.01100
H 	H 	0.88310 0.95280 0.24480 0.07500
C 	C 	0.87100 0.80450 0.29540 -0.04000
H 	H 	0.86440 0.85350 0.35620 0.07600
C 	C 	0.86320 0.66700 0.26990 -0.00100
H 	H 	0.84360 0.62180 0.31190 0.06700
C 	C 	0.93050 0.86890 0.07340 0.28400
O 	O 	0.90400 0.97530 0.08840 -0.17300
O 	O 	0.97260 0.81770 0.00050 -0.16100
O 	O 	0.97640 0.44200 0.40660 -0.47900
H 	H 	0.00000 0.42000 0.35400 0.28500
H 	H 	0.89600 0.46000 0.40300 0.30800
O 	O 	0.17600 0.63020 0.33620 -0.21900
O 	O 	0.32530 0.82830 0.44520 -0.20000
C 	C 	0.67850 0.07960 0.27290 0.30400
C 	C 	0.55150 0.94650 0.24620 -0.06800
C 	C 	0.48050 0.90950 0.31390 0.01000
H 	H 	0.51580 0.96830 0.37740 0.07500
C 	C 	0.35790 0.78610 0.28770 -0.06100
C 	C 	0.29990 0.70180 0.19230 0.00200
H 	H 	0.21580 0.61980 0.17440 0.05600
C 	C 	0.36700 0.73970 0.12430 -0.05800
H 	H 	0.32860 0.68270 0.06060 0.07400
C 	C 	0.49230 0.86370 0.15100 0.00500
H 	H 	0.53600 0.89060 0.10510 0.06400
C 	C 	0.28120 0.74780 0.36020 0.29000
O 	O 	0.74630 0.11280 0.21320 -0.18500
O 	O 	0.72400 0.15700 0.35550 -0.19400
U 	U 	0.11330 0.81096 0.88625 0.00400
U 	U 	0.85028 0.33593 0.50024 0.02000
O 	O 	0.17440 0.61430 0.79470 -0.19800
O 	O 	0.06070 0.59240 0.91080 -0.20800
C 	C 	0.11640 0.54170 0.84240 0.27100
C 	C 	0.11490 0.39940 0.81680 -0.05900
C 	C 	0.09130 0.33320 0.88100 -0.00200
H 	H 	0.07560 0.37850 0.93980 0.06600
C 	C 	0.09090 0.20190 0.85800 -0.05400
C 	C 	0.11300 0.13480 0.77000 -0.00500
H 	H 	0.11690 0.04720 0.75520 0.06800
C 	C 	0.12900 0.19550 0.70460 -0.05600
H 	H 	0.13560 0.14650 0.64380 0.07000
C 	C 	0.13680 0.33300 0.73010 0.00300
H 	H 	0.15640 0.37820 0.68810 0.05400
C 	C 	0.06950 0.13110 0.92660 0.28900
O 	O 	0.09600 0.02470 0.91160 -0.18600
O 	O 	0.02740 0.18230 0.99950 -0.19200
O 	O 	0.02360 0.55800 0.59340 -0.57700
H 	H 	0.00000 0.58000 0.64600 0.33900
H 	H 	0.10400 0.54000 0.59700 0.32600
O 	O 	0.82400 0.36980 0.66380 -0.19100
O 	O 	0.67470 0.17170 0.55480 -0.19000
C 	C 	0.32150 0.92040 0.72710 0.29000
C 	C 	0.44850 0.05350 0.75380 -0.04500
C 	C 	0.51950 0.09050 0.68610 -0.00400
H 	H 	0.48420 0.03170 0.62260 0.08300
C 	C 	0.64210 0.21390 0.71230 -0.04000
C 	C 	0.70010 0.29820 0.80770 -0.01000
H 	H 	0.78420 0.38020 0.82560 0.07900
C 	C 	0.63300 0.26030 0.87570 -0.03500
H 	H 	0.67140 0.31730 0.93940 0.07500
C 	C 	0.50770 0.13630 0.84900 -0.00800
H 	H 	0.46400 0.10940 0.89490 0.07400
C 	C 	0.71880 0.25220 0.63980 0.28500
O 	O 	0.25370 0.88720 0.78680 -0.18900
O 	O 	0.27600 0.84300 0.64450 -0.19800
