data_crystal

_cell_length_a 19.70300
_cell_length_b 9.51970
_cell_length_c 20.12700
_cell_angle_alpha 90.00000
_cell_angle_beta  106.26000
_cell_angle_gamma 90.00000

_symmetry_space_group_name_	'P 1'
_symmetry_space_group_name_H-M	'P 1'

loop_
_symmetry_equiv_pos_as_xyz
  x,y,z

loop_
_atom_site_label
_atom_site_type_symbol
_atom_site_fract_x
_atom_site_fract_y
_atom_site_fract_z
_atom_site_charge
U 	U 	0.10488 0.63492 0.11128 0.00400
O 	O 	0.09320 0.62000 0.21920 -0.15800
C 	C 	0.11790 0.53820 0.27610 0.21100
C 	C 	0.18020 0.46460 0.29020 -0.14700
H 	H 	0.20630 0.46580 0.25830 0.12900
C 	C 	0.20540 0.38770 0.35160 0.02100
C 	C 	0.16530 0.38330 0.39840 -0.04300
H 	H 	0.18090 0.33120 0.43890 0.06900
C 	C 	0.10140 0.45730 0.38450 -0.01700
C 	C 	0.07770 0.53040 0.32390 -0.12700
H 	H 	0.03420 0.57580 0.31400 0.12400
C 	C 	0.26990 0.30100 0.36340 0.26100
C 	C 	0.05650 0.44770 0.43360 0.36500
O 	O 	0.29680 0.27050 0.31520 -0.17900
O 	O 	0.30010 0.25780 0.42420 -0.20600
O 	O 	0.08200 0.39140 0.49120 -0.40400
H 	H 	0.12300 0.35400 0.50000 0.27000
O 	O 	0.99550 0.49450 0.41490 -0.19100
U 	U 	0.60488 0.13492 0.11128 0.00400
O 	O 	0.59320 0.12000 0.21920 -0.15800
C 	C 	0.61790 0.03820 0.27610 0.21100
C 	C 	0.68020 0.96460 0.29020 -0.14400
H 	H 	0.70630 0.96580 0.25830 0.13000
C 	C 	0.70540 0.88770 0.35160 0.02100
C 	C 	0.66530 0.88330 0.39840 -0.04400
H 	H 	0.68090 0.83120 0.43890 0.06900
C 	C 	0.60140 0.95730 0.38450 -0.01400
C 	C 	0.57770 0.03040 0.32390 -0.12900
H 	H 	0.53420 0.07580 0.31400 0.12400
C 	C 	0.76990 0.80100 0.36340 0.26100
C 	C 	0.55650 0.94770 0.43360 0.36100
O 	O 	0.79680 0.77050 0.31520 -0.17900
O 	O 	0.80010 0.75780 0.42420 -0.20600
O 	O 	0.58200 0.89140 0.49120 -0.40200
H 	H 	0.62300 0.85400 0.50000 0.27000
O 	O 	0.49550 0.99450 0.41490 -0.18800
U 	U 	0.89512 0.63492 0.38872 0.01300
O 	O 	0.90680 0.62000 0.28080 -0.15700
C 	C 	0.88210 0.53820 0.22390 0.21000
C 	C 	0.81980 0.46460 0.20980 -0.14400
H 	H 	0.79370 0.46580 0.24170 0.13000
C 	C 	0.79460 0.38770 0.14840 0.01600
C 	C 	0.83470 0.38330 0.10160 -0.04100
H 	H 	0.81910 0.33120 0.06110 0.06200
C 	C 	0.89860 0.45730 0.11550 -0.02200
C 	C 	0.92230 0.53040 0.17610 -0.12600
H 	H 	0.96580 0.57580 0.18600 0.12200
C 	C 	0.73010 0.30100 0.13660 0.26200
C 	C 	0.94350 0.44770 0.06640 0.35900
O 	O 	0.70320 0.27050 0.18480 -0.18000
O 	O 	0.69990 0.25780 0.07580 -0.21400
O 	O 	0.91800 0.39140 0.00880 -0.41600
H 	H 	0.87700 0.35400 -0.00000 0.26200
O 	O 	0.00450 0.49450 0.08510 -0.19600
U 	U 	0.39512 0.13492 0.38872 0.01200
O 	O 	0.40680 0.12000 0.28080 -0.15700
C 	C 	0.38210 0.03820 0.22390 0.20900
C 	C 	0.31980 0.96460 0.20980 -0.14200
H 	H 	0.29370 0.96580 0.24170 0.13000
C 	C 	0.29460 0.88770 0.14840 0.01600
C 	C 	0.33470 0.88330 0.10160 -0.04100
H 	H 	0.31910 0.83120 0.06110 0.06200
C 	C 	0.39860 0.95730 0.11550 -0.02000
C 	C 	0.42230 0.03040 0.17610 -0.12800
H 	H 	0.46580 0.07580 0.18600 0.12300
C 	C 	0.23010 0.80100 0.13660 0.26200
C 	C 	0.44350 0.94770 0.06640 0.36200
O 	O 	0.20320 0.77050 0.18480 -0.17900
O 	O 	0.19990 0.75780 0.07580 -0.21300
O 	O 	0.41800 0.89140 0.00880 -0.41600
H 	H 	0.37700 0.85400 -0.00000 0.26300
O 	O 	0.50450 0.99450 0.08510 -0.19700
U 	U 	0.89512 0.36508 0.88872 0.02200
O 	O 	0.90680 0.38000 0.78080 -0.15600
C 	C 	0.88210 0.46180 0.72390 0.21400
C 	C 	0.81980 0.53540 0.70980 -0.14700
H 	H 	0.79370 0.53420 0.74170 0.13300
C 	C 	0.79460 0.61230 0.64840 0.02300
C 	C 	0.83470 0.61670 0.60160 -0.04500
H 	H 	0.81910 0.66880 0.56110 0.07000
C 	C 	0.89860 0.54270 0.61550 -0.01500
C 	C 	0.92230 0.46960 0.67610 -0.12800
H 	H 	0.96580 0.42420 0.68600 0.12400
C 	C 	0.73010 0.69900 0.63660 0.26100
C 	C 	0.94350 0.55230 0.56640 0.35900
O 	O 	0.70320 0.72950 0.68480 -0.17600
O 	O 	0.69990 0.74220 0.57580 -0.20500
O 	O 	0.91800 0.60860 0.50880 -0.40200
H 	H 	0.87700 0.64600 0.50000 0.27000
O 	O 	0.00450 0.50550 0.58510 -0.18600
U 	U 	0.39512 0.86508 0.88872 0.02200
O 	O 	0.40680 0.88000 0.78080 -0.15600
C 	C 	0.38210 0.96180 0.72390 0.21400
C 	C 	0.31980 0.03540 0.70980 -0.14800
H 	H 	0.29370 0.03420 0.74170 0.13300
C 	C 	0.29460 0.11230 0.64840 0.02300
C 	C 	0.33470 0.11670 0.60160 -0.04400
H 	H 	0.31910 0.16880 0.56110 0.06900
C 	C 	0.39860 0.04270 0.61550 -0.01700
C 	C 	0.42230 0.96960 0.67610 -0.12600
H 	H 	0.46580 0.92420 0.68600 0.12400
C 	C 	0.23010 0.19900 0.63660 0.26100
C 	C 	0.44350 0.05230 0.56640 0.36200
O 	O 	0.20320 0.22950 0.68480 -0.17600
O 	O 	0.19990 0.24220 0.57580 -0.20500
O 	O 	0.41800 0.10860 0.50880 -0.40400
H 	H 	0.37700 0.14600 0.50000 0.27000
O 	O 	0.50450 0.00550 0.58510 -0.18900
U 	U 	0.10488 0.36508 0.61128 0.01300
O 	O 	0.09320 0.38000 0.71920 -0.15800
C 	C 	0.11790 0.46180 0.77610 0.22200
C 	C 	0.18020 0.53540 0.79020 -0.15400
H 	H 	0.20630 0.53420 0.75830 0.13500
C 	C 	0.20540 0.61230 0.85160 0.03500
C 	C 	0.16530 0.61670 0.89840 -0.05700
H 	H 	0.18090 0.66880 0.93890 0.08600
C 	C 	0.10140 0.54270 0.88450 0.00600
C 	C 	0.07770 0.46960 0.82390 -0.13900
H 	H 	0.03420 0.42420 0.81400 0.13000
C 	C 	0.26990 0.69900 0.86340 0.25600
C 	C 	0.05650 0.55230 0.93360 0.34100
O 	O 	0.29680 0.72950 0.81520 -0.17400
O 	O 	0.30010 0.74220 0.92420 -0.19000
O 	O 	0.08200 0.60860 0.99120 -0.34000
H 	H 	0.12300 0.64600 -0.00000 0.22200
O 	O 	0.99550 0.50550 0.91490 -0.17600
U 	U 	0.60488 0.86508 0.61128 0.01400
O 	O 	0.59320 0.88000 0.71920 -0.15800
C 	C 	0.61790 0.96180 0.77610 0.22300
C 	C 	0.68020 0.03540 0.79020 -0.15600
H 	H 	0.70630 0.03420 0.75830 0.13500
C 	C 	0.70540 0.11230 0.85160 0.03500
C 	C 	0.66530 0.11670 0.89840 -0.05700
H 	H 	0.68090 0.16880 0.93890 0.08600
C 	C 	0.60140 0.04270 0.88450 0.00600
C 	C 	0.57770 0.96960 0.82390 -0.13800
H 	H 	0.53420 0.92420 0.81400 0.13000
C 	C 	0.76990 0.19900 0.86340 0.25600
C 	C 	0.55650 0.05230 0.93360 0.33800
O 	O 	0.79680 0.22950 0.81520 -0.17400
O 	O 	0.80010 0.24220 0.92420 -0.19000
O 	O 	0.58200 0.10860 0.99120 -0.33800
H 	H 	0.62300 0.14600 -0.00000 0.22000
O 	O 	0.49550 0.00550 0.91490 -0.17400
