data_crystal

_cell_length_a 18.92700
_cell_length_b 18.92700
_cell_length_c 24.69300
_cell_angle_alpha 90.00000
_cell_angle_beta  90.00000
_cell_angle_gamma 120.00000

_symmetry_space_group_name_	'P 1'
_symmetry_space_group_name_H-M	'P 1'

loop_
_symmetry_equiv_pos_as_xyz
  x,y,z

loop_
_atom_site_label
_atom_site_type_symbol
_atom_site_fract_x
_atom_site_fract_y
_atom_site_fract_z
_atom_site_charge
Fe	Fe	0.31929 0.53847 0.70848 1.27600
O 	O 	0.35430 0.50640 0.64501 -0.66600
O 	O 	0.37640 0.50380 0.76210 -0.55200
O 	O 	0.21450 0.42880 0.71260 -0.54700
O 	O 	0.25640 0.58580 0.67002 -0.49500
O 	O 	0.42010 0.65150 0.70970 -0.52800
O 	O 	0.27960 0.57380 0.77270 -0.49100
Fe	Fe	0.36354 0.41098 0.64721 1.27600
Fe	Fe	0.37943 0.57017 0.58114 1.27600
C 	C 	0.42640 0.47930 0.75700 0.69300
C 	C 	0.20740 0.36030 0.70830 0.68100
C 	C 	0.24420 0.59370 0.62070 0.69100
C 	C 	0.45700 0.69670 0.66920 0.71800
C 	C 	0.24630 0.55130 0.81830 0.71200
O 	O 	0.38000 0.31410 0.64560 -0.48200
O 	O 	0.43510 0.44670 0.71440 -0.52100
O 	O 	0.26290 0.34640 0.69250 -0.54300
O 	O 	0.29460 0.36330 0.57950 -0.54000
O 	O 	0.47010 0.45890 0.60440 -0.49100
O 	O 	0.27510 0.57640 0.58111 -0.52400
O 	O 	0.43700 0.67700 0.62080 -0.56400
O 	O 	0.32110 0.47280 0.53080 -0.49200
O 	O 	0.48940 0.57780 0.57110 -0.53700
O 	O 	0.22840 0.59820 0.84390 -0.49000
C 	C 	0.47680 0.48690 0.80530 -1.21700
C 	C 	0.12980 0.28730 0.72510 -1.14000
C 	C 	0.18930 0.62840 0.60910 -1.25600
C 	C 	0.52770 0.77880 0.68060 -1.25900
C 	C 	0.22410 0.46990 0.84150 -1.29300
C 	C 	0.34930 0.23930 0.65250 0.67800
C 	C 	0.28480 0.39620 0.53870 0.69500
C 	C 	0.51370 0.52780 0.58250 0.70200
H 	H 	0.51270 0.46640 0.79680 0.36500
H 	H 	0.50840 0.54320 0.81570 0.37300
H 	H 	0.44170 0.45600 0.83470 0.37800
H 	H 	0.13360 0.23910 0.71940 0.33400
H 	H 	0.12000 0.29170 0.76280 0.32100
H 	H 	0.08560 0.28390 0.70400 0.32900
H 	H 	0.17030 0.63860 0.64260 0.45200
H 	H 	0.21910 0.67850 0.58930 0.40100
H 	H 	0.14350 0.59000 0.58800 0.38800
H 	H 	0.53630 0.78580 0.71900 0.38700
H 	H 	0.57570 0.78380 0.66360 0.37100
H 	H 	0.51700 0.81980 0.66650 0.40800
H 	H 	0.19940 0.46400 0.87640 0.40600
H 	H 	0.18630 0.42760 0.81780 0.39200
H 	H 	0.27240 0.46570 0.84520 0.40000
O 	O 	0.39220 0.20730 0.65450 -0.48300
C 	C 	0.25500 0.18670 0.65000 -1.14200
C 	C 	0.22790 0.34200 0.49480 -1.22600
C 	C 	0.60030 0.55300 0.56930 -1.26400
Fe	Fe	0.39020 0.09962 0.66128 1.27300
H 	H 	0.23200 0.22180 0.64860 0.36400
H 	H 	0.23930 0.15300 0.61820 0.34800
H 	H 	0.23540 0.15280 0.68160 0.35600
H 	H 	0.22610 0.37520 0.46600 0.42400
H 	H 	0.24730 0.30740 0.48100 0.38700
H 	H 	0.17420 0.30910 0.50960 0.37100
H 	H 	0.62640 0.60610 0.55300 0.37900
H 	H 	0.62860 0.55450 0.60190 0.41200
H 	H 	0.60130 0.51440 0.54450 0.42600
O 	O 	0.29680 0.06650 0.71380 -0.52000
O 	O 	0.48680 0.15860 0.60850 -0.50300
O 	O 	0.46740 0.15160 0.72410 -0.53100
O 	O 	0.25190 0.93650 0.73730 -0.50900
C 	C 	0.25750 0.00520 0.74460 0.62300
C 	C 	0.53610 0.13970 0.58890 0.71900
C 	C 	0.52520 0.14210 0.74010 0.71300
O 	O 	0.54100 0.07800 0.60360 -0.54600
O 	O 	0.54510 0.09360 0.72040 -0.55100
C 	C 	0.21090 0.01420 0.79070 -1.09900
C 	C 	0.59480 0.19550 0.54680 -1.31400
C 	C 	0.57390 0.19670 0.78630 -1.27000
H 	H 	0.22070 0.06910 0.79150 0.32700
H 	H 	0.15370 0.97690 0.78580 0.31800
H 	H 	0.22870 0.00240 0.82420 0.32100
H 	H 	0.62900 0.17440 0.53510 0.39600
H 	H 	0.56490 0.19880 0.51650 0.43300
H 	H 	0.62790 0.24880 0.56210 0.44900
H 	H 	0.55110 0.23000 0.79670 0.39600
H 	H 	0.57210 0.16390 0.81650 0.40400
H 	H 	0.62950 0.23100 0.77510 0.41600
O 	O 	0.59930 0.99790 0.65290 -0.39800
H 	H 	0.63760 0.99970 0.67200 0.12000
H 	H 	0.61000 0.99500 0.61980 0.14400
Fe	Fe	0.46153 0.78082 0.37515 1.27500
O 	O 	0.49360 0.84790 0.31168 -0.66700
O 	O 	0.49620 0.87260 0.42877 -0.54800
O 	O 	0.57120 0.78570 0.37927 -0.54800
O 	O 	0.41420 0.67060 0.33669 -0.49500
O 	O 	0.34850 0.76860 0.37637 -0.52800
O 	O 	0.42620 0.70580 0.43937 -0.49100
Fe	Fe	0.58902 0.95256 0.31388 1.28000
Fe	Fe	0.42983 0.80926 0.24781 1.27600
C 	C 	0.52070 0.94710 0.42367 0.67800
C 	C 	0.63970 0.84710 0.37497 0.68800
C 	C 	0.40630 0.65050 0.28737 0.69100
C 	C 	0.30330 0.76030 0.33587 0.71700
C 	C 	0.44870 0.69500 0.48497 0.71400
O 	O 	0.68590 0.06590 0.31227 -0.48500
O 	O 	0.55330 0.98840 0.38107 -0.51200
O 	O 	0.65360 0.91650 0.35917 -0.54200
O 	O 	0.63670 0.93130 0.24617 -0.53600
O 	O 	0.54110 0.01120 0.27107 -0.51000
O 	O 	0.42360 0.69870 0.24778 -0.52400
O 	O 	0.32300 0.76000 0.28747 -0.56300
O 	O 	0.52720 0.84830 0.19747 -0.49100
O 	O 	0.42220 0.91160 0.23777 -0.54300
O 	O 	0.40180 0.63020 0.51057 -0.49000
C 	C 	0.51310 0.98990 0.47197 -1.16700
C 	C 	0.71270 0.84250 0.39177 -1.15700
C 	C 	0.37160 0.56090 0.27577 -1.25700
C 	C 	0.22120 0.74890 0.34727 -1.25500
C 	C 	0.53010 0.75420 0.50817 -1.29900
C 	C 	0.76070 0.11000 0.31917 0.67800
C 	C 	0.60380 0.88860 0.20537 0.69900
C 	C 	0.47220 0.98590 0.24917 0.73700
H 	H 	0.53360 0.04630 0.46347 0.34400
H 	H 	0.45680 0.96520 0.48237 0.36000
H 	H 	0.54400 0.98570 0.50137 0.36600
H 	H 	0.76090 0.89450 0.38607 0.34400
H 	H 	0.70830 0.82830 0.42947 0.33000
H 	H 	0.71610 0.80170 0.37067 0.33800
H 	H 	0.36140 0.53170 0.30927 0.45300
H 	H 	0.32150 0.54060 0.25597 0.40100
H 	H 	0.41000 0.55350 0.25467 0.38900
H 	H 	0.21420 0.75050 0.38567 0.38500
H 	H 	0.21620 0.79190 0.33027 0.37000
H 	H 	0.18020 0.69720 0.33317 0.40500
H 	H 	0.53600 0.73540 0.54307 0.40900
H 	H 	0.57240 0.75870 0.48447 0.39500
H 	H 	0.53430 0.80670 0.51187 0.40200
O 	O 	0.79270 0.18490 0.32117 -0.48300
C 	C 	0.81330 0.06830 0.31667 -1.14200
C 	C 	0.65800 0.88590 0.16147 -1.23400
C 	C 	0.44700 0.04730 0.23597 -1.31000
Fe	Fe	0.90038 0.29058 0.32795 1.27600
H 	H 	0.77820 0.01020 0.31527 0.36100
H 	H 	0.84700 0.08630 0.28487 0.34800
H 	H 	0.84720 0.08260 0.34827 0.35600
H 	H 	0.62480 0.85090 0.13267 0.42700
H 	H 	0.69260 0.93990 0.14767 0.39300
H 	H 	0.69090 0.86510 0.17627 0.37500
H 	H 	0.39390 0.02030 0.21967 0.38900
H 	H 	0.44550 0.07410 0.26857 0.42400
H 	H 	0.48560 0.08690 0.21117 0.43800
O 	O 	0.93350 0.23030 0.38047 -0.51700
O 	O 	0.84140 0.32820 0.27517 -0.50200
O 	O 	0.84840 0.31580 0.39077 -0.52900
O 	O 	0.06350 0.31540 0.40397 -0.52000
C 	C 	0.99480 0.25230 0.41127 0.62600
C 	C 	0.86030 0.39640 0.25557 0.71900
C 	C 	0.85790 0.38310 0.40677 0.71300
O 	O 	0.92200 0.46300 0.27027 -0.54000
O 	O 	0.90640 0.45150 0.38707 -0.54600
C 	C 	0.98580 0.19670 0.45737 -1.04200
C 	C 	0.80450 0.39930 0.21347 -1.31400
C 	C 	0.80330 0.37720 0.45297 -1.26900
H 	H 	0.93090 0.15160 0.45817 0.31200
H 	H 	0.02310 0.17680 0.45247 0.29000
H 	H 	0.99760 0.22630 0.49087 0.30900
H 	H 	0.82560 0.45460 0.20177 0.39700
H 	H 	0.80120 0.36610 0.18317 0.43300
H 	H 	0.75120 0.37910 0.22877 0.44900
H 	H 	0.77000 0.32110 0.46337 0.39600
H 	H 	0.83610 0.40820 0.48317 0.40400
H 	H 	0.76900 0.39850 0.44177 0.41600
O 	O 	0.00210 0.60140 0.31957 -0.32100
H 	H 	0.00030 0.63790 0.33867 0.15000
H 	H 	0.00500 0.61500 0.28647 0.11100
Fe	Fe	0.21918 0.68071 0.04181 1.27400
O 	O 	0.15210 0.64570 0.97834 -0.66400
O 	O 	0.12740 0.62360 0.09543 -0.55700
O 	O 	0.21430 0.78550 0.04593 -0.54800
O 	O 	0.32940 0.74360 0.00335 -0.50300
O 	O 	0.23140 0.57990 0.04303 -0.53500
O 	O 	0.29420 0.72040 0.10603 -0.49100
Fe	Fe	0.04744 0.63646 0.98054 1.27400
Fe	Fe	0.19074 0.62057 0.91447 1.27600
C 	C 	0.05290 0.57360 0.09033 0.70500
C 	C 	0.15290 0.79260 0.04163 0.68600
C 	C 	0.34950 0.75580 0.95403 0.70600
C 	C 	0.23970 0.54300 0.00253 0.73100
C 	C 	0.30500 0.75370 0.15163 0.71400
O 	O 	0.93410 0.62000 0.97893 -0.47100
O 	O 	0.01160 0.56490 0.04773 -0.53200
O 	O 	0.08350 0.73710 0.02583 -0.55000
O 	O 	0.06870 0.70540 0.91283 -0.54300
O 	O 	0.98880 0.52990 0.93773 -0.47000
O 	O 	0.30130 0.72490 0.91444 -0.52600
O 	O 	0.24000 0.56300 0.95413 -0.56400
O 	O 	0.15170 0.67890 0.86413 -0.49200
O 	O 	0.08840 0.51060 0.90443 -0.53000
O 	O 	0.36980 0.77160 0.17723 -0.48900
C 	C 	0.01010 0.52320 0.13863 -1.25700
C 	C 	0.15750 0.87020 0.05843 -1.15200
C 	C 	0.43910 0.81070 0.94243 -1.27600
C 	C 	0.25110 0.47230 0.01393 -1.33800
C 	C 	0.24580 0.77590 0.17483 -1.29800
C 	C 	0.89000 0.65070 0.98583 0.67000
C 	C 	0.11140 0.71520 0.87203 0.69500
C 	C 	0.01410 0.48630 0.91583 0.66700
H 	H 	0.95370 0.48730 0.13013 0.38200
H 	H 	0.03480 0.49160 0.14903 0.38200
H 	H 	0.01430 0.55830 0.16803 0.38900
H 	H 	0.10550 0.86640 0.05273 0.33800
H 	H 	0.17170 0.88000 0.09613 0.32700
H 	H 	0.19830 0.91440 0.03733 0.33600
H 	H 	0.46830 0.82970 0.97593 0.46300
H 	H 	0.45940 0.78090 0.92263 0.40800
H 	H 	0.44650 0.85650 0.92133 0.39600
H 	H 	0.24950 0.46370 0.05233 0.40800
H 	H 	0.20810 0.42430 0.99693 0.39800
H 	H 	0.30280 0.48300 0.99983 0.43600
H 	H 	0.26460 0.80060 0.20973 0.40900
H 	H 	0.24130 0.81370 0.15113 0.39500
H 	H 	0.19330 0.72760 0.17853 0.40200
O 	O 	0.81510 0.60780 0.98783 -0.47500
C 	C 	0.93170 0.74500 0.98333 -1.10400
C 	C 	0.11410 0.77210 0.82813 -1.22700
C 	C 	0.95270 0.39970 0.90263 -1.21500
Fe	Fe	0.70942 0.60980 0.99461 1.27900
H 	H 	0.98980 0.76800 0.98193 0.36100
H 	H 	0.91370 0.76070 0.95153 0.34100
H 	H 	0.91740 0.76460 0.01493 0.34100
H 	H 	0.14910 0.77390 0.79933 0.42400
H 	H 	0.06010 0.75270 0.81433 0.38500
H 	H 	0.13490 0.82580 0.84293 0.37200
H 	H 	0.97970 0.37360 0.88633 0.36800
H 	H 	0.92590 0.37140 0.93523 0.40100
H 	H 	0.91310 0.39870 0.87783 0.41300
O 	O 	0.76970 0.70320 0.04713 -0.52300
O 	O 	0.67180 0.51320 0.94183 -0.50000
O 	O 	0.68420 0.53260 0.05743 -0.53400
O 	O 	0.68460 0.74810 0.07063 -0.51600
C 	C 	0.74770 0.74250 0.07793 0.62800
C 	C 	0.60360 0.46390 0.92223 0.71900
C 	C 	0.61690 0.47480 0.07343 0.71400
O 	O 	0.53700 0.45900 0.93693 -0.53900
O 	O 	0.54850 0.45490 0.05373 -0.55100
C 	C 	0.80330 0.78910 0.12403 -1.08300
C 	C 	0.60070 0.40520 0.88013 -1.31400
C 	C 	0.62280 0.42610 0.11963 -1.27100
H 	H 	0.84840 0.77930 0.12483 0.32500
H 	H 	0.82320 0.84630 0.11913 0.31000
H 	H 	0.77370 0.77130 0.15753 0.31900
H 	H 	0.54540 0.37100 0.86843 0.39700
H 	H 	0.63390 0.43510 0.84983 0.43300
H 	H 	0.62090 0.37210 0.89543 0.45000
H 	H 	0.67890 0.44890 0.13003 0.39700
H 	H 	0.59180 0.42790 0.14983 0.40400
H 	H 	0.60150 0.37050 0.10843 0.41600
O 	O 	0.39860 0.40070 0.98623 -0.50800
H 	H 	0.36210 0.36240 0.00533 0.20600
H 	H 	0.38500 0.39000 0.95313 0.19400
Fe	Fe	0.53847 0.31929 0.29152 1.27500
O 	O 	0.50640 0.35430 0.35499 -0.66700
O 	O 	0.50380 0.37640 0.23790 -0.55300
O 	O 	0.42880 0.21450 0.28740 -0.54700
O 	O 	0.58580 0.25640 0.32998 -0.49500
O 	O 	0.65150 0.42010 0.29030 -0.52800
O 	O 	0.57380 0.27960 0.22730 -0.49100
Fe	Fe	0.41098 0.36354 0.35279 1.27600
Fe	Fe	0.57017 0.37943 0.41886 1.27600
C 	C 	0.47930 0.42640 0.24300 0.69400
C 	C 	0.36030 0.20740 0.29170 0.68100
C 	C 	0.59370 0.24420 0.37930 0.69100
C 	C 	0.69670 0.45700 0.33080 0.71800
C 	C 	0.55130 0.24630 0.18170 0.71200
O 	O 	0.31410 0.38000 0.35440 -0.48200
O 	O 	0.44670 0.43510 0.28560 -0.52200
O 	O 	0.34640 0.26290 0.30750 -0.54300
O 	O 	0.36330 0.29460 0.42050 -0.54000
O 	O 	0.45890 0.47010 0.39560 -0.49100
O 	O 	0.57640 0.27510 0.41889 -0.52400
O 	O 	0.67700 0.43700 0.37920 -0.56400
O 	O 	0.47280 0.32110 0.46920 -0.49200
O 	O 	0.57780 0.48940 0.42890 -0.53700
O 	O 	0.59820 0.22840 0.15610 -0.49000
C 	C 	0.48690 0.47680 0.19470 -1.22100
C 	C 	0.28730 0.12980 0.27490 -1.13900
C 	C 	0.62840 0.18930 0.39090 -1.25600
C 	C 	0.77880 0.52770 0.31940 -1.25900
C 	C 	0.46990 0.22410 0.15850 -1.29400
C 	C 	0.23930 0.34930 0.34750 0.67800
C 	C 	0.39620 0.28480 0.46130 0.69500
C 	C 	0.52780 0.51370 0.41750 0.70200
H 	H 	0.46640 0.51270 0.20320 0.36600
H 	H 	0.54320 0.50840 0.18430 0.37400
H 	H 	0.45600 0.44170 0.16530 0.38000
H 	H 	0.23910 0.13360 0.28060 0.33300
H 	H 	0.29170 0.12000 0.23720 0.32100
H 	H 	0.28390 0.08560 0.29600 0.32900
H 	H 	0.63860 0.17030 0.35740 0.45200
H 	H 	0.67850 0.21910 0.41070 0.40100
H 	H 	0.59000 0.14350 0.41200 0.38800
H 	H 	0.78580 0.53630 0.28100 0.38700
H 	H 	0.78380 0.57570 0.33640 0.37100
H 	H 	0.81980 0.51700 0.33350 0.40800
H 	H 	0.46400 0.19940 0.12360 0.40600
H 	H 	0.42760 0.18630 0.18220 0.39200
H 	H 	0.46570 0.27240 0.15480 0.40000
O 	O 	0.20730 0.39220 0.34550 -0.48300
C 	C 	0.18670 0.25500 0.35000 -1.14200
C 	C 	0.34200 0.22790 0.50520 -1.22600
C 	C 	0.55300 0.60030 0.43070 -1.26400
Fe	Fe	0.09962 0.39020 0.33872 1.27300
H 	H 	0.22180 0.23200 0.35140 0.36400
H 	H 	0.15300 0.23930 0.38180 0.34800
H 	H 	0.15280 0.23540 0.31840 0.35600
H 	H 	0.37520 0.22610 0.53400 0.42400
H 	H 	0.30740 0.24730 0.51900 0.38700
H 	H 	0.30910 0.17420 0.49040 0.37000
H 	H 	0.60610 0.62640 0.44700 0.37900
H 	H 	0.55450 0.62860 0.39810 0.41200
H 	H 	0.51440 0.60130 0.45550 0.42600
O 	O 	0.06650 0.29680 0.28620 -0.52000
O 	O 	0.15860 0.48680 0.39150 -0.50300
O 	O 	0.15160 0.46740 0.27590 -0.53100
O 	O 	0.93650 0.25190 0.26270 -0.50900
C 	C 	0.00520 0.25750 0.25540 0.62000
C 	C 	0.13970 0.53610 0.41110 0.71900
C 	C 	0.14210 0.52520 0.25990 0.71300
O 	O 	0.07800 0.54100 0.39640 -0.54600
O 	O 	0.09360 0.54510 0.27960 -0.55100
C 	C 	0.01420 0.21090 0.20930 -1.09300
C 	C 	0.19550 0.59480 0.45320 -1.31400
C 	C 	0.19670 0.57390 0.21370 -1.26900
H 	H 	0.06910 0.22070 0.20850 0.32400
H 	H 	0.97690 0.15370 0.21420 0.31500
H 	H 	0.00240 0.22870 0.17580 0.31700
H 	H 	0.17440 0.62900 0.46490 0.39600
H 	H 	0.19880 0.56490 0.48350 0.43300
H 	H 	0.24880 0.62790 0.43790 0.44900
H 	H 	0.23000 0.55110 0.20330 0.39500
H 	H 	0.16390 0.57210 0.18350 0.40300
H 	H 	0.23100 0.62950 0.22490 0.41600
O 	O 	0.99790 0.59930 0.34710 -0.39700
H 	H 	0.99970 0.63760 0.32800 0.12100
H 	H 	0.99500 0.61000 0.38020 0.14400
Fe	Fe	0.78082 0.46153 0.62485 1.27500
O 	O 	0.84790 0.49360 0.68832 -0.66700
O 	O 	0.87260 0.49620 0.57123 -0.54800
O 	O 	0.78570 0.57120 0.62073 -0.54800
O 	O 	0.67060 0.41420 0.66331 -0.49500
O 	O 	0.76860 0.34850 0.62363 -0.52800
O 	O 	0.70580 0.42620 0.56063 -0.49100
Fe	Fe	0.95256 0.58902 0.68612 1.28000
Fe	Fe	0.80926 0.42983 0.75219 1.27600
C 	C 	0.94710 0.52070 0.57633 0.67900
C 	C 	0.84710 0.63970 0.62503 0.68800
C 	C 	0.65050 0.40630 0.71263 0.69100
C 	C 	0.76030 0.30330 0.66413 0.71700
C 	C 	0.69500 0.44870 0.51503 0.71400
O 	O 	0.06590 0.68590 0.68773 -0.48500
O 	O 	0.98840 0.55330 0.61893 -0.51200
O 	O 	0.91650 0.65360 0.64083 -0.54200
O 	O 	0.93130 0.63670 0.75383 -0.53600
O 	O 	0.01120 0.54110 0.72893 -0.50900
O 	O 	0.69870 0.42360 0.75222 -0.52400
O 	O 	0.76000 0.32300 0.71253 -0.56300
O 	O 	0.84830 0.52720 0.80253 -0.49100
O 	O 	0.91160 0.42220 0.76223 -0.54300
O 	O 	0.63020 0.40180 0.48943 -0.49000
C 	C 	0.98990 0.51310 0.52803 -1.16900
C 	C 	0.84250 0.71270 0.60823 -1.15700
C 	C 	0.56090 0.37160 0.72423 -1.25800
C 	C 	0.74890 0.22120 0.65273 -1.25500
C 	C 	0.75420 0.53010 0.49183 -1.29900
C 	C 	0.11000 0.76070 0.68083 0.67800
C 	C 	0.88860 0.60380 0.79463 0.69900
C 	C 	0.98590 0.47220 0.75083 0.73500
H 	H 	0.04630 0.53360 0.53653 0.34500
H 	H 	0.96520 0.45680 0.51763 0.36100
H 	H 	0.98570 0.54400 0.49863 0.36700
H 	H 	0.89450 0.76090 0.61393 0.34400
H 	H 	0.82830 0.70830 0.57053 0.33000
H 	H 	0.80170 0.71610 0.62933 0.33800
H 	H 	0.53170 0.36140 0.69073 0.45300
H 	H 	0.54060 0.32150 0.74403 0.40200
H 	H 	0.55350 0.41000 0.74533 0.38900
H 	H 	0.75050 0.21420 0.61433 0.38500
H 	H 	0.79190 0.21620 0.66973 0.37000
H 	H 	0.69720 0.18020 0.66683 0.40500
H 	H 	0.73540 0.53600 0.45693 0.40900
H 	H 	0.75870 0.57240 0.51553 0.39500
H 	H 	0.80670 0.53430 0.48813 0.40200
O 	O 	0.18490 0.79270 0.67883 -0.48300
C 	C 	0.06830 0.81330 0.68333 -1.14200
C 	C 	0.88590 0.65800 0.83853 -1.23500
C 	C 	0.04730 0.44700 0.76403 -1.30800
Fe	Fe	0.29058 0.90038 0.67205 1.27600
H 	H 	0.01020 0.77820 0.68473 0.36100
H 	H 	0.08630 0.84700 0.71513 0.34900
H 	H 	0.08260 0.84720 0.65173 0.35700
H 	H 	0.85090 0.62480 0.86733 0.42700
H 	H 	0.93990 0.69260 0.85233 0.39400
H 	H 	0.86510 0.69090 0.82373 0.37600
H 	H 	0.02030 0.39390 0.78033 0.38900
H 	H 	0.07410 0.44550 0.73143 0.42300
H 	H 	0.08690 0.48560 0.78883 0.43800
O 	O 	0.23030 0.93350 0.61953 -0.51700
O 	O 	0.32820 0.84140 0.72483 -0.50200
O 	O 	0.31580 0.84840 0.60923 -0.52900
O 	O 	0.31540 0.06350 0.59603 -0.52000
C 	C 	0.25230 0.99480 0.58873 0.62600
C 	C 	0.39640 0.86030 0.74443 0.71900
C 	C 	0.38310 0.85790 0.59323 0.71300
O 	O 	0.46300 0.92200 0.72973 -0.54000
O 	O 	0.45150 0.90640 0.61293 -0.54600
C 	C 	0.19670 0.98580 0.54263 -1.04200
C 	C 	0.39930 0.80450 0.78653 -1.31500
C 	C 	0.37720 0.80330 0.54703 -1.26900
H 	H 	0.15160 0.93090 0.54183 0.31100
H 	H 	0.17680 0.02310 0.54753 0.29000
H 	H 	0.22630 0.99760 0.50913 0.30900
H 	H 	0.45460 0.82560 0.79823 0.39700
H 	H 	0.36610 0.80120 0.81683 0.43300
H 	H 	0.37910 0.75120 0.77123 0.45000
H 	H 	0.32110 0.77000 0.53663 0.39600
H 	H 	0.40820 0.83610 0.51683 0.40400
H 	H 	0.39850 0.76900 0.55823 0.41600
O 	O 	0.60140 0.00210 0.68043 -0.32000
H 	H 	0.63790 0.00030 0.66133 0.15100
H 	H 	0.61500 0.00500 0.71353 0.11100
Fe	Fe	0.68071 0.21918 0.95819 1.27700
O 	O 	0.64570 0.15210 0.02166 -0.67500
O 	O 	0.62360 0.12740 0.90457 -0.55500
O 	O 	0.78550 0.21430 0.95407 -0.54500
O 	O 	0.74360 0.32940 0.99665 -0.47900
O 	O 	0.57990 0.23140 0.95697 -0.52000
O 	O 	0.72040 0.29420 0.89397 -0.49100
Fe	Fe	0.63646 0.04744 0.01946 1.26700
Fe	Fe	0.62057 0.19074 0.08553 1.27400
C 	C 	0.57360 0.05290 0.90967 0.70400
C 	C 	0.79260 0.15290 0.95837 0.68900
C 	C 	0.75580 0.34950 0.04597 0.66900
C 	C 	0.54300 0.23970 0.99747 0.69800
C 	C 	0.75370 0.30500 0.84837 0.71400
O 	O 	0.62000 0.93410 0.02107 -0.48400
O 	O 	0.56490 0.01160 0.95227 -0.52300
O 	O 	0.73710 0.08350 0.97417 -0.54100
O 	O 	0.70540 0.06870 0.08717 -0.54600
O 	O 	0.52990 0.98880 0.06227 -0.47100
O 	O 	0.72490 0.30130 0.08556 -0.51900
O 	O 	0.56300 0.24000 0.04587 -0.56400
O 	O 	0.67890 0.15170 0.13587 -0.49300
O 	O 	0.51060 0.08840 0.09557 -0.53000
O 	O 	0.77160 0.36980 0.82277 -0.48900
C 	C 	0.52320 0.01010 0.86137 -1.25600
C 	C 	0.87020 0.15750 0.94157 -1.15700
C 	C 	0.81070 0.43910 0.05757 -1.23200
C 	C 	0.47230 0.25110 0.98607 -1.14400
C 	C 	0.77590 0.24580 0.82517 -1.29800
C 	C 	0.65070 0.89000 0.01417 0.69200
C 	C 	0.71520 0.11140 0.12797 0.69400
C 	C 	0.48630 0.01410 0.08417 0.66300
H 	H 	0.48730 0.95370 0.86987 0.38100
H 	H 	0.49160 0.03480 0.85097 0.38300
H 	H 	0.55830 0.01430 0.83197 0.38800
H 	H 	0.86640 0.10550 0.94727 0.34200
H 	H 	0.88000 0.17170 0.90387 0.32900
H 	H 	0.91440 0.19830 0.96267 0.34100
H 	H 	0.82970 0.46830 0.02407 0.44100
H 	H 	0.78090 0.45940 0.07737 0.39300
H 	H 	0.85650 0.44650 0.07867 0.38100
H 	H 	0.46370 0.24950 0.94767 0.35400
H 	H 	0.42430 0.20810 0.00307 0.32800
H 	H 	0.48300 0.30280 0.00017 0.36500
H 	H 	0.80060 0.26460 0.79027 0.40900
H 	H 	0.81370 0.24130 0.84887 0.39500
H 	H 	0.72760 0.19330 0.82147 0.40200
O 	O 	0.60780 0.81510 0.01217 -0.49000
C 	C 	0.74500 0.93170 0.01667 -1.19500
C 	C 	0.77210 0.11410 0.17187 -1.22400
C 	C 	0.39970 0.95270 0.09737 -1.20900
Fe	Fe	0.60980 0.70942 0.00539 1.27100
H 	H 	0.76800 0.98980 0.01807 0.38100
H 	H 	0.76070 0.91370 0.04847 0.36500
H 	H 	0.76460 0.91740 0.98507 0.38000
H 	H 	0.77390 0.14910 0.20067 0.42300
H 	H 	0.75270 0.06010 0.18567 0.38400
H 	H 	0.82580 0.13490 0.15707 0.37000
H 	H 	0.37360 0.97970 0.11367 0.36600
H 	H 	0.37140 0.92590 0.06477 0.39700
H 	H 	0.39870 0.91310 0.12217 0.41100
O 	O 	0.70320 0.76970 0.95287 -0.51500
O 	O 	0.51320 0.67180 0.05817 -0.50400
O 	O 	0.53260 0.68420 0.94257 -0.52600
O 	O 	0.74810 0.68460 0.92937 -0.51400
C 	C 	0.74250 0.74770 0.92207 0.62900
C 	C 	0.46390 0.60360 0.07777 0.71800
C 	C 	0.47480 0.61690 0.92657 0.71200
O 	O 	0.45900 0.53700 0.06307 -0.54600
O 	O 	0.45490 0.54850 0.94627 -0.54600
C 	C 	0.78910 0.80330 0.87597 -1.08400
C 	C 	0.40520 0.60070 0.11987 -1.31400
C 	C 	0.42610 0.62280 0.88037 -1.26800
H 	H 	0.77930 0.84840 0.87517 0.32600
H 	H 	0.84630 0.82320 0.88087 0.31300
H 	H 	0.77130 0.77370 0.84247 0.32000
H 	H 	0.37100 0.54540 0.13157 0.39600
H 	H 	0.43510 0.63390 0.15017 0.43300
H 	H 	0.37210 0.62090 0.10457 0.44900
H 	H 	0.44890 0.67890 0.86997 0.39500
H 	H 	0.42790 0.59180 0.85017 0.40300
H 	H 	0.37050 0.60150 0.89157 0.41600
O 	O 	0.40070 0.39860 0.01377 -0.20900
H 	H 	0.36240 0.36210 0.99467 0.06400
H 	H 	0.39000 0.38500 0.04687 0.05900
O 	O 	0.39150 0.00000 0.66667 -0.67200
Fe	Fe	0.49240 0.00000 0.66667 1.27100
O 	O 	0.00000 0.39150 0.33333 -0.67200
Fe	Fe	-0.00000 0.49240 0.33333 1.27100
O 	O 	0.60850 0.60850 -0.00000 -0.67300
Fe	Fe	0.50760 0.50760 -0.00000 1.27000
