data_crystal

_cell_length_a 16.31900
_cell_length_b 18.37400
_cell_length_c 22.07500
_cell_angle_alpha 90.00000
_cell_angle_beta  106.13000
_cell_angle_gamma 90.00000

_symmetry_space_group_name_	'P 1'
_symmetry_space_group_name_H-M	'P 1'

loop_
_symmetry_equiv_pos_as_xyz
  x,y,z

loop_
_atom_site_label
_atom_site_type_symbol
_atom_site_fract_x
_atom_site_fract_y
_atom_site_fract_z
_atom_site_charge
Na	Na	0.23040 0.21790 0.07200 0.57500
O 	O 	0.33360 0.29690 0.04560 -0.26900
La	La	0.24050 0.07580 0.20950 1.49900
S 	S 	0.89990 0.21140 0.90840 0.27800
O 	O 	0.83960 0.16080 0.86870 -0.21500
O 	O 	0.98430 0.20640 0.90100 -0.15000
O 	O 	0.91500 0.15440 0.17440 -0.36700
O 	O 	0.14110 0.15470 0.11620 -0.45600
O 	O 	0.08660 0.13220 0.19360 -0.55500
C 	C 	0.90660 0.18980 0.98750 -0.05600
C 	C 	0.83390 0.18660 0.00660 0.03100
C 	C 	0.83650 0.17350 0.06800 -0.08700
C 	C 	0.91560 0.16390 0.11440 0.22100
C 	C 	0.98950 0.16590 0.09470 -0.13000
C 	C 	0.98340 0.18020 0.03050 0.09200
C 	C 	0.07590 0.15110 0.13670 0.30300
S 	S 	0.68680 0.96800 0.94040 0.62400
O 	O 	0.67230 0.05330 0.91800 -0.27400
O 	O 	0.61570 0.95270 0.95890 -0.39900
O 	O 	0.71310 0.93770 0.89170 -0.46900
O 	O 	0.98020 0.99440 0.16580 -0.31400
O 	O 	0.72940 0.00880 0.18060 -0.44500
O 	O 	0.86320 0.02200 0.22970 -0.51800
C 	C 	0.77450 0.97390 0.00730 -0.19700
C 	C 	0.85830 0.96750 0.00370 0.09600
C 	C 	0.92400 0.97440 0.05610 -0.03900
C 	C 	0.91170 0.98770 0.11660 0.25400
C 	C 	0.82780 0.99150 0.11980 -0.21600
C 	C 	0.76020 0.98430 0.06550 0.12500
C 	C 	0.80540 0.00710 0.17930 0.40000
O 	O 	0.31690 0.19480 0.18380 -0.33200
Na	Na	0.73040 0.71790 0.07200 0.58100
O 	O 	0.83360 0.79690 0.04560 -0.23000
La	La	0.74050 0.57580 0.20950 1.53600
S 	S 	0.39990 0.71140 0.90840 0.26900
O 	O 	0.33960 0.66080 0.86870 -0.22700
O 	O 	0.48430 0.70640 0.90100 -0.20100
O 	O 	0.41500 0.65440 0.17440 -0.44500
O 	O 	0.64110 0.65470 0.11620 -0.46500
O 	O 	0.58660 0.63220 0.19360 -0.58600
C 	C 	0.40660 0.68980 0.98750 -0.07600
C 	C 	0.33390 0.68660 0.00660 0.04300
C 	C 	0.33650 0.67350 0.06800 -0.10800
C 	C 	0.41560 0.66390 0.11440 0.26900
C 	C 	0.48950 0.66590 0.09470 -0.26400
C 	C 	0.48340 0.68020 0.03050 0.08600
C 	C 	0.57590 0.65110 0.13670 0.44500
S 	S 	0.18680 0.46800 0.94040 0.61400
O 	O 	0.17230 0.55330 0.91800 -0.27700
O 	O 	0.11570 0.45270 0.95890 -0.43300
O 	O 	0.21310 0.43770 0.89170 -0.48300
O 	O 	0.48020 0.49440 0.16580 -0.42900
O 	O 	0.22940 0.50880 0.18060 -0.46600
O 	O 	0.36320 0.52200 0.22970 -0.57800
C 	C 	0.27450 0.47390 0.00730 -0.20900
C 	C 	0.35830 0.46750 0.00370 0.08500
C 	C 	0.42400 0.47440 0.05610 -0.10400
C 	C 	0.41170 0.48770 0.11660 0.28600
C 	C 	0.32780 0.49150 0.11980 -0.27400
C 	C 	0.26020 0.48430 0.06550 0.12000
C 	C 	0.30540 0.50710 0.17930 0.44800
O 	O 	0.81690 0.69480 0.18380 -0.30400
Na	Na	0.76960 0.21790 0.42800 0.58400
O 	O 	0.66640 0.29690 0.45440 -0.25100
La	La	0.75950 0.07580 0.29050 1.52200
S 	S 	0.10010 0.21140 0.59160 0.26200
O 	O 	0.16040 0.16080 0.63130 -0.24200
O 	O 	0.01570 0.20640 0.59900 -0.25900
O 	O 	0.08500 0.15440 0.32560 -0.44600
O 	O 	0.85890 0.15470 0.38380 -0.46700
O 	O 	0.91340 0.13220 0.30640 -0.54200
C 	C 	0.09340 0.18980 0.51250 -0.12700
C 	C 	0.16610 0.18660 0.49340 0.07600
C 	C 	0.16350 0.17350 0.43200 -0.12700
C 	C 	0.08440 0.16390 0.38560 0.29500
C 	C 	0.01050 0.16590 0.40530 -0.38100
C 	C 	0.01660 0.18020 0.46950 0.09100
C 	C 	0.92410 0.15110 0.36330 0.55600
S 	S 	0.31320 0.96800 0.55960 0.61400
O 	O 	0.32770 0.05330 0.58200 -0.28300
O 	O 	0.38430 0.95270 0.54110 -0.40200
O 	O 	0.28690 0.93770 0.60830 -0.47600
O 	O 	0.01980 0.99440 0.33420 -0.43100
O 	O 	0.27060 0.00880 0.31940 -0.45100
O 	O 	0.13680 0.02200 0.27030 -0.56600
C 	C 	0.22550 0.97390 0.49270 -0.19300
C 	C 	0.14170 0.96750 0.49630 0.08400
C 	C 	0.07600 0.97440 0.44390 -0.13300
C 	C 	0.08830 0.98770 0.38340 0.28100
C 	C 	0.17220 0.99150 0.38020 -0.24600
C 	C 	0.23980 0.98430 0.43450 0.13300
C 	C 	0.19460 0.00710 0.32070 0.41500
O 	O 	0.68310 0.19480 0.31620 -0.32400
Na	Na	0.26960 0.71790 0.42800 0.58000
O 	O 	0.16640 0.79690 0.45440 -0.28500
La	La	0.25950 0.57580 0.29050 1.50600
S 	S 	0.60010 0.71140 0.59160 0.27800
O 	O 	0.66040 0.66080 0.63130 -0.22100
O 	O 	0.51570 0.70640 0.59900 -0.20600
O 	O 	0.58500 0.65440 0.32560 -0.44400
O 	O 	0.35890 0.65470 0.38380 -0.46500
O 	O 	0.41340 0.63220 0.30640 -0.58700
C 	C 	0.59340 0.68980 0.51250 -0.11800
C 	C 	0.66610 0.68660 0.49340 0.07900
C 	C 	0.66350 0.67350 0.43200 -0.11000
C 	C 	0.58440 0.66390 0.38560 0.27700
C 	C 	0.51050 0.66590 0.40530 -0.27500
C 	C 	0.51660 0.68020 0.46950 0.11500
C 	C 	0.42410 0.65110 0.36330 0.44900
S 	S 	0.81320 0.46800 0.55960 0.59200
O 	O 	0.82770 0.55330 0.58200 -0.24400
O 	O 	0.88430 0.45270 0.54110 -0.36700
O 	O 	0.78690 0.43770 0.60830 -0.46100
O 	O 	0.51980 0.49440 0.33420 -0.42800
O 	O 	0.77060 0.50880 0.31940 -0.43200
O 	O 	0.63680 0.52200 0.27030 -0.57600
C 	C 	0.72550 0.47390 0.49270 -0.19300
C 	C 	0.64170 0.46750 0.49630 0.09100
C 	C 	0.57600 0.47440 0.44390 -0.10000
C 	C 	0.58830 0.48770 0.38340 0.28600
C 	C 	0.67220 0.49150 0.38020 -0.27100
C 	C 	0.73980 0.48430 0.43450 0.14200
C 	C 	0.69460 0.50710 0.32070 0.44700
O 	O 	0.18310 0.69480 0.31620 -0.34600
Na	Na	0.76960 0.78210 0.92800 0.58400
O 	O 	0.66640 0.70310 0.95440 -0.24500
La	La	0.75950 0.92420 0.79050 1.53900
S 	S 	0.10010 0.78860 0.09160 0.26900
O 	O 	0.16040 0.83920 0.13130 -0.23600
O 	O 	0.01570 0.79360 0.09900 -0.26100
O 	O 	0.08500 0.84560 0.82560 -0.45100
O 	O 	0.85890 0.84530 0.88380 -0.46600
O 	O 	0.91340 0.86780 0.80640 -0.54700
C 	C 	0.09340 0.81020 0.01250 -0.16500
C 	C 	0.16610 0.81340 0.99340 0.11000
C 	C 	0.16350 0.82650 0.93200 -0.12900
C 	C 	0.08440 0.83610 0.88560 0.30800
C 	C 	0.01050 0.83410 0.90530 -0.38900
C 	C 	0.01660 0.81980 0.96950 0.12300
C 	C 	0.92410 0.84890 0.86330 0.56400
S 	S 	0.31320 0.03200 0.05960 0.55100
O 	O 	0.32770 0.94670 0.08200 -0.24500
O 	O 	0.38430 0.04730 0.04110 -0.41000
O 	O 	0.28690 0.06230 0.10830 -0.47300
O 	O 	0.01980 0.00560 0.83420 -0.46400
O 	O 	0.27060 0.99120 0.81940 -0.44500
O 	O 	0.13680 0.97800 0.77030 -0.56600
C 	C 	0.22550 0.02610 0.99270 -0.17700
C 	C 	0.14170 0.03250 0.99630 0.08300
C 	C 	0.07600 0.02560 0.94390 -0.14600
C 	C 	0.08830 0.01230 0.88340 0.29300
C 	C 	0.17220 0.00850 0.88020 -0.29300
C 	C 	0.23980 0.01570 0.93450 0.12800
C 	C 	0.19460 0.99290 0.82070 0.46200
O 	O 	0.68310 0.80520 0.81620 -0.32100
Na	Na	0.26960 0.28210 0.92800 0.58100
O 	O 	0.16640 0.20310 0.95440 -0.27700
La	La	0.25950 0.42420 0.79050 1.50700
S 	S 	0.60010 0.28860 0.09160 0.28200
O 	O 	0.66040 0.33920 0.13130 -0.22500
O 	O 	0.51570 0.29360 0.09900 -0.21200
O 	O 	0.58500 0.34560 0.82560 -0.44700
O 	O 	0.35890 0.34530 0.88380 -0.46400
O 	O 	0.41340 0.36780 0.80640 -0.58900
C 	C 	0.59340 0.31020 0.01250 -0.16700
C 	C 	0.66610 0.31340 0.99340 0.11500
C 	C 	0.66350 0.32650 0.93200 -0.12100
C 	C 	0.58440 0.33610 0.88560 0.28600
C 	C 	0.51050 0.33410 0.90530 -0.28900
C 	C 	0.51660 0.31980 0.96950 0.14900
C 	C 	0.42410 0.34890 0.86330 0.45300
S 	S 	0.81320 0.53200 0.05960 0.57800
O 	O 	0.82770 0.44670 0.08200 -0.24700
O 	O 	0.88430 0.54730 0.04110 -0.37000
O 	O 	0.78690 0.56230 0.10830 -0.46000
O 	O 	0.51980 0.50560 0.83420 -0.42700
O 	O 	0.77060 0.49120 0.81940 -0.43100
O 	O 	0.63680 0.47800 0.77030 -0.57600
C 	C 	0.72550 0.52610 0.99270 -0.18100
C 	C 	0.64170 0.53250 0.99630 0.09600
C 	C 	0.57600 0.52560 0.94390 -0.09700
C 	C 	0.58830 0.51230 0.88340 0.28500
C 	C 	0.67220 0.50850 0.88020 -0.27000
C 	C 	0.73980 0.51570 0.93450 0.14300
C 	C 	0.69460 0.49290 0.82070 0.44700
O 	O 	0.18310 0.30520 0.81620 -0.34700
Na	Na	0.23040 0.78210 0.57200 0.57700
O 	O 	0.33360 0.70310 0.54560 -0.25900
La	La	0.24050 0.92420 0.70950 1.51900
S 	S 	0.89990 0.78860 0.40840 0.28700
O 	O 	0.83960 0.83920 0.36870 -0.20800
O 	O 	0.98430 0.79360 0.40100 -0.15100
O 	O 	0.91500 0.84560 0.67440 -0.37200
O 	O 	0.14110 0.84530 0.61620 -0.45400
O 	O 	0.08660 0.86780 0.69360 -0.55900
C 	C 	0.90660 0.81020 0.48750 -0.10200
C 	C 	0.83390 0.81340 0.50660 0.07300
C 	C 	0.83650 0.82650 0.56800 -0.09100
C 	C 	0.91560 0.83610 0.61440 0.23700
C 	C 	0.98950 0.83410 0.59470 -0.14200
C 	C 	0.98340 0.81980 0.53050 0.13200
C 	C 	0.07590 0.84890 0.63670 0.31400
S 	S 	0.68680 0.03200 0.44040 0.57500
O 	O 	0.67230 0.94670 0.41800 -0.24200
O 	O 	0.61570 0.04730 0.45890 -0.40700
O 	O 	0.71310 0.06230 0.39170 -0.46800
O 	O 	0.98020 0.00560 0.66580 -0.35100
O 	O 	0.72940 0.99120 0.68060 -0.43900
O 	O 	0.86320 0.97800 0.72970 -0.51900
C 	C 	0.77450 0.02610 0.50730 -0.18900
C 	C 	0.85830 0.03250 0.50370 0.09300
C 	C 	0.92400 0.02560 0.55610 -0.05600
C 	C 	0.91170 0.01230 0.61660 0.26800
C 	C 	0.82780 0.00850 0.61980 -0.26900
C 	C 	0.76020 0.01570 0.56550 0.12000
C 	C 	0.80540 0.99290 0.67930 0.45200
O 	O 	0.31690 0.80520 0.68380 -0.33000
Na	Na	0.73040 0.28210 0.57200 0.58200
O 	O 	0.83360 0.20310 0.54560 -0.22500
La	La	0.74050 0.42420 0.70950 1.53600
S 	S 	0.39990 0.28860 0.40840 0.27300
O 	O 	0.33960 0.33920 0.36870 -0.23000
O 	O 	0.48430 0.29360 0.40100 -0.20600
O 	O 	0.41500 0.34560 0.67440 -0.44800
O 	O 	0.64110 0.34530 0.61620 -0.46500
O 	O 	0.58660 0.36780 0.69360 -0.58700
C 	C 	0.40660 0.31020 0.48750 -0.11700
C 	C 	0.33390 0.31340 0.50660 0.07400
C 	C 	0.33650 0.32650 0.56800 -0.11800
C 	C 	0.41560 0.33610 0.61440 0.27800
C 	C 	0.48950 0.33410 0.59470 -0.27600
C 	C 	0.48340 0.31980 0.53050 0.11400
C 	C 	0.57590 0.34890 0.63670 0.44800
S 	S 	0.18680 0.53200 0.44040 0.59800
O 	O 	0.17230 0.44670 0.41800 -0.28100
O 	O 	0.11570 0.54730 0.45890 -0.43800
O 	O 	0.21310 0.56230 0.39170 -0.48200
O 	O 	0.48020 0.50560 0.66580 -0.42800
O 	O 	0.22940 0.49120 0.68060 -0.46500
O 	O 	0.36320 0.47800 0.72970 -0.57800
C 	C 	0.27450 0.52610 0.50730 -0.19500
C 	C 	0.35830 0.53250 0.50370 0.09100
C 	C 	0.42400 0.52560 0.55610 -0.10000
C 	C 	0.41170 0.51230 0.61660 0.28500
C 	C 	0.32780 0.50850 0.61980 -0.27300
C 	C 	0.26020 0.51570 0.56550 0.12000
C 	C 	0.30540 0.49290 0.67930 0.44800
O 	O 	0.81690 0.30520 0.68380 -0.30600
Na	Na	0.50000 0.00000 -0.00000 0.56400
Na	Na	-0.00000 0.50000 -0.00000 0.55200
Na	Na	0.50000 -0.00000 0.50000 0.56600
Na	Na	-0.00000 0.50000 0.50000 0.55400
Tb	Tb	0.00000 0.07690 0.25000 1.79200
Tb	Tb	0.50000 0.57690 0.25000 2.11000
Tb	Tb	0.00000 0.92310 0.75000 1.86100
Tb	Tb	0.50000 0.42310 0.75000 2.11100
