data_crystal

_cell_length_a 7.02000
_cell_length_b 8.22700
_cell_length_c 8.52920
_cell_angle_alpha 113.30800
_cell_angle_beta  114.30100
_cell_angle_gamma 90.00000

_symmetry_space_group_name_	'P 1'
_symmetry_space_group_name_H-M	'P 1'

loop_
_symmetry_equiv_pos_as_xyz
  x,y,z

loop_
_atom_site_label
_atom_site_type_symbol
_atom_site_fract_x
_atom_site_fract_y
_atom_site_fract_z
_atom_site_charge
Co	Co	1.00000 0.50000 0.50000 1.07200
Co	Co	0.50000 0.00000 0.50000 1.12200
H 	H 	0.40130 0.94100 0.08460 0.25200
H 	H 	0.31670 0.55900 0.91540 0.11400
H 	H 	0.59870 0.05900 0.91540 -0.09200
H 	H 	0.68330 0.44100 0.08460 0.05500
C 	C 	0.65734 0.15133 0.27230 0.48900
C 	C 	0.49966 0.00982 0.08132 -0.48800
C 	C 	0.38504 0.34867 0.72770 0.38500
C 	C 	0.41834 0.49018 0.91868 -0.19700
C 	C 	0.34266 0.84867 0.72770 0.25300
C 	C 	0.50034 0.99018 0.91868 0.20400
C 	C 	0.61496 0.65133 0.27230 0.35800
C 	C 	0.58166 0.50982 0.08132 -0.09400
O 	O 	0.79344 0.25640 0.27874 -0.50100
O 	O 	0.64420 0.15954 0.41978 -0.51000
O 	O 	0.51470 0.24360 0.72126 -0.44900
O 	O 	0.22442 0.34046 0.58022 -0.38800
O 	O 	0.20656 0.74360 0.72126 -0.33400
O 	O 	0.35580 0.84046 0.58022 -0.36900
O 	O 	0.48530 0.75640 0.27874 -0.40400
O 	O 	0.77558 0.65954 0.41978 -0.47800
