data_crystal

_cell_length_a 22.28970
_cell_length_b 16.89270
_cell_length_c 16.49760
_cell_angle_alpha 90.00000
_cell_angle_beta  104.07900
_cell_angle_gamma 90.00000

_symmetry_space_group_name_	'P 1'
_symmetry_space_group_name_H-M	'P 1'

loop_
_symmetry_equiv_pos_as_xyz
  x,y,z

loop_
_atom_site_label
_atom_site_type_symbol
_atom_site_fract_x
_atom_site_fract_y
_atom_site_fract_z
_atom_site_charge
O 	O 	0.95386 0.91538 0.56764 -0.48200
O 	O 	0.05665 0.91623 0.60630 -0.47200
O 	O 	0.64890 0.86603 0.46250 -0.24300
C 	C 	0.99993 0.66929 0.93365 0.08700
C 	C 	0.99991 0.75030 0.95914 -0.16000
H 	H 	0.99980 0.79460 0.92560 0.07900
C 	C 	0.99979 0.64414 0.85224 -0.19200
C 	C 	0.99867 0.56496 0.82619 0.09200
C 	C 	0.99948 0.53940 0.74311 -0.08600
H 	H 	0.99990 0.57200 0.69780 0.06700
C 	C 	0.00064 0.70753 0.78892 0.19500
C 	C 	0.94855 0.72980 0.73213 -0.24000
H 	H 	0.91130 0.70510 0.73220 0.11600
C 	C 	0.94969 0.78873 0.67381 0.14000
H 	H 	0.91330 0.80290 0.63560 -0.00000
C 	C 	0.00340 0.82605 0.67190 -0.20000
C 	C 	0.05649 0.80244 0.72770 0.13900
H 	H 	0.09400 0.82570 0.72610 -0.00700
C 	C 	0.05512 0.74433 0.78660 -0.23300
H 	H 	0.09150 0.73010 0.82490 0.10300
C 	C 	0.00460 0.89093 0.61010 0.43600
C 	C 	0.79607 0.01990 0.39970 -0.37000
H 	H 	0.19060 0.03380 0.64760 0.13200
C 	C 	0.73205 0.02190 0.39410 -0.59600
H 	H 	0.70360 0.03700 0.34550 0.22600
C 	C 	0.75687 0.01650 0.53460 -0.15700
H 	H 	0.25500 0.02890 0.41660 0.08700
C 	C 	0.81845 0.01530 0.53430 -0.03500
H 	H 	0.84760 0.97440 0.58400 -0.02000
C 	C 	0.62224 0.92632 0.47060 0.21400
C 	C 	0.55895 0.92710 0.48567 -0.05800
C 	C 	0.52951 0.85737 0.49205 -0.02900
H 	H 	0.54870 0.80960 0.48580 0.05900
O 	O 	0.04614 0.91538 0.43236 -0.47400
O 	O 	0.94335 0.91623 0.39370 -0.47000
O 	O 	0.35110 0.86603 0.53750 -0.24300
C 	C 	0.00007 0.66929 0.06635 0.07600
C 	C 	0.00009 0.75030 0.04086 -0.00900
H 	H 	0.00020 0.79460 0.07440 0.04300
C 	C 	0.00021 0.64414 0.14776 -0.16500
C 	C 	0.00133 0.56496 0.17381 0.09200
C 	C 	0.00052 0.53940 0.25689 -0.08200
H 	H 	0.00010 0.57200 0.30220 0.06900
C 	C 	0.99936 0.70753 0.21108 0.16500
C 	C 	0.05145 0.72980 0.26787 -0.21400
H 	H 	0.08870 0.70510 0.26780 0.11100
C 	C 	0.05031 0.78873 0.32619 0.13700
H 	H 	0.08670 0.80290 0.36440 0.00300
C 	C 	0.99660 0.82605 0.32810 -0.19700
C 	C 	0.94351 0.80244 0.27230 0.13000
H 	H 	0.90600 0.82570 0.27390 -0.00000
C 	C 	0.94488 0.74433 0.21340 -0.21500
H 	H 	0.90850 0.73010 0.17510 0.10300
C 	C 	0.99540 0.89093 0.38990 0.42600
C 	C 	0.20393 0.01990 0.60030 -0.36700
H 	H 	0.80940 0.03380 0.35240 0.13600
C 	C 	0.26795 0.02190 0.60590 -0.59200
H 	H 	0.29640 0.03700 0.65450 0.22200
C 	C 	0.24313 0.01650 0.46540 -0.15700
H 	H 	0.74500 0.02890 0.58340 0.08500
C 	C 	0.18155 0.01530 0.46570 -0.03400
H 	H 	0.15240 0.97440 0.41600 -0.01800
C 	C 	0.37776 0.92632 0.52940 0.21400
C 	C 	0.44105 0.92710 0.51433 -0.05700
C 	C 	0.47049 0.85737 0.50795 -0.02900
H 	H 	0.45130 0.80960 0.51420 0.05900
O 	O 	0.04614 0.08462 0.43236 -0.46700
O 	O 	0.94335 0.08377 0.39370 -0.46400
O 	O 	0.35110 0.13397 0.53750 -0.21900
C 	C 	0.00007 0.33071 0.06635 0.07600
C 	C 	0.00009 0.24970 0.04086 -0.00900
H 	H 	0.00020 0.20540 0.07440 0.04300
C 	C 	0.00021 0.35586 0.14776 -0.16300
C 	C 	0.00133 0.43504 0.17381 0.09100
C 	C 	0.00052 0.46060 0.25689 -0.08100
H 	H 	0.00010 0.42800 0.30220 0.06900
C 	C 	0.99936 0.29247 0.21108 0.16000
C 	C 	0.05145 0.27020 0.26787 -0.20700
H 	H 	0.08870 0.29490 0.26780 0.10900
C 	C 	0.05031 0.21127 0.32619 0.12900
H 	H 	0.08670 0.19710 0.36440 0.01100
C 	C 	0.99660 0.17395 0.32810 -0.18800
C 	C 	0.94351 0.19756 0.27230 0.12300
H 	H 	0.90600 0.17430 0.27390 0.00400
C 	C 	0.94488 0.25567 0.21340 -0.20900
H 	H 	0.90850 0.26990 0.17510 0.10200
C 	C 	0.99540 0.10907 0.38990 0.42100
C 	C 	0.20393 0.98010 0.60030 0.44800
H 	H 	0.80940 0.96620 0.35240 -0.13000
C 	C 	0.26795 0.97810 0.60590 0.42400
H 	H 	0.29640 0.96300 0.65450 -0.10400
C 	C 	0.24313 0.98350 0.46540 -0.00100
H 	H 	0.74500 0.97110 0.58340 0.03000
C 	C 	0.18155 0.98470 0.46570 0.10300
H 	H 	0.15240 0.02560 0.41600 0.03400
C 	C 	0.37776 0.07368 0.52940 0.21500
C 	C 	0.44105 0.07290 0.51433 -0.05900
C 	C 	0.47049 0.14263 0.50795 -0.02900
H 	H 	0.45130 0.19040 0.51420 0.05900
O 	O 	0.95386 0.08462 0.56764 -0.47600
O 	O 	0.05665 0.08377 0.60630 -0.46700
O 	O 	0.64890 0.13397 0.46250 -0.21800
C 	C 	0.99993 0.33071 0.93365 0.08600
C 	C 	0.99991 0.24970 0.95914 -0.16000
H 	H 	0.99980 0.20540 0.92560 0.07900
C 	C 	0.99979 0.35586 0.85224 -0.19100
C 	C 	0.99867 0.43504 0.82619 0.09200
C 	C 	0.99948 0.46060 0.74311 -0.08500
H 	H 	0.99990 0.42800 0.69780 0.06700
C 	C 	0.00064 0.29247 0.78892 0.19000
C 	C 	0.94855 0.27020 0.73213 -0.23300
H 	H 	0.91130 0.29490 0.73220 0.11400
C 	C 	0.94969 0.21127 0.67381 0.13200
H 	H 	0.91330 0.19710 0.63560 0.00700
C 	C 	0.00340 0.17395 0.67190 -0.19100
C 	C 	0.05649 0.19756 0.72770 0.13200
H 	H 	0.09400 0.17430 0.72610 -0.00300
C 	C 	0.05512 0.25567 0.78660 -0.22700
H 	H 	0.09150 0.26990 0.82490 0.10200
C 	C 	0.00460 0.10907 0.61010 0.43100
C 	C 	0.79607 0.98010 0.39970 0.45000
H 	H 	0.19060 0.96620 0.64760 -0.13100
C 	C 	0.73205 0.97810 0.39410 0.42700
H 	H 	0.70360 0.96300 0.34550 -0.10300
C 	C 	0.75687 0.98350 0.53460 0.00000
H 	H 	0.25500 0.97110 0.41660 0.03200
C 	C 	0.81845 0.98470 0.53430 0.10400
H 	H 	0.84760 0.02560 0.58400 0.03300
C 	C 	0.62224 0.07368 0.47060 0.21500
C 	C 	0.55895 0.07290 0.48567 -0.06000
C 	C 	0.52951 0.14263 0.49205 -0.02900
H 	H 	0.54870 0.19040 0.48580 0.05800
Zn	Zn	0.98348 0.50000 0.99467 0.76200
N 	N 	0.99893 0.50000 0.87650 -0.35500
Zn	Zn	0.01652 0.50000 0.00533 0.80300
N 	N 	0.00107 0.50000 0.12350 -0.34100
Zn	Zn	0.93155 0.00000 0.47638 1.21600
N 	N 	0.83788 0.00000 0.46630 -0.24700
N 	N 	0.64933 0.00000 0.46695 -0.19500
C 	C 	0.71431 0.00000 0.46490 0.17200
C 	C 	0.52987 -0.00000 0.49210 0.02300
Zn	Zn	0.06845 0.00000 0.52362 1.21700
N 	N 	0.16212 0.00000 0.53370 -0.24800
N 	N 	0.35067 -0.00000 0.53305 -0.19500
C 	C 	0.28569 0.00000 0.53510 0.17300
C 	C 	0.47013 0.00000 0.50790 0.02300
N 	N 	-0.00000 0.62072 -0.00000 -0.32200
N 	N 	-0.00000 0.37928 -0.00000 -0.32200
O 	O 	0.45386 0.41538 0.56764 -0.47600
O 	O 	0.55665 0.41623 0.60630 -0.47000
O 	O 	0.14890 0.36603 0.46250 -0.23100
C 	C 	0.49993 0.16929 0.93365 0.08500
C 	C 	0.49991 0.25030 0.95914 -0.15100
H 	H 	0.49980 0.29460 0.92560 0.07700
C 	C 	0.49979 0.14414 0.85224 -0.18600
C 	C 	0.49867 0.06496 0.82619 0.09200
C 	C 	0.49948 0.03940 0.74311 -0.09000
H 	H 	0.49990 0.07200 0.69780 0.06900
C 	C 	0.50064 0.20753 0.78892 0.18100
C 	C 	0.44855 0.22980 0.73213 -0.22700
H 	H 	0.41130 0.20510 0.73220 0.11400
C 	C 	0.44969 0.28873 0.67381 0.13600
H 	H 	0.41330 0.30290 0.63560 0.00500
C 	C 	0.50340 0.32605 0.67190 -0.19600
C 	C 	0.55649 0.30244 0.72770 0.13200
H 	H 	0.59400 0.32570 0.72610 -0.00400
C 	C 	0.55512 0.24433 0.78660 -0.22500
H 	H 	0.59150 0.23010 0.82490 0.10000
C 	C 	0.50460 0.39093 0.61010 0.42900
C 	C 	0.29607 0.51990 0.39970 -0.02200
H 	H 	0.69060 0.53380 0.64760 0.02000
C 	C 	0.23205 0.52190 0.39410 -0.16200
H 	H 	0.20360 0.53700 0.34550 0.08600
C 	C 	0.25687 0.51650 0.53460 -0.09100
H 	H 	0.75500 0.52890 0.41660 0.06300
C 	C 	0.31845 0.51530 0.53430 0.02400
H 	H 	0.34760 0.47440 0.58400 0.00300
C 	C 	0.12224 0.42632 0.47060 0.21600
C 	C 	0.05895 0.42710 0.48567 -0.06800
C 	C 	0.02951 0.35737 0.49205 -0.01400
H 	H 	0.04870 0.30960 0.48580 0.05600
O 	O 	0.54614 0.41538 0.43236 -0.47500
O 	O 	0.44335 0.41623 0.39370 -0.46800
O 	O 	0.85110 0.36603 0.53750 -0.22900
C 	C 	0.50007 0.16929 0.06635 0.08100
C 	C 	0.50009 0.25030 0.04086 -0.01900
H 	H 	0.50020 0.29460 0.07440 0.04500
C 	C 	0.50021 0.14414 0.14776 -0.17400
C 	C 	0.50133 0.06496 0.17381 0.09500
C 	C 	0.50052 0.03940 0.25689 -0.08900
H 	H 	0.50010 0.07200 0.30220 0.07000
C 	C 	0.49936 0.20753 0.21108 0.17900
C 	C 	0.55145 0.22980 0.26787 -0.22400
H 	H 	0.58870 0.20510 0.26780 0.11500
C 	C 	0.55031 0.28873 0.32619 0.13700
H 	H 	0.58670 0.30290 0.36440 0.00600
C 	C 	0.49660 0.32605 0.32810 -0.19400
C 	C 	0.44351 0.30244 0.27230 0.13300
H 	H 	0.40600 0.32570 0.27390 0.00000
C 	C 	0.44488 0.24433 0.21340 -0.22100
H 	H 	0.40850 0.23010 0.17510 0.10700
C 	C 	0.49540 0.39093 0.38990 0.43000
C 	C 	0.70393 0.51990 0.60030 -0.02200
H 	H 	0.30940 0.53380 0.35240 0.02300
C 	C 	0.76795 0.52190 0.60590 -0.16300
H 	H 	0.79640 0.53700 0.65450 0.08400
C 	C 	0.74313 0.51650 0.46540 -0.09200
H 	H 	0.24500 0.52890 0.58340 0.06100
C 	C 	0.68155 0.51530 0.46570 0.02400
H 	H 	0.65240 0.47440 0.41600 0.00400
C 	C 	0.87776 0.42632 0.52940 0.21000
C 	C 	0.94105 0.42710 0.51433 -0.05100
C 	C 	0.97049 0.35737 0.50795 -0.04300
H 	H 	0.95130 0.30960 0.51420 0.06400
O 	O 	0.54614 0.58462 0.43236 -0.47500
O 	O 	0.44335 0.58377 0.39370 -0.46700
O 	O 	0.85110 0.63397 0.53750 -0.23100
C 	C 	0.50007 0.83071 0.06635 0.08000
C 	C 	0.50009 0.74970 0.04086 -0.01900
H 	H 	0.50020 0.70540 0.07440 0.04500
C 	C 	0.50021 0.85586 0.14776 -0.17300
C 	C 	0.50133 0.93504 0.17381 0.09500
C 	C 	0.50052 0.96060 0.25689 -0.07800
H 	H 	0.50010 0.92800 0.30220 0.06700
C 	C 	0.49936 0.79247 0.21108 0.17800
C 	C 	0.55145 0.77020 0.26787 -0.22300
H 	H 	0.58870 0.79490 0.26780 0.11300
C 	C 	0.55031 0.71127 0.32619 0.13500
H 	H 	0.58670 0.69710 0.36440 0.00500
C 	C 	0.49660 0.67395 0.32810 -0.19300
C 	C 	0.44351 0.69756 0.27230 0.13200
H 	H 	0.40600 0.67430 0.27390 0.00000
C 	C 	0.44488 0.75567 0.21340 -0.22000
H 	H 	0.40850 0.76990 0.17510 0.10700
C 	C 	0.49540 0.60907 0.38990 0.42900
C 	C 	0.70393 0.48010 0.60030 0.10200
H 	H 	0.30940 0.46620 0.35240 -0.01700
C 	C 	0.76795 0.47810 0.60590 -0.00800
H 	H 	0.79640 0.46300 0.65450 0.03400
C 	C 	0.74313 0.48350 0.46540 -0.06800
H 	H 	0.24500 0.47110 0.58340 0.05400
C 	C 	0.68155 0.48470 0.46570 0.04500
H 	H 	0.65240 0.52560 0.41600 0.01200
C 	C 	0.87776 0.57368 0.52940 0.21200
C 	C 	0.94105 0.57290 0.51433 -0.05200
C 	C 	0.97049 0.64263 0.50795 -0.04300
H 	H 	0.95130 0.69040 0.51420 0.06100
O 	O 	0.45386 0.58462 0.56764 -0.47600
O 	O 	0.55665 0.58377 0.60630 -0.46900
O 	O 	0.14890 0.63397 0.46250 -0.23300
C 	C 	0.49993 0.83071 0.93365 0.08500
C 	C 	0.49991 0.74970 0.95914 -0.15100
H 	H 	0.49980 0.70540 0.92560 0.07700
C 	C 	0.49979 0.85586 0.85224 -0.18400
C 	C 	0.49867 0.93504 0.82619 0.09100
C 	C 	0.49948 0.96060 0.74311 -0.07900
H 	H 	0.49990 0.92800 0.69780 0.06600
C 	C 	0.50064 0.79247 0.78892 0.18000
C 	C 	0.44855 0.77020 0.73213 -0.22600
H 	H 	0.41130 0.79490 0.73220 0.11100
C 	C 	0.44969 0.71127 0.67381 0.13500
H 	H 	0.41330 0.69710 0.63560 0.00400
C 	C 	0.50340 0.67395 0.67190 -0.19500
C 	C 	0.55649 0.69756 0.72770 0.13100
H 	H 	0.59400 0.67430 0.72610 -0.00400
C 	C 	0.55512 0.75567 0.78660 -0.22300
H 	H 	0.59150 0.76990 0.82490 0.10000
C 	C 	0.50460 0.60907 0.61010 0.42800
C 	C 	0.29607 0.48010 0.39970 0.10200
H 	H 	0.69060 0.46620 0.64760 -0.02000
C 	C 	0.23205 0.47810 0.39410 -0.00800
H 	H 	0.20360 0.46300 0.34550 0.03700
C 	C 	0.25687 0.48350 0.53460 -0.06800
H 	H 	0.75500 0.47110 0.41660 0.05600
C 	C 	0.31845 0.48470 0.53430 0.04500
H 	H 	0.34760 0.52560 0.58400 0.01000
C 	C 	0.12224 0.57368 0.47060 0.21800
C 	C 	0.05895 0.57290 0.48567 -0.06900
C 	C 	0.02951 0.64263 0.49205 -0.01400
H 	H 	0.04870 0.69040 0.48580 0.05300
Zn	Zn	0.48348 0.00000 0.99467 0.76400
N 	N 	0.49893 0.00000 0.87650 -0.35500
Zn	Zn	0.51652 0.00000 0.00533 0.80100
N 	N 	0.50107 0.00000 0.12350 -0.34400
Zn	Zn	0.43155 0.50000 0.47638 1.21700
N 	N 	0.33788 0.50000 0.46630 -0.24600
N 	N 	0.14933 0.50000 0.46695 -0.19600
C 	C 	0.21431 0.50000 0.46490 0.17600
C 	C 	0.02987 0.50000 0.49210 0.03700
Zn	Zn	0.56845 0.50000 0.52362 1.21700
N 	N 	0.66212 0.50000 0.53370 -0.24600
N 	N 	0.85067 0.50000 0.53305 -0.19400
C 	C 	0.78569 0.50000 0.53510 0.17500
C 	C 	0.97013 0.50000 0.50790 0.01300
N 	N 	0.50000 0.12072 -0.00000 -0.32500
N 	N 	0.50000 0.87928 -0.00000 -0.32400
