data_crystal

_cell_length_a 11.99300
_cell_length_b 19.63200
_cell_length_c 18.14300
_cell_angle_alpha 90.00000
_cell_angle_beta  102.06000
_cell_angle_gamma 90.00000

_symmetry_space_group_name_	'P 1'
_symmetry_space_group_name_H-M	'P 1'

loop_
_symmetry_equiv_pos_as_xyz
  x,y,z

loop_
_atom_site_label
_atom_site_type_symbol
_atom_site_fract_x
_atom_site_fract_y
_atom_site_fract_z
_atom_site_charge
Mg	Mg	0.84375 0.85471 0.73074 1.46100
O 	O 	0.91840 0.91791 0.81631 -0.60000
O 	O 	0.10760 0.91074 0.85257 -0.56900
O 	O 	0.20960 0.98840 0.96260 -0.35700
H 	H 	0.20570 0.96750 0.92300 0.25100
O 	O 	0.79360 0.79979 0.81470 -0.55600
O 	O 	0.94610 0.74048 0.87022 -0.38600
O 	O 	0.95420 0.68577 0.99872 -0.39700
H 	H 	0.97530 0.69410 0.95950 0.26900
C 	C 	0.01110 0.92848 0.86188 0.55700
C 	C 	0.00530 0.96605 0.93301 -0.18500
C 	C 	0.10420 0.99255 0.97870 0.15600
C 	C 	0.90070 0.97318 0.95522 0.11300
C 	C 	0.84990 0.76712 0.86902 0.44200
C 	C 	0.79930 0.75826 0.93759 -0.24900
C 	C 	0.85140 0.71644 0.99700 0.18000
C 	C 	0.69860 0.79193 0.94123 0.22600
H 	H 	0.99000 0.77300 0.78800 0.31800
O 	O 	0.79830 0.95360 0.91410 -0.34500
H 	H 	0.80740 0.93370 0.87610 0.23000
O 	O 	0.65810 0.83790 0.89270 -0.40400
H 	H 	0.70010 0.84230 0.86270 0.26600
Mg	Mg	0.34375 0.35471 0.73074 1.46500
O 	O 	0.41840 0.41791 0.81631 -0.55200
O 	O 	0.60760 0.41074 0.85257 -0.57300
O 	O 	0.70960 0.48840 0.96260 -0.37700
H 	H 	0.70570 0.46750 0.92300 0.25200
O 	O 	0.29360 0.29979 0.81470 -0.54400
O 	O 	0.44610 0.24048 0.87022 -0.37500
O 	O 	0.45420 0.18577 0.99872 -0.38700
H 	H 	0.47530 0.19410 0.95950 0.27400
C 	C 	0.51110 0.42848 0.86188 0.51200
C 	C 	0.50530 0.46605 0.93301 -0.25600
C 	C 	0.60420 0.49255 0.97870 0.19200
C 	C 	0.40070 0.47318 0.95522 0.19000
C 	C 	0.34990 0.26712 0.86902 0.44200
C 	C 	0.29930 0.25826 0.93759 -0.24300
C 	C 	0.35140 0.21644 0.99700 0.18200
C 	C 	0.19860 0.29193 0.94123 0.22700
H 	H 	0.49000 0.27300 0.78800 0.38400
O 	O 	0.29830 0.45360 0.91410 -0.35900
H 	H 	0.30740 0.43370 0.87610 0.24200
O 	O 	0.15810 0.33790 0.89270 -0.39400
H 	H 	0.20010 0.34230 0.86270 0.26700
Mg	Mg	0.15625 0.85471 0.76926 1.46400
O 	O 	0.08160 0.91791 0.68369 -0.51300
O 	O 	0.89240 0.91074 0.64743 -0.57200
O 	O 	0.79040 0.98840 0.53740 -0.38600
H 	H 	0.79430 0.96750 0.57700 0.25700
O 	O 	0.20640 0.79979 0.68530 -0.54600
O 	O 	0.05390 0.74048 0.62978 -0.35700
O 	O 	0.04580 0.68577 0.50128 -0.37300
H 	H 	0.02470 0.69410 0.54050 0.28000
C 	C 	0.98890 0.92848 0.63812 0.46500
C 	C 	0.99470 0.96605 0.56699 -0.32200
C 	C 	0.89580 0.99255 0.52130 0.22000
C 	C 	0.09930 0.97318 0.54478 0.25800
C 	C 	0.15010 0.76712 0.63098 0.44000
C 	C 	0.20070 0.75826 0.56241 -0.23700
C 	C 	0.14860 0.71644 0.50300 0.17700
C 	C 	0.30140 0.79193 0.55877 0.21800
H 	H 	0.01000 0.77300 0.71200 0.36700
O 	O 	0.20170 0.95360 0.58590 -0.38400
H 	H 	0.19260 0.93370 0.62390 0.25300
O 	O 	0.34190 0.83790 0.60730 -0.40200
H 	H 	0.29990 0.84230 0.63730 0.26600
Mg	Mg	0.65625 0.35471 0.76926 1.46300
O 	O 	0.58160 0.41791 0.68369 -0.55500
O 	O 	0.39240 0.41074 0.64743 -0.56300
O 	O 	0.29040 0.48840 0.53740 -0.36500
H 	H 	0.29430 0.46750 0.57700 0.25700
O 	O 	0.70640 0.29979 0.68530 -0.55600
O 	O 	0.55390 0.24048 0.62978 -0.37400
O 	O 	0.54580 0.18577 0.50128 -0.38400
H 	H 	0.52470 0.19410 0.54050 0.27500
C 	C 	0.48890 0.42848 0.63812 0.51100
C 	C 	0.49470 0.46605 0.56699 -0.25100
C 	C 	0.39580 0.49255 0.52130 0.18600
C 	C 	0.59930 0.47318 0.54478 0.18300
C 	C 	0.65010 0.26712 0.63098 0.44100
C 	C 	0.70070 0.25826 0.56241 -0.24300
C 	C 	0.64860 0.21644 0.50300 0.17400
C 	C 	0.80140 0.29193 0.55877 0.21600
H 	H 	0.51000 0.27300 0.71200 0.38500
O 	O 	0.70170 0.45360 0.58590 -0.36900
H 	H 	0.69260 0.43370 0.62390 0.24000
O 	O 	0.84190 0.33790 0.60730 -0.41200
H 	H 	0.79990 0.34230 0.63730 0.26500
Mg	Mg	0.15625 0.14529 0.26926 1.46400
O 	O 	0.08160 0.08209 0.18369 -0.51300
O 	O 	0.89240 0.08926 0.14743 -0.57200
O 	O 	0.79040 0.01160 0.03740 -0.38600
H 	H 	0.79430 0.03250 0.07700 0.25700
O 	O 	0.20640 0.20021 0.18530 -0.54600
O 	O 	0.05390 0.25952 0.12978 -0.35700
O 	O 	0.04580 0.31423 0.00128 -0.37300
H 	H 	0.02470 0.30590 0.04050 0.27900
C 	C 	0.98890 0.07152 0.13812 0.46400
C 	C 	0.99470 0.03395 0.06699 -0.32000
C 	C 	0.89580 0.00745 0.02130 0.21400
C 	C 	0.09930 0.02682 0.04478 0.25400
C 	C 	0.15010 0.23288 0.13098 0.43900
C 	C 	0.20070 0.24174 0.06241 -0.23300
C 	C 	0.14860 0.28356 0.00300 0.17000
C 	C 	0.30140 0.20807 0.05877 0.21100
H 	H 	0.01000 0.22700 0.21200 0.36700
O 	O 	0.20170 0.04640 0.08590 -0.38400
H 	H 	0.19260 0.06630 0.12390 0.25200
O 	O 	0.34190 0.16210 0.10730 -0.40100
H 	H 	0.29990 0.15770 0.13730 0.26500
Mg	Mg	0.65625 0.64529 0.26926 1.46300
O 	O 	0.58160 0.58209 0.18369 -0.55500
O 	O 	0.39240 0.58926 0.14743 -0.56300
O 	O 	0.29040 0.51160 0.03740 -0.36500
H 	H 	0.29430 0.53250 0.07700 0.25600
O 	O 	0.70640 0.70021 0.18530 -0.55600
O 	O 	0.55390 0.75952 0.12978 -0.37400
O 	O 	0.54580 0.81423 0.00128 -0.38400
H 	H 	0.52470 0.80590 0.04050 0.27400
C 	C 	0.48890 0.57152 0.13812 0.50900
C 	C 	0.49470 0.53395 0.06699 -0.24800
C 	C 	0.39580 0.50745 0.02130 0.17900
C 	C 	0.59930 0.52682 0.04478 0.17500
C 	C 	0.65010 0.73288 0.13098 0.44000
C 	C 	0.70070 0.74174 0.06241 -0.23900
C 	C 	0.64860 0.78356 0.00300 0.16600
C 	C 	0.80140 0.70807 0.05877 0.20800
H 	H 	0.51000 0.72700 0.21200 0.38400
O 	O 	0.70170 0.54640 0.08590 -0.36900
H 	H 	0.69260 0.56630 0.12390 0.24000
O 	O 	0.84190 0.66210 0.10730 -0.41100
H 	H 	0.79990 0.65770 0.13730 0.26400
Mg	Mg	0.84375 0.14529 0.23074 1.46200
O 	O 	0.91840 0.08209 0.31631 -0.60000
O 	O 	0.10760 0.08926 0.35257 -0.56900
O 	O 	0.20960 0.01160 0.46260 -0.35600
H 	H 	0.20570 0.03250 0.42300 0.25100
O 	O 	0.79360 0.20021 0.31470 -0.55600
O 	O 	0.94610 0.25952 0.37022 -0.38600
O 	O 	0.95420 0.31423 0.49872 -0.39700
H 	H 	0.97530 0.30590 0.45950 0.26800
C 	C 	0.01110 0.07152 0.36188 0.55700
C 	C 	0.00530 0.03395 0.43301 -0.18200
C 	C 	0.10420 0.00745 0.47870 0.15200
C 	C 	0.90070 0.02682 0.45522 0.10700
C 	C 	0.84990 0.23288 0.36902 0.44100
C 	C 	0.79930 0.24174 0.43759 -0.24500
C 	C 	0.85140 0.28356 0.49700 0.17200
C 	C 	0.69860 0.20807 0.44123 0.21800
H 	H 	0.99000 0.22700 0.28800 0.31700
O 	O 	0.79830 0.04640 0.41410 -0.34500
H 	H 	0.80740 0.06630 0.37610 0.23000
O 	O 	0.65810 0.16210 0.39270 -0.40300
H 	H 	0.70010 0.15770 0.36270 0.26500
Mg	Mg	0.34375 0.64529 0.23074 1.46400
O 	O 	0.41840 0.58209 0.31631 -0.55200
O 	O 	0.60760 0.58926 0.35257 -0.57300
O 	O 	0.70960 0.51160 0.46260 -0.37700
H 	H 	0.70570 0.53250 0.42300 0.25100
O 	O 	0.29360 0.70021 0.31470 -0.54400
O 	O 	0.44610 0.75952 0.37022 -0.37600
O 	O 	0.45420 0.81423 0.49872 -0.38600
H 	H 	0.47530 0.80590 0.45950 0.27300
C 	C 	0.51110 0.57152 0.36188 0.51100
C 	C 	0.50530 0.53395 0.43301 -0.25200
C 	C 	0.60420 0.50745 0.47870 0.18500
C 	C 	0.40070 0.52682 0.45522 0.18300
C 	C 	0.34990 0.73288 0.36902 0.44100
C 	C 	0.29930 0.74174 0.43759 -0.23900
C 	C 	0.35140 0.78356 0.49700 0.17500
C 	C 	0.19860 0.70807 0.44123 0.22000
H 	H 	0.49000 0.72700 0.28800 0.38300
O 	O 	0.29830 0.54640 0.41410 -0.35900
H 	H 	0.30740 0.56630 0.37610 0.24200
O 	O 	0.15810 0.66210 0.39270 -0.39200
H 	H 	0.20010 0.65770 0.36270 0.26600
O 	O 	0.00000 0.79754 0.75000 -0.97300
O 	O 	0.50000 0.29754 0.75000 -1.06600
O 	O 	0.00000 0.20246 0.25000 -0.97200
O 	O 	0.50000 0.70246 0.25000 -1.06600
