data_crystal

_cell_length_a 15.37400
_cell_length_b 15.37400
_cell_length_c 15.37400
_cell_angle_alpha 74.84150
_cell_angle_beta  74.84150
_cell_angle_gamma 74.84150

_symmetry_space_group_name_	'P 1'
_symmetry_space_group_name_H-M	'P 1'

loop_
_symmetry_equiv_pos_as_xyz
  x,y,z

loop_
_atom_site_label
_atom_site_type_symbol
_atom_site_fract_x
_atom_site_fract_y
_atom_site_fract_z
_atom_site_charge
Cu	Cu	0.99022 0.99022 0.42007 0.90000
Cu	Cu	0.42007 0.99022 0.99022 0.90000
Cu	Cu	0.99022 0.42007 0.99022 0.90000
Cu	Cu	0.00978 0.00978 0.57993 0.90000
Cu	Cu	0.00978 0.57993 0.00978 0.90000
Cu	Cu	0.57993 0.00978 0.00978 0.90000
H 	H 	0.98890 0.30300 0.51640 0.06500
H 	H 	0.51640 0.98890 0.30300 0.06500
H 	H 	0.30300 0.51640 0.98890 0.06500
H 	H 	0.69700 0.01110 0.48360 0.06500
H 	H 	0.01110 0.48360 0.69700 0.06500
H 	H 	0.48360 0.69700 0.01110 0.06500
H 	H 	0.01110 0.69700 0.48360 0.06500
H 	H 	0.48360 0.01110 0.69700 0.06500
H 	H 	0.69700 0.48360 0.01110 0.06500
H 	H 	0.30300 0.98890 0.51640 0.06500
H 	H 	0.98890 0.51640 0.30300 0.06500
H 	H 	0.51640 0.30300 0.98890 0.06500
H 	H 	0.97410 0.27100 0.27100 0.06200
H 	H 	0.27100 0.97410 0.27100 0.06200
H 	H 	0.27100 0.27100 0.97410 0.06200
H 	H 	0.72900 0.02590 0.72900 0.06200
H 	H 	0.02590 0.72900 0.72900 0.06200
H 	H 	0.72900 0.72900 0.02590 0.06200
C 	C 	0.98156 0.27146 0.40096 -0.06000
C 	C 	0.98723 0.32723 0.45463 -0.04000
C 	C 	0.98363 0.17073 0.43863 0.34100
C 	C 	0.40096 0.98156 0.27146 -0.06000
C 	C 	0.45463 0.98723 0.32723 -0.04000
C 	C 	0.43863 0.98363 0.17073 0.34100
C 	C 	0.27146 0.40096 0.98156 -0.06000
C 	C 	0.32723 0.45463 0.98723 -0.04000
C 	C 	0.17073 0.43863 0.98363 0.34100
C 	C 	0.72854 0.01844 0.59904 -0.06000
C 	C 	0.67277 0.01277 0.54537 -0.04000
C 	C 	0.82927 0.01637 0.56137 0.34100
C 	C 	0.01844 0.59904 0.72854 -0.06000
C 	C 	0.01277 0.54537 0.67277 -0.04000
C 	C 	0.01637 0.56137 0.82927 0.34100
C 	C 	0.59904 0.72854 0.01844 -0.06000
C 	C 	0.54537 0.67277 0.01277 -0.04000
C 	C 	0.56137 0.82927 0.01637 0.34100
C 	C 	0.01844 0.72854 0.59904 -0.06000
C 	C 	0.01277 0.67277 0.54537 -0.04000
C 	C 	0.01637 0.82927 0.56137 0.34100
C 	C 	0.59904 0.01844 0.72854 -0.06000
C 	C 	0.54537 0.01277 0.67277 -0.04000
C 	C 	0.56137 0.01637 0.82927 0.34100
C 	C 	0.72854 0.59904 0.01844 -0.06000
C 	C 	0.67277 0.54537 0.01277 -0.04000
C 	C 	0.82927 0.56137 0.01637 0.34100
C 	C 	0.27146 0.98156 0.40096 -0.06000
C 	C 	0.32723 0.98723 0.45463 -0.04000
C 	C 	0.17073 0.98363 0.43863 0.34100
C 	C 	0.98156 0.40096 0.27146 -0.06000
C 	C 	0.98723 0.45463 0.32723 -0.04000
C 	C 	0.98363 0.43863 0.17073 0.34100
C 	C 	0.40096 0.27146 0.98156 -0.06000
C 	C 	0.45463 0.32723 0.98723 -0.04000
C 	C 	0.43863 0.17073 0.98363 0.34100
C 	C 	0.99040 0.41915 0.41915 0.02800
C 	C 	0.99622 0.47687 0.47687 -0.01500
C 	C 	0.97836 0.30811 0.30811 0.00500
C 	C 	0.41915 0.99040 0.41915 0.02800
C 	C 	0.47687 0.99622 0.47687 -0.01500
C 	C 	0.30811 0.97836 0.30811 0.00500
C 	C 	0.41915 0.41915 0.99040 0.02800
C 	C 	0.47687 0.47687 0.99622 -0.01500
C 	C 	0.30811 0.30811 0.97836 0.00500
C 	C 	0.58085 0.00960 0.58085 0.02800
C 	C 	0.52313 0.00378 0.52313 -0.01500
C 	C 	0.69189 0.02164 0.69189 0.00500
C 	C 	0.00960 0.58085 0.58085 0.02800
C 	C 	0.00378 0.52313 0.52313 -0.01500
C 	C 	0.02164 0.69189 0.69189 0.00500
C 	C 	0.58085 0.58085 0.00960 0.02800
C 	C 	0.52313 0.52313 0.00378 -0.01500
C 	C 	0.69189 0.69189 0.02164 0.00500
O 	O 	0.97890 0.12429 0.38402 -0.39600
O 	O 	0.99391 0.14021 0.52097 -0.40000
O 	O 	0.38402 0.97890 0.12429 -0.39600
O 	O 	0.52097 0.99391 0.14021 -0.40000
O 	O 	0.12429 0.38402 0.97890 -0.39600
O 	O 	0.14021 0.52097 0.99391 -0.40000
O 	O 	0.87571 0.02110 0.61598 -0.39600
O 	O 	0.85979 0.00609 0.47903 -0.40000
O 	O 	0.02110 0.61598 0.87571 -0.39600
O 	O 	0.00609 0.47903 0.85979 -0.40000
O 	O 	0.61598 0.87571 0.02110 -0.39600
O 	O 	0.47903 0.85979 0.00609 -0.40000
O 	O 	0.02110 0.87571 0.61598 -0.39600
O 	O 	0.00609 0.85979 0.47903 -0.40000
O 	O 	0.61598 0.02110 0.87571 -0.39600
O 	O 	0.47903 0.00609 0.85979 -0.40000
O 	O 	0.87571 0.61598 0.02110 -0.39600
O 	O 	0.85979 0.47903 0.00609 -0.40000
O 	O 	0.12429 0.97890 0.38402 -0.39600
O 	O 	0.14021 0.99391 0.52097 -0.40000
O 	O 	0.97890 0.38402 0.12429 -0.39600
O 	O 	0.99391 0.52097 0.14021 -0.40000
O 	O 	0.38402 0.12429 0.97890 -0.39600
O 	O 	0.52097 0.14021 0.99391 -0.40000
