data_crystal

_cell_length_a 18.65900
_cell_length_b 11.25100
_cell_length_c 10.01500
_cell_angle_alpha 90.00000
_cell_angle_beta  114.12000
_cell_angle_gamma 90.00000

_symmetry_space_group_name_	'P 1'
_symmetry_space_group_name_H-M	'P 1'

loop_
_symmetry_equiv_pos_as_xyz
  x,y,z

loop_
_atom_site_label
_atom_site_type_symbol
_atom_site_fract_x
_atom_site_fract_y
_atom_site_fract_z
_atom_site_charge
O 	O 	0.10095 0.41400 0.19997 -0.60000
O 	O 	0.09261 0.47046 0.40521 -0.58700
O 	O 	0.19015 0.24307 0.19885 -0.49400
C 	C 	0.12253 0.41083 0.33738 0.44900
C 	C 	0.18939 0.32822 0.42030 -0.20200
C 	C 	0.21849 0.24807 0.34712 0.20900
C 	C 	0.22147 0.32906 0.57221 -0.09800
H 	H 	0.20230 0.38230 0.62070 0.06600
H 	H 	0.15880 0.30000 0.16800 0.23600
O 	O 	0.60095 0.91400 0.19997 -0.47500
O 	O 	0.59261 0.97046 0.40521 -0.44700
O 	O 	0.69015 0.74307 0.19885 -0.42400
C 	C 	0.62253 0.91083 0.33738 0.43700
C 	C 	0.68939 0.82822 0.42030 -0.14500
C 	C 	0.71849 0.74807 0.34712 0.23600
C 	C 	0.72147 0.82906 0.57221 -0.08600
H 	H 	0.70230 0.88230 0.62070 0.12300
H 	H 	0.65880 0.80000 0.16800 0.26400
O 	O 	0.89905 0.41400 0.30003 -0.50100
O 	O 	0.90739 0.47046 0.09479 -0.53400
O 	O 	0.80985 0.24307 0.30115 -0.49800
C 	C 	0.87747 0.41083 0.16262 0.51200
C 	C 	0.81061 0.32822 0.07970 -0.42100
C 	C 	0.78151 0.24807 0.15288 0.37700
C 	C 	0.77853 0.32906 0.92779 0.20600
H 	H 	0.79770 0.38230 0.87930 0.00100
H 	H 	0.84120 0.30000 0.33200 0.28500
O 	O 	0.39905 0.91400 0.30003 -0.47600
O 	O 	0.40739 0.97046 0.09479 -0.50800
O 	O 	0.30985 0.74307 0.30115 -0.46900
C 	C 	0.37747 0.91083 0.16262 0.50100
C 	C 	0.31061 0.82822 0.07970 -0.39300
C 	C 	0.28151 0.74807 0.15288 0.38300
C 	C 	0.27853 0.82906 0.92779 0.19500
H 	H 	0.29770 0.88230 0.87930 0.03800
H 	H 	0.34120 0.80000 0.33200 0.29400
O 	O 	0.89905 0.58600 0.80003 -0.43000
O 	O 	0.90739 0.52954 0.59479 -0.46700
O 	O 	0.80985 0.75693 0.80115 -0.35100
C 	C 	0.87747 0.58917 0.66262 0.43800
C 	C 	0.81061 0.67178 0.57970 -0.15200
C 	C 	0.78151 0.75193 0.65288 0.25000
C 	C 	0.77853 0.67094 0.42779 -0.08400
H 	H 	0.79770 0.61770 0.37930 0.07600
H 	H 	0.84120 0.70000 0.83200 0.27600
O 	O 	0.39905 0.08600 0.80003 -0.54800
O 	O 	0.40739 0.02954 0.59479 -0.60400
O 	O 	0.30985 0.25693 0.80115 -0.41700
C 	C 	0.37747 0.08917 0.66262 0.45000
C 	C 	0.31061 0.17178 0.57970 -0.20900
C 	C 	0.28151 0.25193 0.65288 0.22200
C 	C 	0.27853 0.17094 0.42779 -0.09700
H 	H 	0.29770 0.11770 0.37930 0.01700
H 	H 	0.34120 0.20000 0.83200 0.25000
O 	O 	0.10095 0.58600 0.69997 -0.53000
O 	O 	0.09261 0.52954 0.90521 -0.51100
O 	O 	0.19015 0.75693 0.69885 -0.34600
C 	C 	0.12253 0.58917 0.83738 0.37600
C 	C 	0.18939 0.67178 0.92030 0.06400
C 	C 	0.21849 0.75193 0.84712 0.08600
C 	C 	0.22147 0.67094 0.07221 -0.38400
H 	H 	0.20230 0.61770 0.12070 0.13900
H 	H 	0.15880 0.70000 0.66800 0.22700
O 	O 	0.60095 0.08600 0.69997 -0.55400
O 	O 	0.59261 0.02954 0.90521 -0.53300
O 	O 	0.69015 0.25693 0.69885 -0.37300
C 	C 	0.62253 0.08917 0.83738 0.38200
C 	C 	0.68939 0.17178 0.92030 0.05000
C 	C 	0.71849 0.25193 0.84712 0.07100
C 	C 	0.72147 0.17094 0.07221 -0.39100
H 	H 	0.70230 0.11770 0.12070 0.10500
H 	H 	0.65880 0.20000 0.66800 0.21700
Ca	Ca	-0.00000 0.50000 -0.00000 1.45100
Ca	Ca	0.50000 0.00000 -0.00000 1.44600
Ca	Ca	0.00000 0.50000 0.50000 1.46900
Ca	Ca	0.50000 0.00000 0.50000 1.46500
