data_crystal

_cell_length_a 7.43740
_cell_length_b 16.42830
_cell_length_c 14.55300
_cell_angle_alpha 90.00000
_cell_angle_beta  94.83700
_cell_angle_gamma 90.00000

_symmetry_space_group_name_	'P 1'
_symmetry_space_group_name_H-M	'P 1'

loop_
_symmetry_equiv_pos_as_xyz
  x,y,z

loop_
_atom_site_label
_atom_site_type_symbol
_atom_site_fract_x
_atom_site_fract_y
_atom_site_fract_z
_atom_site_charge
Zn	Zn	0.19218 0.12791 0.47974 1.22200
Zn	Zn	0.22244 0.01827 0.68121 1.19200
O 	O 	0.24690 0.01747 0.54636 -0.65600
O 	O 	0.60390 0.09523 0.58210 -0.46200
O 	O 	0.42560 0.44959 0.73398 -0.40400
O 	O 	0.01860 0.10547 0.68426 -0.50700
O 	O 	0.52500 0.41322 0.87323 -0.46300
O 	O 	0.90200 0.41485 0.89811 -0.55300
O 	O 	0.07580 0.42963 0.78339 -0.48600
O 	O 	0.37870 0.18520 0.56330 -0.49500
C 	C 	0.83230 0.34020 0.76110 -0.14700
O 	O 	0.96940 0.15824 0.54350 -0.45600
C 	C 	0.94580 0.40022 0.81860 0.47900
C 	C 	0.94620 0.15397 0.62750 0.45000
C 	C 	0.64320 0.34501 0.74550 -0.04800
C 	C 	0.83100 0.21922 0.66620 -0.11200
C 	C 	0.53470 0.16336 0.59350 0.36200
C 	C 	0.55400 0.28856 0.68800 -0.02000
H 	H 	0.42990 0.29330 0.67510 0.05400
C 	C 	0.92230 0.27751 0.71970 0.11000
H 	H 	0.04750 0.27490 0.72850 -0.01400
C 	C 	0.64390 0.22481 0.64890 -0.04200
C 	C 	0.52770 0.40719 0.78710 0.33900
Zn	Zn	0.30782 0.62791 0.02026 1.20000
Zn	Zn	0.27756 0.51827 0.81879 1.21200
O 	O 	0.25310 0.51747 0.95364 -0.58100
O 	O 	0.89610 0.59523 0.91790 -0.42300
O 	O 	0.07440 0.94959 0.76602 -0.38600
O 	O 	0.48140 0.60547 0.81574 -0.45600
O 	O 	0.97500 0.91322 0.62677 -0.46000
O 	O 	0.59800 0.91485 0.60189 -0.55400
O 	O 	0.42420 0.92963 0.71661 -0.43100
O 	O 	0.12130 0.68520 0.93670 -0.48200
C 	C 	0.66770 0.84020 0.73890 -0.09600
O 	O 	0.53060 0.65824 0.95650 -0.41400
C 	C 	0.55420 0.90022 0.68140 0.43600
C 	C 	0.55380 0.65397 0.87250 0.39600
C 	C 	0.85680 0.84501 0.75450 -0.08600
C 	C 	0.66900 0.71922 0.83380 -0.05500
C 	C 	0.96530 0.66336 0.90650 0.39400
C 	C 	0.94600 0.78856 0.81200 0.05500
H 	H 	0.07010 0.79330 0.82490 0.02400
C 	C 	0.57770 0.77751 0.78030 0.02300
H 	H 	0.45250 0.77490 0.77150 0.03200
C 	C 	0.85610 0.72481 0.85110 -0.07600
C 	C 	0.97230 0.90719 0.71290 0.37600
Zn	Zn	0.80782 0.87209 0.52026 1.23000
Zn	Zn	0.77756 0.98173 0.31879 1.23100
O 	O 	0.75310 0.98253 0.45364 -0.57400
O 	O 	0.39610 0.90477 0.41790 -0.42400
O 	O 	0.57440 0.55041 0.26602 -0.40900
O 	O 	0.98140 0.89453 0.31574 -0.41600
O 	O 	0.47500 0.58678 0.12677 -0.50200
O 	O 	0.09800 0.58515 0.10189 -0.59300
O 	O 	0.92420 0.57037 0.21661 -0.43200
O 	O 	0.62130 0.81480 0.43670 -0.48800
C 	C 	0.16770 0.65980 0.23890 -0.08400
O 	O 	0.03060 0.84176 0.45650 -0.44800
C 	C 	0.05420 0.59978 0.18140 0.39300
C 	C 	0.05380 0.84603 0.37250 0.36200
C 	C 	0.35680 0.65499 0.25450 -0.09400
C 	C 	0.16900 0.78078 0.33380 -0.03900
C 	C 	0.46530 0.83664 0.40650 0.36500
C 	C 	0.44600 0.71144 0.31200 0.01500
H 	H 	0.57010 0.70670 0.32490 0.04300
C 	C 	0.07770 0.72249 0.28030 -0.04900
H 	H 	0.95250 0.72510 0.27150 0.06900
C 	C 	0.35610 0.77519 0.35110 -0.07700
C 	C 	0.47230 0.59281 0.21290 0.35800
Zn	Zn	0.69218 0.37209 0.97974 1.25000
Zn	Zn	0.72244 0.48173 0.18121 1.21400
O 	O 	0.74690 0.48253 0.04636 -0.64100
O 	O 	0.10390 0.40477 0.08210 -0.45800
O 	O 	0.92560 0.05041 0.23398 -0.40900
O 	O 	0.51860 0.39453 0.18426 -0.46700
O 	O 	0.02500 0.08678 0.37323 -0.50100
O 	O 	0.40200 0.08515 0.39811 -0.59300
O 	O 	0.57580 0.07037 0.28339 -0.49300
O 	O 	0.87870 0.31480 0.06330 -0.48400
C 	C 	0.33230 0.15980 0.26110 -0.14900
O 	O 	0.46940 0.34176 0.04350 -0.49100
C 	C 	0.44580 0.09978 0.31860 0.45000
C 	C 	0.44620 0.34603 0.12750 0.42100
C 	C 	0.14320 0.15499 0.24550 -0.03500
C 	C 	0.33100 0.28078 0.16620 -0.10900
C 	C 	0.03470 0.33664 0.09350 0.31000
C 	C 	0.05400 0.21144 0.18800 -0.09900
H 	H 	0.92990 0.20670 0.17510 0.09400
C 	C 	0.42230 0.22249 0.21970 0.05800
H 	H 	0.54750 0.22510 0.22850 0.01600
C 	C 	0.14390 0.27519 0.14890 -0.02300
C 	C 	0.02770 0.09281 0.28710 0.29900
Zn	Zn	0.50000 0.00000 0.50000 1.21100
Zn	Zn	-0.00000 0.50000 -0.00000 1.20100
