data_crystal

_cell_length_a 8.86010
_cell_length_b 12.98540
_cell_length_c 12.98540
_cell_angle_alpha 90.00000
_cell_angle_beta  90.00000
_cell_angle_gamma 90.00000

_symmetry_space_group_name_	'P 1'
_symmetry_space_group_name_H-M	'P 1'

loop_
_symmetry_equiv_pos_as_xyz
  x,y,z

loop_
_atom_site_label
_atom_site_type_symbol
_atom_site_fract_x
_atom_site_fract_y
_atom_site_fract_z
_atom_site_charge
Sr	Sr	0.71359 0.04883 0.94494 1.49100
Sr	Sr	0.71359 0.45117 0.55506 1.49000
Sr	Sr	0.71359 0.55506 0.04883 1.49100
Sr	Sr	0.71359 0.94494 0.45117 1.49100
Sr	Sr	0.28641 0.95117 0.05506 1.49100
Sr	Sr	0.28641 0.54883 0.44494 1.49000
Sr	Sr	0.28641 0.44494 0.95117 1.49100
Sr	Sr	0.28641 0.05506 0.54883 1.49100
C 	C 	0.62340 0.99150 0.19620 0.32300
C 	C 	0.79210 0.99111 0.19643 -0.06500
C 	C 	0.62340 0.50850 0.30380 0.32300
C 	C 	0.79210 0.50889 0.30357 -0.06500
C 	C 	0.62340 0.30380 0.99150 0.32300
C 	C 	0.79210 0.30357 0.99111 -0.06500
C 	C 	0.62340 0.19620 0.50850 0.32300
C 	C 	0.79210 0.19643 0.50889 -0.06500
C 	C 	0.37660 0.00850 0.80380 0.32300
C 	C 	0.20790 0.00889 0.80357 -0.06500
C 	C 	0.37660 0.49150 0.69620 0.32300
C 	C 	0.20790 0.49111 0.69643 -0.06500
C 	C 	0.37660 0.69620 0.00850 0.32300
C 	C 	0.20790 0.69643 0.00889 -0.06500
C 	C 	0.37660 0.80380 0.49150 0.32300
C 	C 	0.20790 0.80357 0.49111 -0.06500
N 	N 	0.87670 0.99780 0.11206 -0.19000
N 	N 	0.87420 0.98186 0.28108 -0.18500
N 	N 	0.01850 0.99241 0.14732 -0.18500
N 	N 	0.01770 0.98296 0.24778 -0.11800
N 	N 	0.87670 0.50220 0.38794 -0.19000
N 	N 	0.87420 0.51814 0.21892 -0.18600
N 	N 	0.01850 0.50759 0.35268 -0.18600
N 	N 	0.01770 0.51704 0.25222 -0.11800
N 	N 	0.87670 0.38794 0.99780 -0.19000
N 	N 	0.87420 0.21892 0.98186 -0.18500
N 	N 	0.01850 0.35268 0.99241 -0.18600
N 	N 	0.01770 0.25222 0.98296 -0.11800
N 	N 	0.87670 0.11206 0.50220 -0.19000
N 	N 	0.87420 0.28108 0.51814 -0.18600
N 	N 	0.01850 0.14732 0.50759 -0.18600
N 	N 	0.01770 0.24778 0.51704 -0.11800
N 	N 	0.12330 0.00220 0.88794 -0.19000
N 	N 	0.12580 0.01814 0.71892 -0.18500
N 	N 	0.98150 0.00759 0.85268 -0.18500
N 	N 	0.98230 0.01704 0.75222 -0.11800
N 	N 	0.12330 0.49780 0.61206 -0.19000
N 	N 	0.12580 0.48186 0.78108 -0.18600
N 	N 	0.98150 0.49241 0.64732 -0.18600
N 	N 	0.98230 0.48296 0.74778 -0.11800
N 	N 	0.12330 0.61206 0.00220 -0.19000
N 	N 	0.12580 0.78108 0.01814 -0.18500
N 	N 	0.98150 0.64732 0.00759 -0.18600
N 	N 	0.98230 0.74778 0.01704 -0.11800
N 	N 	0.12330 0.88794 0.49780 -0.19000
N 	N 	0.12580 0.71892 0.48186 -0.18600
N 	N 	0.98150 0.85268 0.49241 -0.18600
N 	N 	0.98230 0.75222 0.48296 -0.11800
O 	O 	0.55848 0.99872 0.11047 -0.58100
O 	O 	0.56014 0.98386 0.28223 -0.48800
O 	O 	0.55848 0.50128 0.38953 -0.58200
O 	O 	0.56014 0.51614 0.21777 -0.48800
O 	O 	0.55848 0.38953 0.99872 -0.58100
O 	O 	0.56014 0.21777 0.98386 -0.48800
O 	O 	0.55848 0.11047 0.50128 -0.58200
O 	O 	0.56014 0.28223 0.51614 -0.48800
O 	O 	0.44152 0.00128 0.88953 -0.58100
O 	O 	0.43986 0.01614 0.71777 -0.48800
O 	O 	0.44152 0.49872 0.61047 -0.58200
O 	O 	0.43986 0.48386 0.78223 -0.48800
O 	O 	0.44152 0.61047 0.00128 -0.58100
O 	O 	0.43986 0.78223 0.01614 -0.48800
O 	O 	0.44152 0.88953 0.49872 -0.58200
O 	O 	0.43986 0.71777 0.48386 -0.48800
