data_crystal

_cell_length_a 9.27320
_cell_length_b 17.50900
_cell_length_c 18.42850
_cell_angle_alpha 106.03100
_cell_angle_beta  90.00000
_cell_angle_gamma 90.00000

_symmetry_space_group_name_	'P 1'
_symmetry_space_group_name_H-M	'P 1'

loop_
_symmetry_equiv_pos_as_xyz
  x,y,z

loop_
_atom_site_label
_atom_site_type_symbol
_atom_site_fract_x
_atom_site_fract_y
_atom_site_fract_z
_atom_site_charge
Sr	Sr	0.33710 0.86693 0.67482 1.52100
Sr	Sr	0.84124 0.62233 0.82380 1.52100
Sr	Sr	0.50478 0.58818 0.67343 1.52300
Sr	Sr	0.50248 0.07572 0.66326 1.51900
Sr	Sr	0.83710 0.13307 0.82518 1.52000
Sr	Sr	0.34124 0.37767 0.67620 1.52100
Sr	Sr	0.00478 0.41182 0.82657 1.52400
Sr	Sr	0.00248 0.92428 0.83674 1.51900
Sr	Sr	0.66290 0.13307 0.32518 1.52000
Sr	Sr	0.15876 0.37767 0.17620 1.52000
Sr	Sr	0.49522 0.41182 0.32657 1.52200
Sr	Sr	0.49752 0.92428 0.33674 1.51800
Sr	Sr	0.16290 0.86693 0.17482 1.51900
Sr	Sr	0.65876 0.62233 0.32380 1.52000
Sr	Sr	0.99522 0.58818 0.17343 1.52300
Sr	Sr	0.99752 0.07572 0.16326 1.51800
H 	H 	0.00810 0.91390 0.66540 0.39200
H 	H 	0.01340 0.84330 0.67930 0.59100
H 	H 	0.33340 0.94950 0.83220 0.28400
H 	H 	0.32010 0.85250 0.83460 0.15200
H 	H 	0.49950 0.65720 0.85440 0.35000
H 	H 	0.54880 0.58740 0.84450 0.69000
H 	H 	0.84840 0.56870 0.65040 0.26200
H 	H 	0.81620 0.64500 0.66720 0.40500
H 	H 	0.50810 0.08610 0.83460 0.39300
H 	H 	0.51340 0.15670 0.82070 0.59200
H 	H 	0.83340 0.05050 0.66780 0.28300
H 	H 	0.82010 0.14750 0.66540 0.15100
H 	H 	0.99950 0.34280 0.64560 0.34800
H 	H 	0.04880 0.41260 0.65550 0.68900
H 	H 	0.34840 0.43130 0.84960 0.26100
H 	H 	0.31620 0.35500 0.83280 0.40400
H 	H 	0.99190 0.08610 0.33460 0.39200
H 	H 	0.98660 0.15670 0.32070 0.59100
H 	H 	0.66660 0.05050 0.16780 0.28400
H 	H 	0.67990 0.14750 0.16540 0.15200
H 	H 	0.50050 0.34280 0.14560 0.35000
H 	H 	0.45120 0.41260 0.15550 0.69000
H 	H 	0.15160 0.43130 0.34960 0.26200
H 	H 	0.18380 0.35500 0.33280 0.40500
H 	H 	0.49190 0.91390 0.16540 0.39300
H 	H 	0.48660 0.84330 0.17930 0.59200
H 	H 	0.16660 0.94950 0.33220 0.28300
H 	H 	0.17990 0.85250 0.33460 0.15100
H 	H 	0.00050 0.65720 0.35440 0.34800
H 	H 	0.95120 0.58740 0.34450 0.68900
H 	H 	0.65160 0.56870 0.15040 0.26100
H 	H 	0.68380 0.64500 0.16720 0.40400
C 	C 	0.66985 0.85579 0.75888 -0.04300
C 	C 	0.67487 0.93622 0.74414 0.33900
C 	C 	0.17451 0.64569 0.76016 -0.05400
C 	C 	0.18564 0.56504 0.76908 0.34900
C 	C 	0.58344 0.64314 0.50962 -0.03000
C 	C 	0.62661 0.55816 0.48633 0.30700
C 	C 	0.23692 0.84647 0.48718 -0.01400
C 	C 	0.32357 0.92425 0.50958 0.33100
C 	C 	0.16985 0.14421 0.74112 -0.04200
C 	C 	0.17487 0.06378 0.75586 0.33900
C 	C 	0.67451 0.35431 0.73984 -0.05400
C 	C 	0.68564 0.43496 0.73092 0.34900
C 	C 	0.08344 0.35686 0.99038 -0.02800
C 	C 	0.12661 0.44184 0.01367 0.30300
C 	C 	0.73692 0.15353 0.01282 -0.01200
C 	C 	0.82357 0.07575 0.99042 0.32700
C 	C 	0.33015 0.14421 0.24112 -0.04300
C 	C 	0.32513 0.06378 0.25586 0.33900
C 	C 	0.82549 0.35431 0.23984 -0.05400
C 	C 	0.81436 0.43496 0.23092 0.34900
C 	C 	0.41656 0.35686 0.49038 -0.03000
C 	C 	0.37339 0.44184 0.51367 0.30700
C 	C 	0.76308 0.15353 0.51282 -0.01400
C 	C 	0.67643 0.07575 0.49042 0.33100
C 	C 	0.83015 0.85579 0.25888 -0.04200
C 	C 	0.82513 0.93622 0.24414 0.33900
C 	C 	0.32549 0.64569 0.26016 -0.05400
C 	C 	0.31436 0.56504 0.26908 0.34900
C 	C 	0.91656 0.64314 0.00962 -0.02800
C 	C 	0.87339 0.55816 0.98633 0.30300
C 	C 	0.26308 0.84647 0.98718 -0.01200
C 	C 	0.17643 0.92425 0.00958 0.32700
N 	N 	0.55793 0.80639 0.73760 -0.17000
N 	N 	0.59583 0.74178 0.75851 -0.13000
N 	N 	0.72612 0.75408 0.79151 -0.14900
N 	N 	0.77387 0.82648 0.79246 -0.18400
N 	N 	0.26593 0.67541 0.72063 -0.17300
N 	N 	0.21809 0.75007 0.72662 -0.15800
N 	N 	0.10335 0.76295 0.77045 -0.14400
N 	N 	0.07135 0.69827 0.79203 -0.17700
N 	N 	0.52450 0.67896 0.57594 -0.17800
N 	N 	0.50611 0.75437 0.57347 -0.14300
N 	N 	0.55498 0.76268 0.50954 -0.08400
N 	N 	0.60510 0.69223 0.46748 -0.18400
N 	N 	0.20690 0.80687 0.53623 -0.16400
N 	N 	0.12943 0.74353 0.49659 -0.08200
N 	N 	0.11446 0.74803 0.42696 -0.08600
N 	N 	0.18230 0.81337 0.42032 -0.09300
N 	N 	0.05793 0.19361 0.76240 -0.16900
N 	N 	0.09583 0.25822 0.74149 -0.12900
N 	N 	0.22612 0.24592 0.70849 -0.14900
N 	N 	0.27387 0.17352 0.70754 -0.18500
N 	N 	0.76593 0.32459 0.77937 -0.17300
N 	N 	0.71809 0.24993 0.77338 -0.15800
N 	N 	0.60335 0.23705 0.72955 -0.14400
N 	N 	0.57135 0.30173 0.70797 -0.17700
N 	N 	0.02450 0.32104 0.92406 -0.17700
N 	N 	0.00611 0.24563 0.92653 -0.14200
N 	N 	0.05498 0.23732 0.99046 -0.08300
N 	N 	0.10510 0.30777 0.03252 -0.18600
N 	N 	0.70690 0.19313 0.96377 -0.16600
N 	N 	0.62943 0.25647 0.00341 -0.08200
N 	N 	0.61446 0.25197 0.07304 -0.08500
N 	N 	0.68230 0.18663 0.07968 -0.09400
N 	N 	0.44207 0.19361 0.26240 -0.17000
N 	N 	0.40417 0.25822 0.24149 -0.13000
N 	N 	0.27388 0.24592 0.20849 -0.14900
N 	N 	0.22613 0.17352 0.20754 -0.18400
N 	N 	0.73407 0.32459 0.27937 -0.17300
N 	N 	0.78191 0.24993 0.27338 -0.15800
N 	N 	0.89665 0.23705 0.22955 -0.14400
N 	N 	0.92865 0.30173 0.20797 -0.17700
N 	N 	0.47550 0.32104 0.42406 -0.17800
N 	N 	0.49389 0.24563 0.42653 -0.14300
N 	N 	0.44502 0.23732 0.49046 -0.08400
N 	N 	0.39490 0.30777 0.53252 -0.18400
N 	N 	0.79310 0.19313 0.46377 -0.16400
N 	N 	0.87057 0.25647 0.50341 -0.08200
N 	N 	0.88554 0.25197 0.57304 -0.08600
N 	N 	0.81770 0.18663 0.57968 -0.09300
N 	N 	0.94207 0.80639 0.23760 -0.16900
N 	N 	0.90417 0.74178 0.25851 -0.12900
N 	N 	0.77388 0.75408 0.29151 -0.14900
N 	N 	0.72613 0.82648 0.29246 -0.18500
N 	N 	0.23407 0.67541 0.22063 -0.17300
N 	N 	0.28191 0.75007 0.22662 -0.15800
N 	N 	0.39665 0.76295 0.27045 -0.14400
N 	N 	0.42865 0.69827 0.29203 -0.17700
N 	N 	0.97550 0.67896 0.07594 -0.17700
N 	N 	0.99389 0.75437 0.07347 -0.14200
N 	N 	0.94502 0.76268 0.00954 -0.08300
N 	N 	0.89490 0.69223 0.96748 -0.18600
N 	N 	0.29310 0.80687 0.03623 -0.16600
N 	N 	0.37057 0.74353 0.99659 -0.08200
N 	N 	0.38554 0.74803 0.92696 -0.08500
N 	N 	0.31770 0.81337 0.92032 -0.09400
O 	O 	0.57550 0.95270 0.70490 -0.52800
O 	O 	0.77920 0.98020 0.77490 -0.51100
O 	O 	0.29340 0.52460 0.74140 -0.52300
O 	O 	0.08200 0.54190 0.80270 -0.53800
O 	O 	0.63630 0.52350 0.53660 -0.38900
O 	O 	0.65120 0.52810 0.41660 -0.50000
O 	O 	0.37140 0.94490 0.57560 -0.52100
O 	O 	0.33780 0.95960 0.45970 -0.42400
O 	O 	0.04789 0.88134 0.68957 -1.23500
O 	O 	0.28822 0.90765 0.81766 -0.69200
O 	O 	0.56116 0.61558 0.82672 -1.29500
O 	O 	0.79527 0.60965 0.68195 -0.93700
O 	O 	0.07550 0.04730 0.79510 -0.52500
O 	O 	0.27920 0.01980 0.72510 -0.51200
O 	O 	0.79340 0.47540 0.75860 -0.52400
O 	O 	0.58200 0.45810 0.69730 -0.53800
O 	O 	0.13630 0.47650 0.96340 -0.38800
O 	O 	0.15120 0.47190 0.08340 -0.49900
O 	O 	0.87140 0.05510 0.92440 -0.52300
O 	O 	0.83780 0.04040 0.04030 -0.42300
O 	O 	0.54789 0.11866 0.81043 -1.23600
O 	O 	0.78822 0.09235 0.68234 -0.69100
O 	O 	0.06116 0.38442 0.67328 -1.29200
O 	O 	0.29527 0.39035 0.81805 -0.93600
O 	O 	0.42450 0.04730 0.29510 -0.52800
O 	O 	0.22080 0.01980 0.22510 -0.51100
O 	O 	0.70660 0.47540 0.25860 -0.52300
O 	O 	0.91800 0.45810 0.19730 -0.53800
O 	O 	0.36370 0.47650 0.46340 -0.38900
O 	O 	0.34880 0.47190 0.58340 -0.50000
O 	O 	0.62860 0.05510 0.42440 -0.52100
O 	O 	0.66220 0.04040 0.54030 -0.42400
O 	O 	0.95211 0.11866 0.31043 -1.23500
O 	O 	0.71178 0.09235 0.18234 -0.69200
O 	O 	0.43884 0.38442 0.17328 -1.29500
O 	O 	0.20473 0.39035 0.31805 -0.93700
O 	O 	0.92450 0.95270 0.20490 -0.52500
O 	O 	0.72080 0.98020 0.27490 -0.51200
O 	O 	0.20660 0.52460 0.24140 -0.52400
O 	O 	0.41800 0.54190 0.30270 -0.53800
O 	O 	0.86370 0.52350 0.03660 -0.38800
O 	O 	0.84880 0.52810 0.91660 -0.49900
O 	O 	0.12860 0.94490 0.07560 -0.52300
O 	O 	0.16220 0.95960 0.95970 -0.42300
O 	O 	0.45211 0.88134 0.18957 -1.23600
O 	O 	0.21178 0.90765 0.31766 -0.69100
O 	O 	0.93884 0.61558 0.32672 -1.29200
O 	O 	0.70473 0.60965 0.18195 -0.93600
