data_crystal

_cell_length_a 13.08360
_cell_length_b 13.08360
_cell_length_c 8.09160
_cell_angle_alpha 90.00000
_cell_angle_beta  90.00000
_cell_angle_gamma 90.00000

_symmetry_space_group_name_	'P 1'
_symmetry_space_group_name_H-M	'P 1'

loop_
_symmetry_equiv_pos_as_xyz
  x,y,z

loop_
_atom_site_label
_atom_site_type_symbol
_atom_site_fract_x
_atom_site_fract_y
_atom_site_fract_z
_atom_site_charge
N 	N 	0.16930 0.16000 0.59210 -0.25600
N 	N 	0.01530 0.03450 0.06160 -0.07600
C 	C 	0.11510 0.20380 0.47300 0.10900
H 	H 	0.10400 0.27390 0.47790 -0.02300
C 	C 	0.07420 0.14950 0.34100 -0.20200
H 	H 	0.03660 0.18340 0.26030 0.10900
C 	C 	0.08860 0.04840 0.33000 0.14900
C 	C 	0.13970 0.00250 0.46000 -0.20900
H 	H 	0.14700 0.93180 0.46220 0.10000
C 	C 	0.17880 0.05900 0.58420 0.12400
H 	H 	0.21420 0.02530 0.66810 -0.02900
C 	C 	0.04960 0.99050 0.19000 -0.07200
H 	H 	0.04960 0.91940 0.19530 0.06100
N 	N 	0.33070 0.34000 0.59210 -0.25600
N 	N 	0.48470 0.46550 0.06160 -0.07800
C 	C 	0.38490 0.29620 0.47300 0.10900
H 	H 	0.39600 0.22610 0.47790 -0.02200
C 	C 	0.42580 0.35050 0.34100 -0.20000
H 	H 	0.46340 0.31660 0.26030 0.10800
C 	C 	0.41140 0.45160 0.33000 0.14600
C 	C 	0.36030 0.49750 0.46000 -0.20900
H 	H 	0.35300 0.56820 0.46220 0.10100
C 	C 	0.32120 0.44100 0.58420 0.12400
H 	H 	0.28580 0.47470 0.66810 -0.02900
C 	C 	0.45040 0.50950 0.19000 -0.06800
H 	H 	0.45040 0.58060 0.19530 0.06000
N 	N 	0.84000 0.66930 0.09210 -0.25500
N 	N 	0.96550 0.51530 0.56160 -0.07700
C 	C 	0.79620 0.61510 0.97300 0.10900
H 	H 	0.72610 0.60400 0.97790 -0.02200
C 	C 	0.85050 0.57420 0.84100 -0.19900
H 	H 	0.81660 0.53660 0.76030 0.10700
C 	C 	0.95160 0.58860 0.83000 0.14400
C 	C 	0.99750 0.63970 0.96000 -0.20000
H 	H 	0.06820 0.64700 0.96220 0.09700
C 	C 	0.94100 0.67880 0.08420 0.11800
H 	H 	0.97470 0.71420 0.16810 -0.02700
C 	C 	0.00950 0.54960 0.69000 -0.06800
H 	H 	0.08060 0.54960 0.69530 0.06000
N 	N 	0.66000 0.83070 0.09210 -0.25600
N 	N 	0.53450 0.98470 0.56160 -0.07800
C 	C 	0.70380 0.88490 0.97300 0.10900
H 	H 	0.77390 0.89600 0.97790 -0.02200
C 	C 	0.64950 0.92580 0.84100 -0.20000
H 	H 	0.68340 0.96340 0.76030 0.10800
C 	C 	0.54840 0.91140 0.83000 0.14600
C 	C 	0.50250 0.86030 0.96000 -0.20800
H 	H 	0.43180 0.85300 0.96220 0.10100
C 	C 	0.55900 0.82120 0.08420 0.12300
H 	H 	0.52530 0.78580 0.16810 -0.02900
C 	C 	0.49050 0.95040 0.69000 -0.06800
H 	H 	0.41940 0.95040 0.69530 0.06000
N 	N 	0.83070 0.84000 0.40790 -0.25600
N 	N 	0.98470 0.96550 0.93840 -0.07600
C 	C 	0.88490 0.79620 0.52700 0.10900
H 	H 	0.89600 0.72610 0.52210 -0.02300
C 	C 	0.92580 0.85050 0.65900 -0.20200
H 	H 	0.96340 0.81660 0.73970 0.10900
C 	C 	0.91140 0.95160 0.67000 0.14900
C 	C 	0.86030 0.99750 0.54000 -0.20900
H 	H 	0.85300 0.06820 0.53780 0.10000
C 	C 	0.82120 0.94100 0.41580 0.12400
H 	H 	0.78580 0.97470 0.33190 -0.02900
C 	C 	0.95040 0.00950 0.81000 -0.07200
H 	H 	0.95040 0.08060 0.80470 0.06100
N 	N 	0.66930 0.66000 0.40790 -0.25600
N 	N 	0.51530 0.53450 0.93840 -0.07800
C 	C 	0.61510 0.70380 0.52700 0.10900
H 	H 	0.60400 0.77390 0.52210 -0.02200
C 	C 	0.57420 0.64950 0.65900 -0.20000
H 	H 	0.53660 0.68340 0.73970 0.10800
C 	C 	0.58860 0.54840 0.67000 0.14600
C 	C 	0.63970 0.50250 0.54000 -0.20900
H 	H 	0.64700 0.43180 0.53780 0.10100
C 	C 	0.67880 0.55900 0.41580 0.12400
H 	H 	0.71420 0.52530 0.33190 -0.02900
C 	C 	0.54960 0.49050 0.81000 -0.06800
H 	H 	0.54960 0.41940 0.80470 0.06000
N 	N 	0.16000 0.33070 0.90790 -0.25500
N 	N 	0.03450 0.48470 0.43840 -0.07700
C 	C 	0.20380 0.38490 0.02700 0.10900
H 	H 	0.27390 0.39600 0.02210 -0.02200
C 	C 	0.14950 0.42580 0.15900 -0.19900
H 	H 	0.18340 0.46340 0.23970 0.10700
C 	C 	0.04840 0.41140 0.17000 0.14400
C 	C 	0.00250 0.36030 0.04000 -0.20000
H 	H 	0.93180 0.35300 0.03780 0.09700
C 	C 	0.05900 0.32120 0.91580 0.11800
H 	H 	0.02530 0.28580 0.83190 -0.02700
C 	C 	0.99050 0.45040 0.31000 -0.06800
H 	H 	0.91940 0.45040 0.30470 0.06000
N 	N 	0.34000 0.16930 0.90790 -0.25600
N 	N 	0.46550 0.01530 0.43840 -0.07800
C 	C 	0.29620 0.11510 0.02700 0.10900
H 	H 	0.22610 0.10400 0.02210 -0.02200
C 	C 	0.35050 0.07420 0.15900 -0.20000
H 	H 	0.31660 0.03660 0.23970 0.10800
C 	C 	0.45160 0.08860 0.17000 0.14600
C 	C 	0.49750 0.13970 0.04000 -0.20800
H 	H 	0.56820 0.14700 0.03780 0.10100
C 	C 	0.44100 0.17880 0.91580 0.12300
H 	H 	0.47470 0.21420 0.83190 -0.02900
C 	C 	0.50950 0.04960 0.31000 -0.06800
H 	H 	0.58060 0.04960 0.30470 0.06000
Cu	Cu	0.25000 0.25000 0.75000 0.85600
Cu	Cu	0.75000 0.75000 0.25000 0.85600
