data_crystal

_cell_length_a 9.99390
_cell_length_b 10.65230
_cell_length_c 10.96580
_cell_angle_alpha 80.55800
_cell_angle_beta  72.25700
_cell_angle_gamma 74.54100

_symmetry_space_group_name_	'P 1'
_symmetry_space_group_name_H-M	'P 1'

loop_
_symmetry_equiv_pos_as_xyz
  x,y,z

loop_
_atom_site_label
_atom_site_type_symbol
_atom_site_fract_x
_atom_site_fract_y
_atom_site_fract_z
_atom_site_charge
Eu	Eu	0.82491 0.30560 0.46566 1.80200
Zn	Zn	0.70787 0.13223 0.88350 1.19100
N 	N 	0.86870 0.19780 0.92500 -0.24200
N 	N 	0.52280 0.29510 0.92990 -0.23500
C 	C 	0.77690 0.07530 0.12570 0.29700
C 	C 	0.88880 0.14830 0.04120 0.01800
C 	C 	0.00680 0.16150 0.07620 -0.15200
C 	C 	0.10590 0.22450 0.98710 0.06800
H 	H 	0.18900 0.22500 0.00600 0.00300
C 	C 	0.08410 0.27520 0.86860 -0.13700
H 	H 	0.14600 0.32500 0.80600 0.09600
C 	C 	0.96330 0.26040 0.84130 0.09900
H 	H 	0.94200 0.29400 0.76600 -0.02200
C 	C 	0.02960 0.11570 0.20770 0.47400
C 	C 	0.59470 0.33090 0.69990 0.29500
C 	C 	0.48560 0.36380 0.82580 -0.01100
C 	C 	0.36060 0.46270 0.83490 -0.07100
C 	C 	0.27510 0.49300 0.95740 0.03600
H 	H 	0.19600 0.56100 0.96300 0.02800
C 	C 	0.31490 0.42570 0.06470 -0.13800
H 	H 	0.26100 0.43700 0.14700 0.10200
C 	C 	0.43900 0.32680 0.04680 0.08100
H 	H 	0.46800 0.28100 0.11600 0.00200
C 	C 	0.31190 0.53860 0.71980 0.32800
C 	C 	0.05960 0.47870 0.43810 0.25500
O 	O 	0.68560 0.06030 0.07393 -0.43400
O 	O 	0.78270 0.03380 0.23664 -0.26300
O 	O 	0.97270 0.19714 0.28870 -0.51600
O 	O 	0.10940 0.00632 0.22630 -0.48000
O 	O 	0.70790 0.24081 0.70312 -0.55400
O 	O 	0.57662 0.39473 0.59858 -0.37500
O 	O 	0.33090 0.65233 0.68727 -0.37600
O 	O 	0.24440 0.48890 0.66786 -0.38600
O 	O 	0.04350 0.39274 0.38287 -0.39200
O 	O 	0.16210 0.53510 0.40385 -0.39300
Eu	Eu	0.17509 0.69440 0.53434 1.80300
Zn	Zn	0.29213 0.86777 0.11650 1.19200
N 	N 	0.13130 0.80220 0.07500 -0.24100
N 	N 	0.47720 0.70490 0.07010 -0.23400
C 	C 	0.22310 0.92470 0.87430 0.29700
C 	C 	0.11120 0.85170 0.95880 0.01800
C 	C 	0.99320 0.83850 0.92380 -0.15200
C 	C 	0.89410 0.77550 0.01290 0.06800
H 	H 	0.81100 0.77500 0.99400 0.00300
C 	C 	0.91590 0.72480 0.13140 -0.13700
H 	H 	0.85400 0.67500 0.19400 0.09600
C 	C 	0.03670 0.73960 0.15870 0.09900
H 	H 	0.05800 0.70600 0.23400 -0.02200
C 	C 	0.97040 0.88430 0.79230 0.47400
C 	C 	0.40530 0.66910 0.30010 0.29500
C 	C 	0.51440 0.63620 0.17420 -0.01100
C 	C 	0.63940 0.53730 0.16510 -0.07100
C 	C 	0.72490 0.50700 0.04260 0.03600
H 	H 	0.80400 0.43900 0.03700 0.02800
C 	C 	0.68510 0.57430 0.93530 -0.13800
H 	H 	0.73900 0.56300 0.85300 0.10200
C 	C 	0.56100 0.67320 0.95320 0.08100
H 	H 	0.53200 0.71900 0.88400 0.00200
C 	C 	0.68810 0.46140 0.28020 0.32800
C 	C 	0.94040 0.52130 0.56190 0.25500
O 	O 	0.31440 0.93970 0.92607 -0.43400
O 	O 	0.21730 0.96620 0.76336 -0.26300
O 	O 	0.02730 0.80286 0.71130 -0.51600
O 	O 	0.89060 0.99368 0.77370 -0.48000
O 	O 	0.29210 0.75919 0.29688 -0.55400
O 	O 	0.42338 0.60527 0.40142 -0.37500
O 	O 	0.66910 0.34767 0.31273 -0.37600
O 	O 	0.75560 0.51110 0.33214 -0.38600
O 	O 	0.95650 0.60726 0.61713 -0.39200
O 	O 	0.83790 0.46490 0.59615 -0.39300
