data_crystal

_cell_length_a 9.94300
_cell_length_b 10.56680
_cell_length_c 10.91690
_cell_angle_alpha 80.59600
_cell_angle_beta  72.14900
_cell_angle_gamma 74.57400

_symmetry_space_group_name_	'P 1'
_symmetry_space_group_name_H-M	'P 1'

loop_
_symmetry_equiv_pos_as_xyz
  x,y,z

loop_
_atom_site_label
_atom_site_type_symbol
_atom_site_fract_x
_atom_site_fract_y
_atom_site_fract_z
_atom_site_charge
Tb	Tb	0.17437 0.19375 0.03409 1.70000
Zn	Zn	0.29172 0.36786 0.61719 1.19600
N 	N 	0.47790 0.20420 0.57120 -0.23100
N 	N 	0.13030 0.30270 0.57520 -0.24500
C 	C 	0.68820 0.96160 0.78250 0.30800
C 	C 	0.64020 0.03700 0.66730 -0.05900
C 	C 	0.51450 0.13570 0.67550 -0.01300
C 	C 	0.56250 0.17240 0.45410 0.07500
H 	H 	0.53400 0.22000 0.38500 0.00300
C 	C 	0.68700 0.07260 0.43670 -0.13100
H 	H 	0.74100 0.06000 0.35300 0.09800
C 	C 	0.72650 0.00620 0.54450 0.03300
H 	H 	0.79900 0.94600 0.54000 0.02500
C 	C 	0.40400 0.16920 0.80160 0.30200
C 	C 	0.22510 0.42380 0.37370 0.29600
C 	C 	0.11150 0.35130 0.45830 0.02400
C 	C 	0.99360 0.33850 0.42290 -0.17500
C 	C 	0.97200 0.38330 0.29100 0.48900
C 	C 	0.89270 0.27660 0.51290 0.10900
H 	H 	0.80700 0.27300 0.49400 -0.01300
C 	C 	0.91430 0.22610 0.63170 -0.18200
H 	H 	0.84700 0.18500 0.69200 0.11700
C 	C 	0.03510 0.24060 0.65930 0.12900
H 	H 	0.05200 0.20600 0.73600 -0.02700
C 	C 	0.94030 0.02070 0.06230 0.24800
O 	O 	0.42134 0.10550 0.90322 -0.36200
O 	O 	0.29062 0.25900 0.79795 -0.54300
O 	O 	0.67040 0.84700 0.81452 -0.36400
O 	O 	0.75610 0.01088 0.83457 -0.36400
O 	O 	0.31610 0.43940 0.42599 -0.43700
O 	O 	0.22020 0.46480 0.26214 -0.25900
O 	O 	0.02920 0.30077 0.21029 -0.51400
O 	O 	0.89260 0.49363 0.27168 -0.48200
O 	O 	0.95710 0.10681 0.11838 -0.37700
O 	O 	0.83800 0.96381 0.09647 -0.37400
Tb	Tb	0.82563 0.80625 0.96591 1.70000
Zn	Zn	0.70828 0.63214 0.38281 1.19600
N 	N 	0.52210 0.79580 0.42880 -0.23100
N 	N 	0.86970 0.69730 0.42480 -0.24500
C 	C 	0.31180 0.03840 0.21750 0.30800
C 	C 	0.35980 0.96300 0.33270 -0.05900
C 	C 	0.48550 0.86430 0.32450 -0.01300
C 	C 	0.43750 0.82760 0.54590 0.07500
H 	H 	0.46600 0.78000 0.61500 0.00300
C 	C 	0.31300 0.92740 0.56330 -0.13100
H 	H 	0.25900 0.94000 0.64700 0.09800
C 	C 	0.27350 0.99380 0.45550 0.03300
H 	H 	0.20100 0.05400 0.46000 0.02500
C 	C 	0.59600 0.83080 0.19840 0.30200
C 	C 	0.77490 0.57620 0.62630 0.29600
C 	C 	0.88850 0.64870 0.54170 0.02400
C 	C 	0.00640 0.66150 0.57710 -0.17500
C 	C 	0.02800 0.61670 0.70900 0.48900
C 	C 	0.10730 0.72340 0.48710 0.10900
H 	H 	0.19300 0.72700 0.50600 -0.01300
C 	C 	0.08570 0.77390 0.36830 -0.18200
H 	H 	0.15300 0.81500 0.30800 0.11700
C 	C 	0.96490 0.75940 0.34070 0.12900
H 	H 	0.94800 0.79400 0.26400 -0.02700
C 	C 	0.05970 0.97930 0.93770 0.24800
O 	O 	0.57866 0.89450 0.09678 -0.36200
O 	O 	0.70938 0.74100 0.20205 -0.54300
O 	O 	0.32960 0.15300 0.18548 -0.36400
O 	O 	0.24390 0.98912 0.16543 -0.36400
O 	O 	0.68390 0.56060 0.57401 -0.43700
O 	O 	0.77980 0.53520 0.73786 -0.25900
O 	O 	0.97080 0.69923 0.78971 -0.51400
O 	O 	0.10740 0.50637 0.72832 -0.48200
O 	O 	0.04290 0.89319 0.88162 -0.37700
O 	O 	0.16200 0.03619 0.90353 -0.37400
