data_crystal

_cell_length_a 8.26100
_cell_length_b 11.64140
_cell_length_c 8.83320
_cell_angle_alpha 90.00000
_cell_angle_beta  90.00000
_cell_angle_gamma 90.00000

_symmetry_space_group_name_	'P 1'
_symmetry_space_group_name_H-M	'P 1'

loop_
_symmetry_equiv_pos_as_xyz
  x,y,z

loop_
_atom_site_label
_atom_site_type_symbol
_atom_site_fract_x
_atom_site_fract_y
_atom_site_fract_z
_atom_site_charge
O 	O 	0.25570 0.40500 0.36248 -0.38900
O 	O 	0.40781 0.18375 0.41197 -0.39500
O 	O 	0.56754 0.19269 0.61169 -0.37900
C 	C 	0.52480 0.22462 0.48300 0.47600
H 	H 	0.58420 0.28280 0.43690 -0.10100
O 	O 	0.24430 0.59500 0.36248 -0.38700
O 	O 	0.09219 0.81625 0.41197 -0.36800
O 	O 	0.93246 0.80731 0.61169 -0.35700
C 	C 	0.97520 0.77538 0.48300 0.46800
H 	H 	0.91580 0.71720 0.43690 -0.09600
O 	O 	0.24430 0.90500 0.13752 -0.31500
O 	O 	0.09219 0.68375 0.08803 -0.37500
O 	O 	0.93246 0.69269 0.88831 -0.36000
C 	C 	0.97520 0.72462 0.01700 0.45300
H 	H 	0.91580 0.78280 0.06310 -0.08800
O 	O 	0.25570 0.09500 0.13752 -0.36900
O 	O 	0.40781 0.31625 0.08803 -0.38800
O 	O 	0.56754 0.30731 0.88831 -0.37400
C 	C 	0.52480 0.27538 0.01700 0.47600
H 	H 	0.58420 0.21720 0.06310 -0.10600
O 	O 	0.74430 0.59500 0.63752 -0.38800
O 	O 	0.59219 0.81625 0.58803 -0.37200
O 	O 	0.43246 0.80731 0.38831 -0.35800
C 	C 	0.47520 0.77538 0.51700 0.47400
H 	H 	0.41580 0.71720 0.56310 -0.09700
O 	O 	0.75570 0.40500 0.63752 -0.38800
O 	O 	0.90781 0.18375 0.58803 -0.39300
O 	O 	0.06754 0.19269 0.38831 -0.37800
C 	C 	0.02480 0.22462 0.51700 0.47200
H 	H 	0.08420 0.28280 0.56310 -0.10000
O 	O 	0.75570 0.09500 0.86248 -0.37000
O 	O 	0.90781 0.31625 0.91197 -0.37900
O 	O 	0.06754 0.30731 0.11169 -0.36500
C 	C 	0.02480 0.27538 0.98300 0.45600
H 	H 	0.08420 0.21720 0.93690 -0.10100
O 	O 	0.74430 0.90500 0.86248 -0.31900
O 	O 	0.59219 0.68375 0.91197 -0.38500
O 	O 	0.43246 0.69269 0.11169 -0.36900
C 	C 	0.47520 0.72462 0.98300 0.47400
H 	H 	0.41580 0.78280 0.93690 -0.09400
Ni	Ni	0.25405 0.25000 0.25000 1.15200
Ni	Ni	0.24595 0.75000 0.25000 1.15300
Ni	Ni	0.74595 0.75000 0.75000 1.15300
Ni	Ni	0.75405 0.25000 0.75000 1.15200
C 	C 	0.25000 0.50000 0.29930 0.47800
H 	H 	0.25000 0.50000 0.19400 -0.09500
C 	C 	0.25000 -0.00000 0.20070 0.36600
H 	H 	0.25000 -0.00000 0.30600 -0.07900
C 	C 	0.75000 0.50000 0.70070 0.47800
H 	H 	0.75000 0.50000 0.80600 -0.09500
C 	C 	0.75000 0.00000 0.79930 0.37100
H 	H 	0.75000 0.00000 0.69400 -0.08000
