data_crystal

_cell_length_a 8.52120
_cell_length_b 9.03210
_cell_length_c 11.34970
_cell_angle_alpha 90.00000
_cell_angle_beta  90.00000
_cell_angle_gamma 90.00000

_symmetry_space_group_name_	'P 1'
_symmetry_space_group_name_H-M	'P 1'

loop_
_symmetry_equiv_pos_as_xyz
  x,y,z

loop_
_atom_site_label
_atom_site_type_symbol
_atom_site_fract_x
_atom_site_fract_y
_atom_site_fract_z
_atom_site_charge
Cu	Cu	0.99625 0.00076 0.49850 0.80000
O 	O 	0.99980 0.11000 0.65140 -0.54700
O 	O 	0.01200 0.10850 0.84500 -0.57600
C 	C 	0.00730 0.04460 0.74850 0.53900
H 	H 	0.00950 0.94170 0.74820 -0.27100
Cu	Cu	0.00375 0.99924 0.99850 0.72800
O 	O 	0.00020 0.89000 0.15140 -0.43700
O 	O 	0.98800 0.89150 0.34500 -0.51400
C 	C 	0.99270 0.95540 0.24850 0.49300
H 	H 	0.99050 0.05830 0.24820 -0.21700
Cu	Cu	0.49625 0.49924 0.49850 0.80200
O 	O 	0.49980 0.39000 0.65140 -0.54200
O 	O 	0.51200 0.39150 0.84500 -0.57500
C 	C 	0.50730 0.45540 0.74850 0.52900
H 	H 	0.50950 0.55830 0.74820 -0.26800
Cu	Cu	0.50375 0.50076 0.99850 0.72800
O 	O 	0.50020 0.61000 0.15140 -0.44100
O 	O 	0.48800 0.60850 0.34500 -0.51200
C 	C 	0.49270 0.54460 0.24850 0.49200
H 	H 	0.49050 0.44170 0.24820 -0.21100
