data_crystal

_cell_length_a 8.33430
_cell_length_b 11.75300
_cell_length_c 8.91110
_cell_angle_alpha 90.00000
_cell_angle_beta  90.00000
_cell_angle_gamma 90.00000

_symmetry_space_group_name_	'P 1'
_symmetry_space_group_name_H-M	'P 1'

loop_
_symmetry_equiv_pos_as_xyz
  x,y,z

loop_
_atom_site_label
_atom_site_type_symbol
_atom_site_fract_x
_atom_site_fract_y
_atom_site_fract_z
_atom_site_charge
O 	O 	0.25671 0.40566 0.36555 -0.39400
O 	O 	0.40688 0.18273 0.41332 -0.40900
O 	O 	0.56460 0.19227 0.61190 -0.39000
C 	C 	0.52340 0.22225 0.48350 0.48600
H 	H 	0.58410 0.27830 0.43660 -0.10900
O 	O 	0.24329 0.59434 0.36555 -0.39300
O 	O 	0.09312 0.81727 0.41332 -0.38100
O 	O 	0.93540 0.80773 0.61190 -0.36800
C 	C 	0.97660 0.77775 0.48350 0.47800
H 	H 	0.91590 0.72170 0.43660 -0.10400
O 	O 	0.24329 0.90566 0.13445 -0.32300
O 	O 	0.09312 0.68273 0.08668 -0.38700
O 	O 	0.93540 0.69227 0.88810 -0.37100
C 	C 	0.97660 0.72225 0.01650 0.46200
H 	H 	0.91590 0.77830 0.06340 -0.09700
O 	O 	0.25671 0.09434 0.13445 -0.37600
O 	O 	0.40688 0.31727 0.08668 -0.40100
O 	O 	0.56460 0.30773 0.88810 -0.38500
C 	C 	0.52340 0.27775 0.01650 0.48600
H 	H 	0.58410 0.22170 0.06340 -0.11400
O 	O 	0.74329 0.59434 0.63445 -0.39300
O 	O 	0.59312 0.81727 0.58668 -0.38500
O 	O 	0.43540 0.80773 0.38810 -0.36900
C 	C 	0.47660 0.77775 0.51650 0.48400
H 	H 	0.41590 0.72170 0.56340 -0.10500
O 	O 	0.75671 0.40566 0.63445 -0.39300
O 	O 	0.90688 0.18273 0.58668 -0.40500
O 	O 	0.06460 0.19227 0.38810 -0.38900
C 	C 	0.02340 0.22225 0.51650 0.48200
H 	H 	0.08410 0.27830 0.56340 -0.10800
O 	O 	0.75671 0.09434 0.86555 -0.37600
O 	O 	0.90688 0.31727 0.91332 -0.39200
O 	O 	0.06460 0.30773 0.11190 -0.37600
C 	C 	0.02340 0.27775 0.98350 0.46600
H 	H 	0.08410 0.22170 0.93660 -0.10800
O 	O 	0.74329 0.90566 0.86555 -0.32600
O 	O 	0.59312 0.68273 0.91332 -0.39700
O 	O 	0.43540 0.69227 0.11190 -0.38000
C 	C 	0.47660 0.72225 0.98350 0.48400
H 	H 	0.41590 0.77830 0.93660 -0.10200
Co	Co	0.25371 0.25000 0.25000 1.21400
Co	Co	0.24629 0.75000 0.25000 1.21600
Co	Co	0.74629 0.75000 0.75000 1.21600
Co	Co	0.75371 0.25000 0.75000 1.21400
C 	C 	0.25000 0.50000 0.30300 0.47600
H 	H 	0.25000 0.50000 0.19860 -0.10100
C 	C 	0.25000 0.00000 0.19700 0.36700
H 	H 	0.25000 0.00000 0.30140 -0.08500
C 	C 	0.75000 0.50000 0.69700 0.47600
H 	H 	0.75000 0.50000 0.80140 -0.10100
C 	C 	0.75000 0.00000 0.80300 0.37200
H 	H 	0.75000 -0.00000 0.69860 -0.08600
