data_crystal

_cell_length_a 8.34930
_cell_length_b 11.72760
_cell_length_c 8.90890
_cell_angle_alpha 90.00000
_cell_angle_beta  90.00000
_cell_angle_gamma 90.00000

_symmetry_space_group_name_	'P 1'
_symmetry_space_group_name_H-M	'P 1'

loop_
_symmetry_equiv_pos_as_xyz
  x,y,z

loop_
_atom_site_label
_atom_site_type_symbol
_atom_site_fract_x
_atom_site_fract_y
_atom_site_fract_z
_atom_site_charge
O 	O 	0.25761 0.40584 0.36451 -0.40900
O 	O 	0.40672 0.18209 0.41359 -0.42300
O 	O 	0.56379 0.19234 0.61254 -0.40000
C 	C 	0.52260 0.22178 0.48390 0.50200
H 	H 	0.58330 0.27780 0.43670 -0.11300
O 	O 	0.24239 0.59416 0.36451 -0.41000
O 	O 	0.09328 0.81791 0.41359 -0.39500
O 	O 	0.93621 0.80766 0.61254 -0.37700
C 	C 	0.97740 0.77822 0.48390 0.49400
H 	H 	0.91670 0.72220 0.43670 -0.10800
O 	O 	0.24239 0.90584 0.13549 -0.33600
O 	O 	0.09328 0.68209 0.08641 -0.40200
O 	O 	0.93621 0.69234 0.88746 -0.38000
C 	C 	0.97740 0.72178 0.01610 0.47800
H 	H 	0.91670 0.77780 0.06330 -0.10100
O 	O 	0.25761 0.09416 0.13549 -0.39200
O 	O 	0.40672 0.31791 0.08641 -0.41600
O 	O 	0.56379 0.30766 0.88746 -0.39400
C 	C 	0.52260 0.27822 0.01610 0.50200
H 	H 	0.58330 0.22220 0.06330 -0.11800
O 	O 	0.74239 0.59416 0.63549 -0.41000
O 	O 	0.59328 0.81791 0.58641 -0.39900
O 	O 	0.43621 0.80766 0.38746 -0.37800
C 	C 	0.47740 0.77822 0.51610 0.50000
H 	H 	0.41670 0.72220 0.56330 -0.10900
O 	O 	0.75761 0.40584 0.63549 -0.41000
O 	O 	0.90672 0.18209 0.58641 -0.42100
O 	O 	0.06379 0.19234 0.38746 -0.39900
C 	C 	0.02260 0.22178 0.51610 0.49800
H 	H 	0.08330 0.27780 0.56330 -0.11300
O 	O 	0.75761 0.09416 0.86451 -0.39200
O 	O 	0.90672 0.31791 0.91359 -0.40600
O 	O 	0.06379 0.30766 0.11254 -0.38500
C 	C 	0.02260 0.27822 0.98390 0.48200
H 	H 	0.08330 0.22220 0.93670 -0.11300
O 	O 	0.74239 0.90584 0.86451 -0.34000
O 	O 	0.59328 0.68209 0.91359 -0.41200
O 	O 	0.43621 0.69234 0.11254 -0.38900
C 	C 	0.47740 0.72178 0.98390 0.50000
H 	H 	0.41670 0.77780 0.93670 -0.10600
Zn	Zn	0.25565 0.25000 0.25000 1.25600
Zn	Zn	0.24435 0.75000 0.25000 1.25700
Zn	Zn	0.74435 0.75000 0.75000 1.25700
Zn	Zn	0.75565 0.25000 0.75000 1.25600
C 	C 	0.25000 0.50000 0.30190 0.49800
H 	H 	0.25000 0.50000 0.19750 -0.10700
C 	C 	0.25000 0.00000 0.19810 0.38400
H 	H 	0.25000 0.00000 0.30250 -0.09000
C 	C 	0.75000 0.50000 0.69810 0.49800
H 	H 	0.75000 0.50000 0.80250 -0.10700
C 	C 	0.75000 -0.00000 0.80190 0.38900
H 	H 	0.75000 -0.00000 0.69750 -0.09100
