data_crystal

_cell_length_a 8.41560
_cell_length_b 11.85040
_cell_length_c 8.94740
_cell_angle_alpha 90.00000
_cell_angle_beta  90.00000
_cell_angle_gamma 90.00000

_symmetry_space_group_name_	'P 1'
_symmetry_space_group_name_H-M	'P 1'

loop_
_symmetry_equiv_pos_as_xyz
  x,y,z

loop_
_atom_site_label
_atom_site_type_symbol
_atom_site_fract_x
_atom_site_fract_y
_atom_site_fract_z
_atom_site_charge
O 	O 	0.25631 0.40623 0.36867 -0.39100
O 	O 	0.40664 0.18276 0.41311 -0.41400
O 	O 	0.56200 0.19299 0.61162 -0.39400
C 	C 	0.52170 0.22121 0.48310 0.49200
H 	H 	0.58310 0.27570 0.43550 -0.11400
O 	O 	0.24369 0.59377 0.36867 -0.39000
O 	O 	0.09336 0.81724 0.41311 -0.38700
O 	O 	0.93800 0.80701 0.61162 -0.37200
C 	C 	0.97830 0.77879 0.48310 0.48400
H 	H 	0.91690 0.72430 0.43550 -0.10800
O 	O 	0.24369 0.90623 0.13133 -0.32200
O 	O 	0.09336 0.68276 0.08689 -0.39300
O 	O 	0.93800 0.69299 0.88838 -0.37500
C 	C 	0.97830 0.72121 0.01690 0.46800
H 	H 	0.91690 0.77570 0.06450 -0.10100
O 	O 	0.25631 0.09377 0.13133 -0.37300
O 	O 	0.40664 0.31724 0.08689 -0.40600
O 	O 	0.56200 0.30701 0.88838 -0.38800
C 	C 	0.52170 0.27879 0.01690 0.49200
H 	H 	0.58310 0.22430 0.06450 -0.11800
O 	O 	0.74369 0.59377 0.63133 -0.39000
O 	O 	0.59336 0.81724 0.58689 -0.39100
O 	O 	0.43800 0.80701 0.38838 -0.37300
C 	C 	0.47830 0.77879 0.51690 0.49000
H 	H 	0.41690 0.72430 0.56450 -0.10900
O 	O 	0.75631 0.40623 0.63133 -0.39000
O 	O 	0.90664 0.18276 0.58689 -0.41100
O 	O 	0.06200 0.19299 0.38838 -0.39200
C 	C 	0.02170 0.22121 0.51690 0.48800
H 	H 	0.08310 0.27570 0.56450 -0.11300
O 	O 	0.75631 0.09377 0.86867 -0.37400
O 	O 	0.90664 0.31724 0.91311 -0.39700
O 	O 	0.06200 0.30701 0.11162 -0.37900
C 	C 	0.02170 0.27879 0.98310 0.47200
H 	H 	0.08310 0.22430 0.93550 -0.11200
O 	O 	0.74369 0.90623 0.86867 -0.32500
O 	O 	0.59336 0.68276 0.91311 -0.40300
O 	O 	0.43800 0.69299 0.11162 -0.38400
C 	C 	0.47830 0.72121 0.98310 0.49000
H 	H 	0.41690 0.77570 0.93550 -0.10700
Fe	Fe	0.25243 0.25000 0.25000 1.23200
Fe	Fe	0.24757 0.75000 0.25000 1.23400
Fe	Fe	0.74757 0.75000 0.75000 1.23400
Fe	Fe	0.75243 0.25000 0.75000 1.23200
C 	C 	0.25000 0.50000 0.30650 0.47000
H 	H 	0.25000 0.50000 0.20260 -0.10400
C 	C 	0.25000 0.00000 0.19350 0.36500
H 	H 	0.25000 0.00000 0.29740 -0.08900
C 	C 	0.75000 0.50000 0.69350 0.47000
H 	H 	0.75000 0.50000 0.79740 -0.10400
C 	C 	0.75000 0.00000 0.80650 0.37000
H 	H 	0.75000 0.00000 0.70260 -0.09000
