data_crystal

_cell_length_a 10.02180
_cell_length_b 10.71450
_cell_length_c 10.98700
_cell_angle_alpha 80.47800
_cell_angle_beta  72.44200
_cell_angle_gamma 74.52200

_symmetry_space_group_name_	'P 1'
_symmetry_space_group_name_H-M	'P 1'

loop_
_symmetry_equiv_pos_as_xyz
  x,y,z

loop_
_atom_site_label
_atom_site_type_symbol
_atom_site_fract_x
_atom_site_fract_y
_atom_site_fract_z
_atom_site_charge
Nd	Nd	0.17619 0.19537 0.03486 1.99700
Zn	Zn	0.29277 0.36785 0.61537 1.19500
N 	N 	0.47730 0.20540 0.56840 -0.23000
N 	N 	0.13210 0.30220 0.57500 -0.24300
C 	C 	0.55980 0.17560 0.45090 0.06800
H 	H 	0.53400 0.22500 0.38000 0.00400
C 	C 	0.68280 0.07640 0.43320 -0.12300
H 	H 	0.73900 0.05600 0.35200 0.09200
C 	C 	0.72280 0.00770 0.54030 0.02900
H 	H 	0.80400 0.94600 0.53100 0.02300
C 	C 	0.63850 0.03750 0.66260 -0.05600
C 	C 	0.51430 0.13650 0.67170 -0.01400
C 	C 	0.68740 0.96210 0.77650 0.30200
C 	C 	0.40690 0.16890 0.79790 0.29500
C 	C 	0.11010 0.35230 0.45960 0.01700
C 	C 	0.99250 0.33810 0.42500 -0.17200
C 	C 	0.89550 0.27380 0.51340 0.09800
H 	H 	0.81000 0.27000 0.49300 -0.01000
C 	C 	0.91900 0.22290 0.63110 -0.16600
H 	H 	0.85400 0.17900 0.69400 0.10500
C 	C 	0.03880 0.23860 0.65810 0.11800
H 	H 	0.06200 0.20300 0.73100 -0.03300
C 	C 	0.22060 0.42590 0.37530 0.29600
C 	C 	0.96800 0.38540 0.29450 0.49700
C 	C 	0.05980 0.97780 0.93920 0.24500
O 	O 	0.75540 0.01060 0.82800 -0.39300
O 	O 	0.66740 0.84890 0.80960 -0.39600
O 	O 	0.42620 0.10510 0.89870 -0.39000
O 	O 	0.29400 0.25920 0.79510 -0.57100
O 	O 	0.31240 0.44080 0.42660 -0.43900
O 	O 	0.21310 0.46830 0.26520 -0.27300
O 	O 	0.02500 0.30550 0.21180 -0.55900
O 	O 	0.88790 0.49380 0.27670 -0.49800
O 	O 	0.16330 0.03350 0.90440 -0.40200
O 	O 	0.04450 0.89180 0.88450 -0.41300
Nd	Nd	0.82381 0.80463 0.96514 1.99700
Zn	Zn	0.70723 0.63215 0.38463 1.19500
N 	N 	0.52270 0.79460 0.43160 -0.23000
N 	N 	0.86790 0.69780 0.42500 -0.24300
C 	C 	0.44020 0.82440 0.54910 0.06800
H 	H 	0.46600 0.77500 0.62000 0.00400
C 	C 	0.31720 0.92360 0.56680 -0.12300
H 	H 	0.26100 0.94400 0.64800 0.09200
C 	C 	0.27720 0.99230 0.45970 0.02900
H 	H 	0.19600 0.05400 0.46900 0.02300
C 	C 	0.36150 0.96250 0.33740 -0.05600
C 	C 	0.48570 0.86350 0.32830 -0.01400
C 	C 	0.31260 0.03790 0.22350 0.30200
C 	C 	0.59310 0.83110 0.20210 0.29500
C 	C 	0.88990 0.64770 0.54040 0.01700
C 	C 	0.00750 0.66190 0.57500 -0.17200
C 	C 	0.10450 0.72620 0.48660 0.09800
H 	H 	0.19000 0.73000 0.50700 -0.01000
C 	C 	0.08100 0.77710 0.36890 -0.16600
H 	H 	0.14600 0.82100 0.30600 0.10500
C 	C 	0.96120 0.76140 0.34190 0.11800
H 	H 	0.93800 0.79700 0.26900 -0.03300
C 	C 	0.77940 0.57410 0.62470 0.29600
C 	C 	0.03200 0.61460 0.70550 0.49700
C 	C 	0.94020 0.02220 0.06080 0.24500
O 	O 	0.24460 0.98940 0.17200 -0.39300
O 	O 	0.33260 0.15110 0.19040 -0.39600
O 	O 	0.57380 0.89490 0.10130 -0.39000
O 	O 	0.70600 0.74080 0.20490 -0.57100
O 	O 	0.68760 0.55920 0.57340 -0.43900
O 	O 	0.78690 0.53170 0.73480 -0.27300
O 	O 	0.97500 0.69450 0.78820 -0.55900
O 	O 	0.11210 0.50620 0.72330 -0.49800
O 	O 	0.83670 0.96650 0.09560 -0.40200
O 	O 	0.95550 0.10820 0.11550 -0.41300
