data_crystal

_cell_length_a 10.01540
_cell_length_b 10.74480
_cell_length_c 10.97460
_cell_angle_alpha 80.36300
_cell_angle_beta  72.52100
_cell_angle_gamma 74.59300

_symmetry_space_group_name_	'P 1'
_symmetry_space_group_name_H-M	'P 1'

loop_
_symmetry_equiv_pos_as_xyz
  x,y,z

loop_
_atom_site_label
_atom_site_type_symbol
_atom_site_fract_x
_atom_site_fract_y
_atom_site_fract_z
_atom_site_charge
Pr	Pr	0.82313 0.30429 0.46464 2.04200
Zn	Zn	0.70708 0.13197 0.88491 1.19500
N 	N 	0.86840 0.19750 0.92470 -0.24300
N 	N 	0.52370 0.29340 0.93260 -0.23100
C 	C 	0.89030 0.14750 0.03970 0.02000
C 	C 	0.78080 0.07300 0.12390 0.29900
C 	C 	0.00750 0.16150 0.07460 -0.15700
C 	C 	0.10400 0.22640 0.98620 0.08200
H 	H 	0.18800 0.22600 0.00900 0.00000
C 	C 	0.07950 0.27800 0.86910 -0.15800
H 	H 	0.14400 0.31900 0.80400 0.10600
C 	C 	0.96020 0.26220 0.84210 0.11100
H 	H 	0.93300 0.29900 0.77200 -0.03100
C 	C 	0.44210 0.32320 0.04950 0.07200
H 	H 	0.47700 0.27400 0.11700 0.00600
C 	C 	0.31920 0.42220 0.06800 -0.11400
H 	H 	0.26100 0.44000 0.15100 0.09200
C 	C 	0.27870 0.49080 0.96150 0.02200
H 	H 	0.20100 0.55500 0.96500 0.03400
C 	C 	0.36200 0.46210 0.83920 -0.06700
C 	C 	0.48620 0.36310 0.82960 -0.01200
C 	C 	0.31320 0.53730 0.72540 0.32700
C 	C 	0.59250 0.33020 0.70340 0.29600
C 	C 	0.93970 0.52240 0.56080 0.23100
C 	C 	0.03280 0.11390 0.20470 0.46800
O 	O 	0.68890 0.05820 0.07308 -0.43600
O 	O 	0.78910 0.03070 0.23409 -0.27300
O 	O 	0.97600 0.19280 0.28737 -0.54700
O 	O 	0.11360 0.00593 0.22165 -0.48800
O 	O 	0.70443 0.24044 0.70557 -0.59100
O 	O 	0.57240 0.39471 0.60300 -0.40500
O 	O 	0.33360 0.65009 0.69220 -0.40900
O 	O 	0.24420 0.48975 0.67470 -0.41700
O 	O 	0.83680 0.46750 0.59454 -0.41000
O 	O 	0.95450 0.60880 0.61478 -0.41400
Pr	Pr	0.17687 0.69571 0.53536 2.04200
Zn	Zn	0.29292 0.86803 0.11509 1.19500
N 	N 	0.13160 0.80250 0.07530 -0.24300
N 	N 	0.47630 0.70660 0.06740 -0.23100
C 	C 	0.10970 0.85250 0.96030 0.02000
C 	C 	0.21920 0.92700 0.87610 0.29900
C 	C 	0.99250 0.83850 0.92540 -0.15700
C 	C 	0.89600 0.77360 0.01380 0.08200
H 	H 	0.81200 0.77400 0.99100 0.00000
C 	C 	0.92050 0.72200 0.13090 -0.15800
H 	H 	0.85600 0.68100 0.19600 0.10600
C 	C 	0.03980 0.73780 0.15790 0.11100
H 	H 	0.06700 0.70100 0.22800 -0.03100
C 	C 	0.55790 0.67680 0.95050 0.07200
H 	H 	0.52300 0.72600 0.88300 0.00600
C 	C 	0.68080 0.57780 0.93200 -0.11400
H 	H 	0.73900 0.56000 0.84900 0.09200
C 	C 	0.72130 0.50920 0.03850 0.02200
H 	H 	0.79900 0.44500 0.03500 0.03400
C 	C 	0.63800 0.53790 0.16080 -0.06700
C 	C 	0.51380 0.63690 0.17040 -0.01200
C 	C 	0.68680 0.46270 0.27460 0.32700
C 	C 	0.40750 0.66980 0.29660 0.29600
C 	C 	0.06030 0.47760 0.43920 0.23100
C 	C 	0.96720 0.88610 0.79530 0.46800
O 	O 	0.31110 0.94180 0.92692 -0.43600
O 	O 	0.21090 0.96930 0.76591 -0.27300
O 	O 	0.02400 0.80720 0.71263 -0.54700
O 	O 	0.88640 0.99407 0.77835 -0.48800
O 	O 	0.29557 0.75956 0.29443 -0.59100
O 	O 	0.42760 0.60529 0.39700 -0.40500
O 	O 	0.66640 0.34991 0.30780 -0.40900
O 	O 	0.75580 0.51025 0.32530 -0.41700
O 	O 	0.16320 0.53250 0.40546 -0.41000
O 	O 	0.04550 0.39120 0.38522 -0.41400
