data_crystal

_cell_length_a 9.95550
_cell_length_b 10.54610
_cell_length_c 10.94070
_cell_angle_alpha 80.76800
_cell_angle_beta  71.98100
_cell_angle_gamma 74.56700

_symmetry_space_group_name_	'P 1'
_symmetry_space_group_name_H-M	'P 1'

loop_
_symmetry_equiv_pos_as_xyz
  x,y,z

loop_
_atom_site_label
_atom_site_type_symbol
_atom_site_fract_x
_atom_site_fract_y
_atom_site_fract_z
_atom_site_charge
Er	Er	0.17338 0.19279 0.03369 1.56100
Zn	Zn	0.29091 0.36783 0.61807 1.19500
N 	N 	0.13000 0.30330 0.57510 -0.24400
N 	N 	0.47810 0.20270 0.57240 -0.22700
C 	C 	0.03260 0.24220 0.65980 0.13200
H 	H 	0.04700 0.21300 0.74100 -0.02400
C 	C 	0.91190 0.22830 0.63170 -0.20300
H 	H 	0.84900 0.18800 0.68900 0.13200
C 	C 	0.89150 0.27730 0.51200 0.10700
H 	H 	0.80700 0.26500 0.49100 -0.01000
C 	C 	0.99380 0.33830 0.42210 -0.16400
C 	C 	0.11220 0.35130 0.45770 0.02200
C 	C 	0.22690 0.42260 0.37270 0.29200
C 	C 	0.97340 0.38250 0.28900 0.46800
C 	C 	0.56360 0.17050 0.45530 0.06500
H 	H 	0.53300 0.21800 0.39000 0.00700
C 	C 	0.68940 0.07100 0.43860 -0.11200
H 	H 	0.74800 0.06100 0.35400 0.09100
C 	C 	0.72860 0.00510 0.54660 0.01700
H 	H 	0.80600 0.94500 0.53800 0.03300
C 	C 	0.64090 0.03670 0.66940 -0.05000
C 	C 	0.51480 0.13540 0.67730 -0.01600
C 	C 	0.40180 0.16880 0.80320 0.29600
C 	C 	0.68970 0.96090 0.78470 0.29800
C 	C 	0.94070 0.02020 0.06270 0.24300
O 	O 	0.22330 0.46310 0.26060 -0.25000
O 	O 	0.31730 0.43850 0.42570 -0.43200
O 	O 	0.03140 0.29790 0.20910 -0.48600
O 	O 	0.89510 0.49330 0.26870 -0.46900
O 	O 	0.28860 0.25840 0.79915 -0.52400
O 	O 	0.41840 0.10560 0.90581 -0.34500
O 	O 	0.67140 0.84580 0.81670 -0.34200
O 	O 	0.75680 0.01040 0.83740 -0.34700
O 	O 	0.95800 0.10600 0.11930 -0.35800
O 	O 	0.83800 0.96300 0.09700 -0.35600
Er	Er	0.82662 0.80721 0.96631 1.56100
Zn	Zn	0.70909 0.63217 0.38193 1.19500
N 	N 	0.87000 0.69670 0.42490 -0.24400
N 	N 	0.52190 0.79730 0.42760 -0.22700
C 	C 	0.96740 0.75780 0.34020 0.13200
H 	H 	0.95300 0.78700 0.25900 -0.02400
C 	C 	0.08810 0.77170 0.36830 -0.20300
H 	H 	0.15100 0.81200 0.31100 0.13200
C 	C 	0.10850 0.72270 0.48800 0.10700
H 	H 	0.19300 0.73500 0.50900 -0.01000
C 	C 	0.00620 0.66170 0.57790 -0.16400
C 	C 	0.88780 0.64870 0.54230 0.02200
C 	C 	0.77310 0.57740 0.62730 0.29200
C 	C 	0.02660 0.61750 0.71100 0.46800
C 	C 	0.43640 0.82950 0.54470 0.06500
H 	H 	0.46700 0.78200 0.61000 0.00700
C 	C 	0.31060 0.92900 0.56140 -0.11200
H 	H 	0.25200 0.93900 0.64600 0.09100
C 	C 	0.27140 0.99490 0.45340 0.01700
H 	H 	0.19400 0.05500 0.46200 0.03300
C 	C 	0.35910 0.96330 0.33060 -0.05000
C 	C 	0.48520 0.86460 0.32270 -0.01600
C 	C 	0.59820 0.83120 0.19680 0.29600
C 	C 	0.31030 0.03910 0.21530 0.29800
C 	C 	0.05930 0.97980 0.93730 0.24300
O 	O 	0.77670 0.53690 0.73940 -0.25000
O 	O 	0.68270 0.56150 0.57430 -0.43200
O 	O 	0.96860 0.70210 0.79090 -0.48600
O 	O 	0.10490 0.50670 0.73130 -0.46900
O 	O 	0.71140 0.74160 0.20085 -0.52400
O 	O 	0.58160 0.89440 0.09419 -0.34500
O 	O 	0.32860 0.15420 0.18330 -0.34200
O 	O 	0.24320 0.98960 0.16260 -0.34700
O 	O 	0.04200 0.89400 0.88070 -0.35800
O 	O 	0.16200 0.03700 0.90300 -0.35600
