data_crystal

_cell_length_a 10.01300
_cell_length_b 10.60700
_cell_length_c 10.99300
_cell_angle_alpha 80.74600
_cell_angle_beta  72.10700
_cell_angle_gamma 74.53700

_symmetry_space_group_name_	'P 1'
_symmetry_space_group_name_H-M	'P 1'

loop_
_symmetry_equiv_pos_as_xyz
  x,y,z

loop_
_atom_site_label
_atom_site_type_symbol
_atom_site_fract_x
_atom_site_fract_y
_atom_site_fract_z
_atom_site_charge
Ho	Ho	0.82633 0.30692 0.46628 1.61200
Zn	Zn	0.70883 0.13228 0.88229 1.18900
N 	N 	0.86980 0.19700 0.92490 -0.23800
N 	N 	0.52170 0.29700 0.92820 -0.22600
C 	C 	0.77320 0.07740 0.12710 0.29200
C 	C 	0.88820 0.14870 0.04200 0.01400
C 	C 	0.00620 0.16190 0.07750 -0.13300
C 	C 	0.10830 0.22280 0.98770 0.04800
H 	H 	0.19200 0.22900 0.00800 0.01100
C 	C 	0.08740 0.27230 0.86850 -0.11700
H 	H 	0.15400 0.31400 0.80100 0.09000
C 	C 	0.96620 0.25850 0.84040 0.08500
H 	H 	0.95400 0.28700 0.76300 -0.01300
C 	C 	0.02720 0.11710 0.21070 0.44500
C 	C 	0.59720 0.33100 0.69710 0.28800
C 	C 	0.48520 0.36440 0.82330 -0.01500
C 	C 	0.35940 0.46320 0.83130 -0.05600
C 	C 	0.27170 0.49510 0.95370 0.00600
H 	H 	0.19200 0.57100 0.96200 0.04000
C 	C 	0.31150 0.42850 0.06220 -0.08600
H 	H 	0.25300 0.45100 0.15000 0.07800
C 	C 	0.43700 0.32850 0.04500 0.05200
H 	H 	0.46200 0.28500 0.11400 0.01400
C 	C 	0.31140 0.53830 0.71570 0.31400
C 	C 	0.05920 0.47910 0.43730 0.24700
O 	O 	0.68320 0.06170 0.07450 -0.42900
O 	O 	0.77790 0.03620 0.23900 -0.25100
O 	O 	0.96960 0.20090 0.29110 -0.47900
O 	O 	0.10570 0.00680 0.23050 -0.46100
O 	O 	0.71100 0.24140 0.70110 -0.52900
O 	O 	0.58050 0.39460 0.59520 -0.35300
O 	O 	0.32900 0.65390 0.68400 -0.34600
O 	O 	0.24370 0.48920 0.66320 -0.36200
O 	O 	0.04260 0.39340 0.38110 -0.36400
O 	O 	0.16200 0.53630 0.40300 -0.36800
Ho	Ho	0.17367 0.69308 0.53373 1.61300
Zn	Zn	0.29117 0.86772 0.11771 1.19000
N 	N 	0.13020 0.80300 0.07510 -0.23800
N 	N 	0.47830 0.70300 0.07180 -0.22600
C 	C 	0.22680 0.92260 0.87290 0.29200
C 	C 	0.11180 0.85130 0.95800 0.01400
C 	C 	0.99380 0.83810 0.92250 -0.13300
C 	C 	0.89170 0.77720 0.01230 0.04800
H 	H 	0.80800 0.77100 0.99200 0.01100
C 	C 	0.91260 0.72770 0.13150 -0.11700
H 	H 	0.84600 0.68600 0.19900 0.09000
C 	C 	0.03380 0.74150 0.15960 0.08500
H 	H 	0.04600 0.71300 0.23700 -0.01300
C 	C 	0.97280 0.88290 0.78930 0.44500
C 	C 	0.40280 0.66900 0.30290 0.28800
C 	C 	0.51480 0.63560 0.17670 -0.01500
C 	C 	0.64060 0.53680 0.16870 -0.05600
C 	C 	0.72830 0.50490 0.04630 0.00600
H 	H 	0.80800 0.42900 0.03800 0.04000
C 	C 	0.68850 0.57150 0.93780 -0.08600
H 	H 	0.74700 0.54900 0.85000 0.07800
C 	C 	0.56300 0.67150 0.95500 0.05200
H 	H 	0.53800 0.71500 0.88600 0.01400
C 	C 	0.68860 0.46170 0.28430 0.31400
C 	C 	0.94080 0.52090 0.56270 0.24700
O 	O 	0.31680 0.93830 0.92550 -0.42900
O 	O 	0.22210 0.96380 0.76100 -0.25100
O 	O 	0.03040 0.79910 0.70890 -0.47900
O 	O 	0.89430 0.99320 0.76950 -0.46100
O 	O 	0.28900 0.75860 0.29890 -0.52900
O 	O 	0.41950 0.60540 0.40480 -0.35300
O 	O 	0.67100 0.34610 0.31600 -0.34600
O 	O 	0.75630 0.51080 0.33680 -0.36200
O 	O 	0.95740 0.60660 0.61890 -0.36400
O 	O 	0.83800 0.46370 0.59700 -0.36800
