data_crystal

_cell_length_a 16.36300
_cell_length_b 16.36300
_cell_length_c 19.19600
_cell_angle_alpha 90.00000
_cell_angle_beta  90.00000
_cell_angle_gamma 120.00000

_symmetry_space_group_name_	'P 1'
_symmetry_space_group_name_H-M	'P 1'

loop_
_symmetry_equiv_pos_as_xyz
  x,y,z

loop_
_atom_site_label
_atom_site_type_symbol
_atom_site_fract_x
_atom_site_fract_y
_atom_site_fract_z
_atom_site_charge
Cu	Cu	0.77114 0.31792 0.50904 0.91900
O 	O 	0.86110 0.39840 0.43760 -0.39900
O 	O 	0.91230 0.40680 0.32910 -0.31800
O 	O 	0.66650 0.22030 0.56500 -0.48900
O 	O 	0.59200 0.13360 0.65720 -0.39700
N 	N 	0.86900 0.31450 0.56770 -0.23100
H 	H 	0.87810 0.35610 0.60720 0.09800
C 	C 	0.93440 0.30690 0.40690 -0.18400
C 	C 	0.93820 0.25180 0.35270 0.07200
H 	H 	0.92140 0.25870 0.30770 0.00500
C 	C 	0.96770 0.18550 0.36680 -0.16200
H 	H 	0.96800 0.14740 0.33090 0.07600
C 	C 	0.99540 0.17650 0.43090 0.08900
H 	H 	0.01520 0.13300 0.43890 -0.00900
C 	C 	0.99440 0.23110 0.48440 -0.18500
H 	H 	0.01530 0.22570 0.52830 0.09100
C 	C 	0.96210 0.29560 0.47390 0.12800
C 	C 	0.89970 0.37450 0.38970 0.35100
C 	C 	0.96290 0.35290 0.53530 -0.17900
H 	H 	0.00710 0.35470 0.56980 0.08300
H 	H 	0.98470 0.41720 0.52030 0.09100
C 	C 	0.83490 0.21930 0.59870 0.10600
H 	H 	0.88720 0.21750 0.62100 -0.00900
H 	H 	0.81080 0.17210 0.56210 -0.00900
C 	C 	0.75720 0.19650 0.65220 -0.46600
H 	H 	0.74530 0.14010 0.67740 0.15900
H 	H 	0.78040 0.24780 0.68560 0.15600
C 	C 	0.66490 0.18090 0.62340 0.46700
Cu	Cu	0.68208 0.45322 0.50904 0.91800
O 	O 	0.60160 0.46270 0.43760 -0.40000
O 	O 	0.59320 0.50550 0.32910 -0.32000
O 	O 	0.77970 0.44620 0.56500 -0.49000
O 	O 	0.86640 0.45840 0.65720 -0.39800
N 	N 	0.68550 0.55450 0.56770 -0.23200
H 	H 	0.64390 0.52200 0.60720 0.09700
C 	C 	0.69310 0.62750 0.40690 -0.18400
C 	C 	0.74820 0.68640 0.35270 0.06900
H 	H 	0.74130 0.66270 0.30770 0.00400
C 	C 	0.81450 0.78220 0.36680 -0.16100
H 	H 	0.85260 0.82060 0.33090 0.07400
C 	C 	0.82350 0.81890 0.43090 0.08500
H 	H 	0.86700 0.88220 0.43890 -0.00800
C 	C 	0.76890 0.76330 0.48440 -0.18200
H 	H 	0.77430 0.78960 0.52830 0.09000
C 	C 	0.70440 0.66650 0.47390 0.12700
C 	C 	0.62550 0.52520 0.38970 0.35100
C 	C 	0.64710 0.61000 0.53530 -0.17700
H 	H 	0.64530 0.65240 0.56980 0.08200
H 	H 	0.58280 0.56750 0.52030 0.09100
C 	C 	0.78070 0.61560 0.59870 0.10600
H 	H 	0.78250 0.66970 0.62100 -0.00800
H 	H 	0.82790 0.63870 0.56210 -0.00900
C 	C 	0.80350 0.56070 0.65220 -0.46600
H 	H 	0.85990 0.60520 0.67740 0.15900
H 	H 	0.75220 0.53260 0.68560 0.15600
C 	C 	0.81910 0.48400 0.62340 0.46700
Cu	Cu	0.54678 0.22886 0.50904 0.91800
O 	O 	0.53730 0.13890 0.43760 -0.40000
O 	O 	0.49450 0.08770 0.32910 -0.31900
O 	O 	0.55380 0.33350 0.56500 -0.49000
O 	O 	0.54160 0.40800 0.65720 -0.39800
N 	N 	0.44550 0.13100 0.56770 -0.23200
H 	H 	0.47800 0.12190 0.60720 0.09700
C 	C 	0.37250 0.06560 0.40690 -0.18500
C 	C 	0.31360 0.06180 0.35270 0.07000
H 	H 	0.33730 0.07860 0.30770 0.00400
C 	C 	0.21780 0.03230 0.36680 -0.16300
H 	H 	0.17940 0.03200 0.33090 0.07500
C 	C 	0.18110 0.00460 0.43090 0.08900
H 	H 	0.11780 0.98480 0.43890 -0.01000
C 	C 	0.23670 0.00560 0.48440 -0.18400
H 	H 	0.21040 0.98470 0.52830 0.09000
C 	C 	0.33350 0.03790 0.47390 0.12800
C 	C 	0.47480 0.10030 0.38970 0.35100
C 	C 	0.39000 0.03710 0.53530 -0.17900
H 	H 	0.34760 0.99290 0.56980 0.08300
H 	H 	0.43250 0.01530 0.52030 0.09100
C 	C 	0.38440 0.16510 0.59870 0.10600
H 	H 	0.33030 0.11280 0.62100 -0.00900
H 	H 	0.36130 0.18920 0.56210 -0.00900
C 	C 	0.43930 0.24280 0.65220 -0.46600
H 	H 	0.39480 0.25470 0.67740 0.15900
H 	H 	0.46740 0.21960 0.68560 0.15600
C 	C 	0.51600 0.33510 0.62340 0.46700
Cu	Cu	0.22886 0.68208 0.00904 0.91700
O 	O 	0.13890 0.60160 0.93760 -0.39900
O 	O 	0.08770 0.59320 0.82910 -0.31900
O 	O 	0.33350 0.77970 0.06500 -0.49100
O 	O 	0.40800 0.86640 0.15720 -0.39900
N 	N 	0.13100 0.68550 0.06770 -0.23000
H 	H 	0.12190 0.64390 0.10720 0.09700
C 	C 	0.06560 0.69310 0.90690 -0.19100
C 	C 	0.06180 0.74820 0.85270 0.07800
H 	H 	0.07860 0.74130 0.80770 0.00200
C 	C 	0.03230 0.81450 0.86680 -0.17300
H 	H 	0.03200 0.85260 0.83090 0.07900
C 	C 	0.00460 0.82350 0.93090 0.10200
H 	H 	0.98480 0.86700 0.93890 -0.01500
C 	C 	0.00560 0.76890 0.98440 -0.19000
H 	H 	0.98470 0.77430 0.02830 0.09200
C 	C 	0.03790 0.70440 0.97390 0.14000
C 	C 	0.10030 0.62550 0.88970 0.35400
C 	C 	0.03710 0.64710 0.03530 -0.19500
H 	H 	0.99290 0.64530 0.06980 0.09000
H 	H 	0.01530 0.58280 0.02030 0.09500
C 	C 	0.16510 0.78070 0.09870 0.10600
H 	H 	0.11280 0.78250 0.12100 -0.01000
H 	H 	0.18920 0.82790 0.06210 -0.01100
C 	C 	0.24280 0.80350 0.15220 -0.46700
H 	H 	0.25470 0.85990 0.17740 0.15900
H 	H 	0.21960 0.75220 0.18560 0.15600
C 	C 	0.33510 0.81910 0.12340 0.46700
Cu	Cu	0.31792 0.54678 0.00904 0.91700
O 	O 	0.39840 0.53730 0.93760 -0.40000
O 	O 	0.40680 0.49450 0.82910 -0.32000
O 	O 	0.22030 0.55380 0.06500 -0.49100
O 	O 	0.13360 0.54160 0.15720 -0.39900
N 	N 	0.31450 0.44550 0.06770 -0.23200
H 	H 	0.35610 0.47800 0.10720 0.09700
C 	C 	0.30690 0.37250 0.90690 -0.18400
C 	C 	0.25180 0.31360 0.85270 0.06900
H 	H 	0.25870 0.33730 0.80770 0.00400
C 	C 	0.18550 0.21780 0.86680 -0.16100
H 	H 	0.14740 0.17940 0.83090 0.07400
C 	C 	0.17650 0.18110 0.93090 0.08500
H 	H 	0.13300 0.11780 0.93890 -0.00800
C 	C 	0.23110 0.23670 0.98440 -0.18200
H 	H 	0.22570 0.21040 0.02830 0.09000
C 	C 	0.29560 0.33350 0.97390 0.12800
C 	C 	0.37450 0.47480 0.88970 0.35100
C 	C 	0.35290 0.39000 0.03530 -0.17700
H 	H 	0.35470 0.34760 0.06980 0.08200
H 	H 	0.41720 0.43250 0.02030 0.09100
C 	C 	0.21930 0.38440 0.09870 0.10600
H 	H 	0.21750 0.33030 0.12100 -0.00900
H 	H 	0.17210 0.36130 0.06210 -0.01000
C 	C 	0.19650 0.43930 0.15220 -0.46700
H 	H 	0.14010 0.39480 0.17740 0.15900
H 	H 	0.24780 0.46740 0.18560 0.15600
C 	C 	0.18090 0.51600 0.12340 0.46700
Cu	Cu	0.45322 0.77114 0.00904 0.91700
O 	O 	0.46270 0.86110 0.93760 -0.40000
O 	O 	0.50550 0.91230 0.82910 -0.32000
O 	O 	0.44620 0.66650 0.06500 -0.49100
O 	O 	0.45840 0.59200 0.15720 -0.39800
N 	N 	0.55450 0.86900 0.06770 -0.23000
H 	H 	0.52200 0.87810 0.10720 0.09700
C 	C 	0.62750 0.93440 0.90690 -0.19400
C 	C 	0.68640 0.93820 0.85270 0.08300
H 	H 	0.66270 0.92140 0.80770 -0.00000
C 	C 	0.78220 0.96770 0.86680 -0.18100
H 	H 	0.82060 0.96800 0.83090 0.08200
C 	C 	0.81890 0.99540 0.93090 0.11400
H 	H 	0.88220 0.01520 0.93890 -0.02200
C 	C 	0.76330 0.99440 0.98440 -0.20500
H 	H 	0.78960 0.01530 0.02830 0.10000
C 	C 	0.66650 0.96210 0.97390 0.14400
C 	C 	0.52520 0.89970 0.88970 0.35500
C 	C 	0.61000 0.96290 0.03530 -0.19500
H 	H 	0.65240 0.00710 0.06980 0.09000
H 	H 	0.56750 0.98470 0.02030 0.09500
C 	C 	0.61560 0.83490 0.09870 0.10500
H 	H 	0.66970 0.88720 0.12100 -0.00900
H 	H 	0.63870 0.81080 0.06210 -0.00900
C 	C 	0.56070 0.75720 0.15220 -0.46600
H 	H 	0.60520 0.74530 0.17740 0.15900
H 	H 	0.53260 0.78040 0.18560 0.15600
C 	C 	0.48400 0.66490 0.12340 0.46700
Cu	Cu	0.22886 0.68208 0.49096 0.91800
O 	O 	0.13890 0.60160 0.56240 -0.40000
O 	O 	0.08770 0.59320 0.67090 -0.31900
O 	O 	0.33350 0.77970 0.43500 -0.49000
O 	O 	0.40800 0.86640 0.34280 -0.39800
N 	N 	0.13100 0.68550 0.43230 -0.23200
H 	H 	0.12190 0.64390 0.39280 0.09700
C 	C 	0.06560 0.69310 0.59310 -0.18500
C 	C 	0.06180 0.74820 0.64730 0.07100
H 	H 	0.07860 0.74130 0.69230 0.00400
C 	C 	0.03230 0.81450 0.63320 -0.16300
H 	H 	0.03200 0.85260 0.66910 0.07500
C 	C 	0.00460 0.82350 0.56910 0.08900
H 	H 	0.98480 0.86700 0.56110 -0.00900
C 	C 	0.00560 0.76890 0.51560 -0.18500
H 	H 	0.98470 0.77430 0.47170 0.09100
C 	C 	0.03790 0.70440 0.52610 0.12800
C 	C 	0.10030 0.62550 0.61030 0.35100
C 	C 	0.03710 0.64710 0.46470 -0.17900
H 	H 	0.99290 0.64530 0.43020 0.08300
H 	H 	0.01530 0.58280 0.47970 0.09100
C 	C 	0.16510 0.78070 0.40130 0.10600
H 	H 	0.11280 0.78250 0.37900 -0.00900
H 	H 	0.18920 0.82790 0.43790 -0.00900
C 	C 	0.24280 0.80350 0.34780 -0.46600
H 	H 	0.25470 0.85990 0.32260 0.15900
H 	H 	0.21960 0.75220 0.31440 0.15600
C 	C 	0.33510 0.81910 0.37660 0.46700
Cu	Cu	0.31792 0.54678 0.49096 0.91800
O 	O 	0.39840 0.53730 0.56240 -0.40000
O 	O 	0.40680 0.49450 0.67090 -0.32000
O 	O 	0.22030 0.55380 0.43500 -0.49000
O 	O 	0.13360 0.54160 0.34280 -0.39800
N 	N 	0.31450 0.44550 0.43230 -0.23200
H 	H 	0.35610 0.47800 0.39280 0.09700
C 	C 	0.30690 0.37250 0.59310 -0.18400
C 	C 	0.25180 0.31360 0.64730 0.06900
H 	H 	0.25870 0.33730 0.69230 0.00400
C 	C 	0.18550 0.21780 0.63320 -0.16100
H 	H 	0.14740 0.17940 0.66910 0.07400
C 	C 	0.17650 0.18110 0.56910 0.08500
H 	H 	0.13300 0.11780 0.56110 -0.00800
C 	C 	0.23110 0.23670 0.51560 -0.18200
H 	H 	0.22570 0.21040 0.47170 0.09000
C 	C 	0.29560 0.33350 0.52610 0.12700
C 	C 	0.37450 0.47480 0.61030 0.35100
C 	C 	0.35290 0.39000 0.46470 -0.17700
H 	H 	0.35470 0.34760 0.43020 0.08200
H 	H 	0.41720 0.43250 0.47970 0.09100
C 	C 	0.21930 0.38440 0.40130 0.10600
H 	H 	0.21750 0.33030 0.37900 -0.00800
H 	H 	0.17210 0.36130 0.43790 -0.00900
C 	C 	0.19650 0.43930 0.34780 -0.46600
H 	H 	0.14010 0.39480 0.32260 0.15900
H 	H 	0.24780 0.46740 0.31440 0.15600
C 	C 	0.18090 0.51600 0.37660 0.46700
Cu	Cu	0.45322 0.77114 0.49096 0.91800
O 	O 	0.46270 0.86110 0.56240 -0.40000
O 	O 	0.50550 0.91230 0.67090 -0.31900
O 	O 	0.44620 0.66650 0.43500 -0.49000
O 	O 	0.45840 0.59200 0.34280 -0.39800
N 	N 	0.55450 0.86900 0.43230 -0.23200
H 	H 	0.52200 0.87810 0.39280 0.09700
C 	C 	0.62750 0.93440 0.59310 -0.18500
C 	C 	0.68640 0.93820 0.64730 0.07000
H 	H 	0.66270 0.92140 0.69230 0.00400
C 	C 	0.78220 0.96770 0.63320 -0.16300
H 	H 	0.82060 0.96800 0.66910 0.07500
C 	C 	0.81890 0.99540 0.56910 0.08900
H 	H 	0.88220 0.01520 0.56110 -0.01000
C 	C 	0.76330 0.99440 0.51560 -0.18400
H 	H 	0.78960 0.01530 0.47170 0.09000
C 	C 	0.66650 0.96210 0.52610 0.12800
C 	C 	0.52520 0.89970 0.61030 0.35100
C 	C 	0.61000 0.96290 0.46470 -0.17900
H 	H 	0.65240 0.00710 0.43020 0.08300
H 	H 	0.56750 0.98470 0.47970 0.09100
C 	C 	0.61560 0.83490 0.40130 0.10600
H 	H 	0.66970 0.88720 0.37900 -0.00900
H 	H 	0.63870 0.81080 0.43790 -0.00900
C 	C 	0.56070 0.75720 0.34780 -0.46600
H 	H 	0.60520 0.74530 0.32260 0.15900
H 	H 	0.53260 0.78040 0.31440 0.15600
C 	C 	0.48400 0.66490 0.37660 0.46700
Cu	Cu	0.77114 0.31792 0.99096 0.91700
O 	O 	0.86110 0.39840 0.06240 -0.39900
O 	O 	0.91230 0.40680 0.17090 -0.31900
O 	O 	0.66650 0.22030 0.93500 -0.49100
O 	O 	0.59200 0.13360 0.84280 -0.39900
N 	N 	0.86900 0.31450 0.93230 -0.23000
H 	H 	0.87810 0.35610 0.89280 0.09700
C 	C 	0.93440 0.30690 0.09310 -0.19100
C 	C 	0.93820 0.25180 0.14730 0.07800
H 	H 	0.92140 0.25870 0.19230 0.00200
C 	C 	0.96770 0.18550 0.13320 -0.17300
H 	H 	0.96800 0.14740 0.16910 0.07900
C 	C 	0.99540 0.17650 0.06910 0.10200
H 	H 	0.01520 0.13300 0.06110 -0.01500
C 	C 	0.99440 0.23110 0.01560 -0.19000
H 	H 	0.01530 0.22570 0.97170 0.09200
C 	C 	0.96210 0.29560 0.02610 0.14000
C 	C 	0.89970 0.37450 0.11030 0.35400
C 	C 	0.96290 0.35290 0.96470 -0.19500
H 	H 	0.00710 0.35470 0.93020 0.09000
H 	H 	0.98470 0.41720 0.97970 0.09500
C 	C 	0.83490 0.21930 0.90130 0.10600
H 	H 	0.88720 0.21750 0.87900 -0.01000
H 	H 	0.81080 0.17210 0.93790 -0.01100
C 	C 	0.75720 0.19650 0.84780 -0.46700
H 	H 	0.74530 0.14010 0.82260 0.15900
H 	H 	0.78040 0.24780 0.81440 0.15600
C 	C 	0.66490 0.18090 0.87660 0.46700
Cu	Cu	0.68208 0.45322 0.99096 0.91700
O 	O 	0.60160 0.46270 0.06240 -0.40000
O 	O 	0.59320 0.50550 0.17090 -0.32000
O 	O 	0.77970 0.44620 0.93500 -0.49100
O 	O 	0.86640 0.45840 0.84280 -0.39900
N 	N 	0.68550 0.55450 0.93230 -0.23200
H 	H 	0.64390 0.52200 0.89280 0.09700
C 	C 	0.69310 0.62750 0.09310 -0.18400
C 	C 	0.74820 0.68640 0.14730 0.06900
H 	H 	0.74130 0.66270 0.19230 0.00400
C 	C 	0.81450 0.78220 0.13320 -0.16100
H 	H 	0.85260 0.82060 0.16910 0.07400
C 	C 	0.82350 0.81890 0.06910 0.08500
H 	H 	0.86700 0.88220 0.06110 -0.00800
C 	C 	0.76890 0.76330 0.01560 -0.18200
H 	H 	0.77430 0.78960 0.97170 0.09000
C 	C 	0.70440 0.66650 0.02610 0.12800
C 	C 	0.62550 0.52520 0.11030 0.35100
C 	C 	0.64710 0.61000 0.96470 -0.17700
H 	H 	0.64530 0.65240 0.93020 0.08200
H 	H 	0.58280 0.56750 0.97970 0.09100
C 	C 	0.78070 0.61560 0.90130 0.10600
H 	H 	0.78250 0.66970 0.87900 -0.00900
H 	H 	0.82790 0.63870 0.93790 -0.01000
C 	C 	0.80350 0.56070 0.84780 -0.46700
H 	H 	0.85990 0.60520 0.82260 0.15900
H 	H 	0.75220 0.53260 0.81440 0.15600
C 	C 	0.81910 0.48400 0.87660 0.46700
Cu	Cu	0.54678 0.22886 0.99096 0.91700
O 	O 	0.53730 0.13890 0.06240 -0.40000
O 	O 	0.49450 0.08770 0.17090 -0.32000
O 	O 	0.55380 0.33350 0.93500 -0.49100
O 	O 	0.54160 0.40800 0.84280 -0.39800
N 	N 	0.44550 0.13100 0.93230 -0.23000
H 	H 	0.47800 0.12190 0.89280 0.09700
C 	C 	0.37250 0.06560 0.09310 -0.19400
C 	C 	0.31360 0.06180 0.14730 0.08300
H 	H 	0.33730 0.07860 0.19230 -0.00000
C 	C 	0.21780 0.03230 0.13320 -0.18100
H 	H 	0.17940 0.03200 0.16910 0.08200
C 	C 	0.18110 0.00460 0.06910 0.11400
H 	H 	0.11780 0.98480 0.06110 -0.02200
C 	C 	0.23670 0.00560 0.01560 -0.20500
H 	H 	0.21040 0.98470 0.97170 0.10000
C 	C 	0.33350 0.03790 0.02610 0.14400
C 	C 	0.47480 0.10030 0.11030 0.35500
C 	C 	0.39000 0.03710 0.96470 -0.19500
H 	H 	0.34760 0.99290 0.93020 0.09000
H 	H 	0.43250 0.01530 0.97970 0.09500
C 	C 	0.38440 0.16510 0.90130 0.10500
H 	H 	0.33030 0.11280 0.87900 -0.00900
H 	H 	0.36130 0.18920 0.93790 -0.00900
C 	C 	0.43930 0.24280 0.84780 -0.46600
H 	H 	0.39480 0.25470 0.82260 0.15900
H 	H 	0.46740 0.21960 0.81440 0.15600
C 	C 	0.51600 0.33510 0.87660 0.46700
Na	Na	0.53100 0.03010 0.75000 0.58900
Na	Na	0.96990 0.50090 0.75000 0.58900
Na	Na	0.49910 0.46900 0.75000 0.58900
Na	Na	0.46900 0.96990 0.25000 0.58900
Na	Na	0.03010 0.49910 0.25000 0.58900
Na	Na	0.50090 0.53100 0.25000 0.58900
O 	O 	0.66667 0.33333 0.46700 -0.58700
H 	H 	0.66667 0.33333 0.41590 0.17600
O 	O 	0.33333 0.66667 0.96700 -0.58500
H 	H 	0.33333 0.66667 0.91590 0.17600
O 	O 	0.33333 0.66667 0.53300 -0.58700
H 	H 	0.33333 0.66667 0.58410 0.17600
O 	O 	0.66667 0.33333 0.03300 -0.58500
H 	H 	0.66667 0.33333 0.08410 0.17600
