data_crystal

_cell_length_a 14.45620
_cell_length_b 14.91130
_cell_length_c 14.91130
_cell_angle_alpha 108.09700
_cell_angle_beta  94.88550
_cell_angle_gamma 85.11450

_symmetry_space_group_name_	'P 1'
_symmetry_space_group_name_H-M	'P 1'

loop_
_symmetry_equiv_pos_as_xyz
  x,y,z

loop_
_atom_site_label
_atom_site_type_symbol
_atom_site_fract_x
_atom_site_fract_y
_atom_site_fract_z
_atom_site_charge
Co	Co	0.78418 0.86295 0.26133 1.15200
Co	Co	0.71582 0.26133 0.86295 1.15200
Co	Co	0.21582 0.13705 0.73867 1.15200
Co	Co	0.28418 0.73867 0.13705 1.15200
Co	Co	0.25000 0.60808 0.60808 1.14900
Co	Co	0.75000 0.39192 0.39192 1.14900
H 	H 	0.82300 0.03630 0.03350 0.07100
H 	H 	0.04710 0.89480 0.77340 0.08100
H 	H 	0.14840 0.79870 0.66730 0.01100
H 	H 	0.14310 0.59470 0.78210 0.01500
H 	H 	0.03880 0.68430 0.88990 0.10300
H 	H 	0.82370 0.16400 0.51920 0.08200
H 	H 	0.11730 0.04680 0.33100 0.07200
H 	H 	0.23950 0.95290 0.25270 0.01200
H 	H 	0.11500 0.72170 0.23070 0.01800
H 	H 	0.98930 0.80850 0.30730 0.06700
H 	H 	0.44090 0.30660 0.49980 0.05800
H 	H 	0.30800 0.44200 0.23700 0.07600
H 	H 	0.28040 0.53590 0.13870 0.00100
H 	H 	0.35060 0.76220 0.34540 0.01000
H 	H 	0.38040 0.67450 0.44950 0.07400
H 	H 	0.67700 0.03350 0.03630 0.07000
H 	H 	0.45290 0.77340 0.89480 0.08200
H 	H 	0.35160 0.66730 0.79870 0.01100
H 	H 	0.35690 0.78210 0.59470 0.01400
H 	H 	0.46120 0.88990 0.68430 0.10400
H 	H 	0.67630 0.51920 0.16400 0.08200
H 	H 	0.38270 0.33100 0.04680 0.07200
H 	H 	0.26050 0.25270 0.95290 0.01200
H 	H 	0.38500 0.23070 0.72170 0.01800
H 	H 	0.51070 0.30730 0.80850 0.06700
H 	H 	0.05910 0.49980 0.30660 0.05800
H 	H 	0.19200 0.23700 0.44200 0.07600
H 	H 	0.21960 0.13870 0.53590 0.00100
H 	H 	0.14940 0.34540 0.76220 0.00900
H 	H 	0.11960 0.44950 0.67450 0.07400
H 	H 	0.17700 0.96370 0.96650 0.07100
H 	H 	0.95290 0.10520 0.22660 0.08100
H 	H 	0.85160 0.20130 0.33270 0.01100
H 	H 	0.85690 0.40530 0.21790 0.01500
H 	H 	0.96120 0.31570 0.11010 0.10300
H 	H 	0.17630 0.83600 0.48080 0.08200
H 	H 	0.88270 0.95320 0.66900 0.07200
H 	H 	0.76050 0.04710 0.74730 0.01200
H 	H 	0.88500 0.27830 0.76930 0.01800
H 	H 	0.01070 0.19150 0.69270 0.06700
H 	H 	0.55910 0.69340 0.50020 0.05800
H 	H 	0.69200 0.55800 0.76300 0.07600
H 	H 	0.71960 0.46410 0.86130 0.00100
H 	H 	0.64940 0.23780 0.65460 0.01000
H 	H 	0.61960 0.32550 0.55050 0.07400
H 	H 	0.32300 0.96650 0.96370 0.07000
H 	H 	0.54710 0.22660 0.10520 0.08200
H 	H 	0.64840 0.33270 0.20130 0.01100
H 	H 	0.64310 0.21790 0.40530 0.01400
H 	H 	0.53880 0.11010 0.31570 0.10400
H 	H 	0.32370 0.48080 0.83600 0.08200
H 	H 	0.61730 0.66900 0.95320 0.07200
H 	H 	0.73950 0.74730 0.04710 0.01200
H 	H 	0.61500 0.76930 0.27830 0.01800
H 	H 	0.48930 0.69270 0.19150 0.06700
H 	H 	0.94090 0.50020 0.69340 0.05800
H 	H 	0.80800 0.76300 0.55800 0.07600
H 	H 	0.78040 0.86130 0.46410 0.00100
H 	H 	0.85060 0.65460 0.23780 0.00900
H 	H 	0.88040 0.55050 0.32550 0.07400
C 	C 	0.84471 0.89596 0.12296 0.27200
C 	C 	0.88260 0.90696 0.03724 0.00600
C 	C 	0.86214 0.98243 0.00421 -0.05500
C 	C 	0.96585 0.85881 0.91207 0.02600
C 	C 	0.03055 0.80013 0.84343 0.07700
C 	C 	0.06511 0.83287 0.77605 -0.12900
C 	C 	0.12571 0.77502 0.71296 0.07400
C 	C 	0.12226 0.65613 0.77955 0.07700
C 	C 	0.06045 0.70942 0.84484 -0.12900
C 	C 	0.71111 0.02034 0.40914 0.29400
C 	C 	0.81329 0.03560 0.41734 -0.03600
C 	C 	0.85462 0.11256 0.47476 -0.03900
C 	C 	0.95747 0.99480 0.37186 0.03400
C 	C 	0.03717 0.93788 0.32432 0.05000
C 	C 	0.11456 0.98008 0.30928 -0.11500
C 	C 	0.18713 0.92342 0.26236 0.07500
C 	C 	0.11438 0.78874 0.24950 0.07300
C 	C 	0.03927 0.83996 0.29546 -0.10000
C 	C 	0.36001 0.45325 0.64583 0.30100
C 	C 	0.37934 0.44100 0.54524 -0.04100
C 	C 	0.41795 0.36184 0.48420 -0.03800
C 	C 	0.36778 0.48885 0.41765 0.03600
C 	C 	0.34793 0.54828 0.35458 0.05600
C 	C 	0.31746 0.50766 0.26070 -0.12000
C 	C 	0.30126 0.56424 0.20266 0.07500
C 	C 	0.34219 0.69617 0.32311 0.07500
C 	C 	0.36000 0.64445 0.38563 -0.11000
C 	C 	0.65529 0.12296 0.89596 0.27200
C 	C 	0.61740 0.03724 0.90696 0.00700
C 	C 	0.63786 0.00421 0.98243 -0.05300
C 	C 	0.53415 0.91207 0.85881 0.02500
C 	C 	0.46945 0.84343 0.80013 0.07900
C 	C 	0.43489 0.77605 0.83287 -0.13000
C 	C 	0.37429 0.71296 0.77502 0.07400
C 	C 	0.37774 0.77955 0.65613 0.07800
C 	C 	0.43955 0.84484 0.70942 -0.13000
C 	C 	0.78889 0.40914 0.02034 0.29300
C 	C 	0.68671 0.41734 0.03560 -0.03600
C 	C 	0.64538 0.47476 0.11256 -0.03900
C 	C 	0.54253 0.37186 0.99480 0.03400
C 	C 	0.46283 0.32432 0.93788 0.05100
C 	C 	0.38544 0.30928 0.98008 -0.11600
C 	C 	0.31287 0.26236 0.92342 0.07500
C 	C 	0.38562 0.24950 0.78874 0.07400
C 	C 	0.46073 0.29546 0.83996 -0.10200
C 	C 	0.13999 0.64583 0.45325 0.30100
C 	C 	0.12066 0.54524 0.44100 -0.04100
C 	C 	0.08205 0.48420 0.36184 -0.03800
C 	C 	0.13222 0.41765 0.48885 0.03600
C 	C 	0.15207 0.35458 0.54828 0.05600
C 	C 	0.18254 0.26070 0.50766 -0.12000
C 	C 	0.19874 0.20266 0.56424 0.07500
C 	C 	0.15781 0.32311 0.69617 0.07500
C 	C 	0.14000 0.38563 0.64445 -0.11000
C 	C 	0.15529 0.10404 0.87704 0.27200
C 	C 	0.11740 0.09304 0.96276 0.00600
C 	C 	0.13786 0.01757 0.99579 -0.05500
C 	C 	0.03415 0.14119 0.08793 0.02600
C 	C 	0.96945 0.19987 0.15657 0.07700
C 	C 	0.93489 0.16713 0.22395 -0.12900
C 	C 	0.87429 0.22498 0.28704 0.07400
C 	C 	0.87774 0.34387 0.22045 0.07700
C 	C 	0.93955 0.29058 0.15516 -0.12900
C 	C 	0.28889 0.97966 0.59086 0.29400
C 	C 	0.18671 0.96440 0.58266 -0.03600
C 	C 	0.14538 0.88744 0.52524 -0.03900
C 	C 	0.04253 0.00520 0.62814 0.03400
C 	C 	0.96283 0.06212 0.67568 0.05000
C 	C 	0.88544 0.01992 0.69072 -0.11500
C 	C 	0.81287 0.07658 0.73764 0.07500
C 	C 	0.88562 0.21126 0.75050 0.07300
C 	C 	0.96073 0.16004 0.70454 -0.10000
C 	C 	0.63999 0.54675 0.35417 0.30100
C 	C 	0.62066 0.55900 0.45476 -0.04100
C 	C 	0.58205 0.63816 0.51580 -0.03800
C 	C 	0.63222 0.51115 0.58235 0.03600
C 	C 	0.65207 0.45172 0.64542 0.05600
C 	C 	0.68254 0.49234 0.73930 -0.12000
C 	C 	0.69874 0.43576 0.79734 0.07500
C 	C 	0.65781 0.30383 0.67689 0.07500
C 	C 	0.64000 0.35555 0.61437 -0.11000
C 	C 	0.34471 0.87704 0.10404 0.27200
C 	C 	0.38260 0.96276 0.09304 0.00700
C 	C 	0.36214 0.99579 0.01757 -0.05300
C 	C 	0.46585 0.08793 0.14119 0.02500
C 	C 	0.53055 0.15657 0.19987 0.07900
C 	C 	0.56511 0.22395 0.16713 -0.13000
C 	C 	0.62571 0.28704 0.22498 0.07400
C 	C 	0.62226 0.22045 0.34387 0.07800
C 	C 	0.56045 0.15516 0.29058 -0.13000
C 	C 	0.21111 0.59086 0.97966 0.29300
C 	C 	0.31329 0.58266 0.96440 -0.03600
C 	C 	0.35462 0.52524 0.88744 -0.03900
C 	C 	0.45747 0.62814 0.00520 0.03400
C 	C 	0.53717 0.67568 0.06212 0.05100
C 	C 	0.61456 0.69072 0.01992 -0.11600
C 	C 	0.68713 0.73764 0.07658 0.07500
C 	C 	0.61438 0.75050 0.21126 0.07400
C 	C 	0.53927 0.70454 0.16004 -0.10200
C 	C 	0.86001 0.35417 0.54675 0.30100
C 	C 	0.87934 0.45476 0.55900 -0.04100
C 	C 	0.91795 0.51580 0.63816 -0.03800
C 	C 	0.86778 0.58235 0.51115 0.03600
C 	C 	0.84793 0.64542 0.45172 0.05600
C 	C 	0.81746 0.73930 0.49234 -0.12000
C 	C 	0.80126 0.79734 0.43576 0.07500
C 	C 	0.84219 0.67689 0.30383 0.07500
C 	C 	0.86000 0.61437 0.35555 -0.11000
S 	S 	0.91624 0.96668 0.90346 0.01400
S 	S 	0.97024 0.10409 0.45591 0.01000
S 	S 	0.41918 0.37607 0.37525 -0.00500
S 	S 	0.58376 0.90346 0.96668 0.01200
S 	S 	0.52976 0.45591 0.10409 0.01000
S 	S 	0.08082 0.37525 0.37607 -0.00400
S 	S 	0.08376 0.03332 0.09654 0.01400
S 	S 	0.02976 0.89591 0.54409 0.01000
S 	S 	0.58082 0.62393 0.62475 -0.00500
S 	S 	0.41624 0.09654 0.03332 0.01200
S 	S 	0.47024 0.54409 0.89591 0.01000
S 	S 	0.91918 0.62475 0.62393 -0.00400
N 	N 	0.94226 0.83703 0.98483 -0.09500
N 	N 	0.15414 0.68680 0.71290 -0.22800
N 	N 	0.87157 0.96821 0.35881 -0.19800
N 	N 	0.18716 0.82879 0.22985 -0.22700
N 	N 	0.35069 0.51318 0.50754 -0.19200
N 	N 	0.31340 0.65750 0.23198 -0.23800
N 	N 	0.55774 0.98483 0.83703 -0.09500
N 	N 	0.34586 0.71290 0.68680 -0.22800
N 	N 	0.62843 0.35881 0.96821 -0.19800
N 	N 	0.31284 0.22985 0.82879 -0.22700
N 	N 	0.14931 0.50754 0.51318 -0.19200
N 	N 	0.18660 0.23198 0.65750 -0.23800
N 	N 	0.05774 0.16297 0.01517 -0.09500
N 	N 	0.84586 0.31320 0.28710 -0.22800
N 	N 	0.12843 0.03179 0.64119 -0.19800
N 	N 	0.81284 0.17121 0.77015 -0.22700
N 	N 	0.64931 0.48682 0.49246 -0.19200
N 	N 	0.68660 0.34250 0.76802 -0.23800
N 	N 	0.44226 0.01517 0.16297 -0.09500
N 	N 	0.65414 0.28710 0.31320 -0.22800
N 	N 	0.37157 0.64119 0.03179 -0.19800
N 	N 	0.68716 0.77015 0.17121 -0.22700
N 	N 	0.85069 0.49246 0.48682 -0.19200
N 	N 	0.81340 0.76802 0.34250 -0.23800
O 	O 	0.87717 0.82779 0.15257 -0.37200
O 	O 	0.78092 0.95231 0.16273 -0.34800
O 	O 	0.68592 0.94540 0.34448 -0.38700
O 	O 	0.66030 0.07948 0.46248 -0.24000
O 	O 	0.30187 0.52219 0.68259 -0.41200
O 	O 	0.39880 0.39784 0.68526 -0.24900
O 	O 	0.62283 0.15257 0.82779 -0.37200
O 	O 	0.71908 0.16273 0.95231 -0.34700
O 	O 	0.81408 0.34448 0.94540 -0.38600
O 	O 	0.83970 0.46248 0.07948 -0.24000
O 	O 	0.19813 0.68259 0.52219 -0.41200
O 	O 	0.10120 0.68526 0.39784 -0.24900
O 	O 	0.12283 0.17221 0.84743 -0.37200
O 	O 	0.21908 0.04769 0.83727 -0.34800
O 	O 	0.31408 0.05460 0.65552 -0.38700
O 	O 	0.33970 0.92052 0.53752 -0.24000
O 	O 	0.69813 0.47781 0.31741 -0.41200
O 	O 	0.60120 0.60216 0.31474 -0.24900
O 	O 	0.37717 0.84743 0.17221 -0.37200
O 	O 	0.28092 0.83727 0.04769 -0.34700
O 	O 	0.18592 0.65552 0.05460 -0.38600
O 	O 	0.16030 0.53752 0.92052 -0.24000
O 	O 	0.80187 0.31741 0.47781 -0.41200
O 	O 	0.89880 0.31474 0.60216 -0.24900
