data_crystal

_cell_length_a 14.37410
_cell_length_b 13.90690
_cell_length_c 21.71870
_cell_angle_alpha 90.00000
_cell_angle_beta  106.94500
_cell_angle_gamma 90.00000

_symmetry_space_group_name_	'P 1'
_symmetry_space_group_name_H-M	'P 1'

loop_
_symmetry_equiv_pos_as_xyz
  x,y,z

loop_
_atom_site_label
_atom_site_type_symbol
_atom_site_fract_x
_atom_site_fract_y
_atom_site_fract_z
_atom_site_charge
Ba	Ba	0.97241 0.42862 0.18086 1.90700
Mo	Mo	0.67145 0.28872 0.99207 1.10500
Mo	Mo	0.65815 0.40452 0.89647 1.08200
Mo	Mo	0.34690 0.34293 0.08343 1.07800
Mo	Mo	0.33061 0.27336 0.97030 1.10500
Mo	Mo	0.68640 0.56992 0.16104 1.08400
Mo	Mo	0.69305 0.38497 0.14557 1.07300
P 	P 	0.81129 0.55198 0.85407 0.52800
P 	P 	0.18767 0.22452 0.82495 0.56800
P 	P 	0.85113 0.21786 0.12144 0.54900
P 	P 	0.78159 0.50785 0.03974 0.47800
O 	O 	0.76300 0.32320 0.94615 -0.47600
O 	O 	0.57870 0.39090 0.95495 -0.68700
O 	O 	0.61640 0.29130 0.07201 -0.63300
H 	H 	0.55980 0.31560 0.05840 0.17600
O 	O 	0.78260 0.21190 0.05210 -0.42800
O 	O 	0.74260 0.41110 0.05829 -0.48500
O 	O 	0.75810 0.45640 0.85312 -0.39800
O 	O 	0.58250 0.53510 0.86736 -0.62100
H 	H 	0.53060 0.52990 0.87830 0.18300
O 	O 	0.73480 0.52130 0.96585 -0.38600
O 	O 	0.74670 0.63630 0.86082 -0.39400
O 	O 	0.42460 0.36290 0.02450 -0.71600
O 	O 	0.24070 0.27870 0.02136 -0.51100
O 	O 	0.39160 0.31640 0.89596 -0.60300
H 	H 	0.44720 0.33840 0.91640 0.18100
O 	O 	0.21350 0.21900 0.89830 -0.38700
O 	O 	0.74000 0.58870 0.07348 -0.46000
O 	O 	0.20690 0.32880 0.80496 -0.42400
O 	O 	0.79260 0.47860 0.18640 -0.67100
O 	O 	0.59570 0.48050 0.10486 -0.70400
O 	O 	0.80990 0.28990 0.16093 -0.50900
O 	O 	0.83050 0.55880 0.78751 -0.44700
O 	O 	0.90930 0.55440 0.90414 -0.32400
O 	O 	0.08290 0.20160 0.79300 -0.39600
H 	H 	0.22170 0.12200 0.77220 0.29400
O 	O 	0.25480 0.15510 0.80390 -0.50600
O 	O 	0.95150 0.25380 0.12170 -0.42200
O 	O 	0.85760 0.11990 0.15270 -0.47000
H 	H 	0.91640 0.10110 0.16350 0.18700
O 	O 	0.88920 0.50760 0.05967 -0.37100
Ba	Ba	0.02759 0.92862 0.31914 1.95900
Mo	Mo	0.32855 0.78872 0.50793 1.08700
Mo	Mo	0.34185 0.90452 0.60353 1.09700
Mo	Mo	0.65310 0.84293 0.41657 1.08300
Mo	Mo	0.66939 0.77336 0.52970 1.08600
Mo	Mo	0.31360 0.06992 0.33896 1.06400
Mo	Mo	0.30695 0.88497 0.35443 1.07600
P 	P 	0.18871 0.05198 0.64593 0.50100
P 	P 	0.81233 0.72452 0.67505 0.56900
P 	P 	0.14887 0.71786 0.37856 0.54900
P 	P 	0.21841 0.00785 0.46026 0.48200
O 	O 	0.23700 0.82320 0.55385 -0.48200
O 	O 	0.42130 0.89090 0.54505 -0.68600
O 	O 	0.38360 0.79130 0.42799 -0.61800
H 	H 	0.44020 0.81560 0.44160 0.18200
O 	O 	0.21740 0.71190 0.44790 -0.40100
O 	O 	0.25740 0.91110 0.44171 -0.45300
O 	O 	0.24190 0.95640 0.64688 -0.36300
O 	O 	0.41750 0.03510 0.63264 -0.63800
H 	H 	0.46940 0.02990 0.62170 0.17800
O 	O 	0.26520 0.02130 0.53415 -0.42700
O 	O 	0.25330 0.13630 0.63918 -0.39800
O 	O 	0.57540 0.86290 0.47550 -0.68600
O 	O 	0.75930 0.77870 0.47864 -0.48200
O 	O 	0.60840 0.81640 0.60404 -0.60100
H 	H 	0.55280 0.83840 0.58360 0.18100
O 	O 	0.78650 0.71900 0.60170 -0.39000
O 	O 	0.26000 0.08870 0.42652 -0.46100
O 	O 	0.79310 0.82880 0.69504 -0.41100
O 	O 	0.20740 0.97860 0.31360 -0.65500
O 	O 	0.40430 0.98050 0.39514 -0.67500
O 	O 	0.19010 0.78990 0.33907 -0.50800
O 	O 	0.16950 0.05880 0.71249 -0.45000
O 	O 	0.09070 0.05440 0.59586 -0.34000
O 	O 	0.91710 0.70160 0.70700 -0.39400
H 	H 	0.77830 0.62200 0.72780 0.29600
O 	O 	0.74520 0.65510 0.69610 -0.50100
O 	O 	0.04850 0.75380 0.37830 -0.41500
O 	O 	0.14240 0.61990 0.34730 -0.45700
H 	H 	0.08360 0.60110 0.33650 0.19800
O 	O 	0.11080 0.00760 0.44033 -0.38400
Ba	Ba	0.02759 0.57138 0.81914 1.92000
Mo	Mo	0.32855 0.71128 0.00793 1.06700
Mo	Mo	0.34185 0.59548 0.10353 1.08400
Mo	Mo	0.65310 0.65707 0.91657 1.08700
Mo	Mo	0.66939 0.72664 0.02970 1.06700
Mo	Mo	0.31360 0.43008 0.83896 1.08400
Mo	Mo	0.30695 0.61503 0.85443 1.07600
P 	P 	0.18871 0.44802 0.14593 0.52900
P 	P 	0.81233 0.77548 0.17505 0.57000
P 	P 	0.14887 0.78214 0.87856 0.54900
P 	P 	0.21841 0.49215 0.96026 0.54000
O 	O 	0.23700 0.67680 0.05385 -0.50200
O 	O 	0.42130 0.60910 0.04505 -0.71500
O 	O 	0.38360 0.70870 0.92799 -0.60100
H 	H 	0.44020 0.68440 0.94160 0.18700
O 	O 	0.21740 0.78810 0.94790 -0.37500
O 	O 	0.25740 0.58890 0.94171 -0.46400
O 	O 	0.24190 0.54360 0.14688 -0.40100
O 	O 	0.41750 0.46490 0.13264 -0.62200
H 	H 	0.46940 0.47010 0.12170 0.18100
O 	O 	0.26520 0.47870 0.03415 -0.43800
O 	O 	0.25330 0.36370 0.13918 -0.40400
O 	O 	0.57540 0.63710 0.97550 -0.66600
O 	O 	0.75930 0.72130 0.97864 -0.45000
O 	O 	0.60840 0.68360 0.10404 -0.60500
H 	H 	0.55280 0.66160 0.08360 0.17100
O 	O 	0.78650 0.78100 0.10170 -0.39600
O 	O 	0.26000 0.41130 0.92652 -0.44800
O 	O 	0.79310 0.67120 0.19504 -0.42500
O 	O 	0.20740 0.52140 0.81360 -0.67200
O 	O 	0.40430 0.51950 0.89514 -0.69200
O 	O 	0.19010 0.71010 0.83907 -0.50300
O 	O 	0.16950 0.44120 0.21249 -0.44900
O 	O 	0.09070 0.44560 0.09586 -0.34400
O 	O 	0.91710 0.79840 0.20700 -0.39900
H 	H 	0.77830 0.87800 0.22780 0.29800
O 	O 	0.74520 0.84490 0.19610 -0.50000
O 	O 	0.04850 0.74620 0.87830 -0.40300
O 	O 	0.14240 0.88010 0.84730 -0.44300
H 	H 	0.08360 0.89890 0.83650 0.20800
O 	O 	0.11080 0.49240 0.94033 -0.35600
Ba	Ba	0.97241 0.07138 0.68086 1.84500
Mo	Mo	0.67145 0.21128 0.49207 1.08600
Mo	Mo	0.65815 0.09548 0.39647 1.07000
Mo	Mo	0.34690 0.15707 0.58343 1.08200
Mo	Mo	0.33061 0.22664 0.47030 1.08600
Mo	Mo	0.68640 0.93008 0.66104 1.10800
Mo	Mo	0.69305 0.11503 0.64557 1.07200
P 	P 	0.81129 0.94802 0.35407 0.55900
P 	P 	0.18767 0.27548 0.32495 0.56900
P 	P 	0.85113 0.28214 0.62144 0.54900
P 	P 	0.78159 0.99215 0.53974 0.54200
O 	O 	0.76300 0.17680 0.44615 -0.49700
O 	O 	0.57870 0.10910 0.45495 -0.71600
O 	O 	0.61640 0.20870 0.57201 -0.61700
H 	H 	0.55980 0.18440 0.55840 0.18100
O 	O 	0.78260 0.28810 0.55210 -0.40200
O 	O 	0.74260 0.08890 0.55829 -0.50100
O 	O 	0.75810 0.04360 0.35312 -0.44100
O 	O 	0.58250 0.96490 0.36736 -0.60400
H 	H 	0.53060 0.97010 0.37830 0.18500
O 	O 	0.73480 0.97870 0.46585 -0.39700
O 	O 	0.74670 0.86370 0.36082 -0.40000
O 	O 	0.42460 0.13710 0.52450 -0.69700
O 	O 	0.24070 0.22130 0.52136 -0.48200
O 	O 	0.39160 0.18360 0.39596 -0.60700
H 	H 	0.44720 0.16160 0.41640 0.17200
O 	O 	0.21350 0.28100 0.39830 -0.39300
O 	O 	0.74000 0.91130 0.57348 -0.44600
O 	O 	0.20690 0.17120 0.30496 -0.43500
O 	O 	0.79260 0.02140 0.68640 -0.69200
O 	O 	0.59570 0.01950 0.60486 -0.72200
O 	O 	0.80990 0.21010 0.66093 -0.50300
O 	O 	0.83050 0.94120 0.28751 -0.44300
O 	O 	0.90930 0.94560 0.40414 -0.32500
O 	O 	0.08290 0.29840 0.29300 -0.40300
H 	H 	0.22170 0.37800 0.27220 0.29600
O 	O 	0.25480 0.34490 0.30390 -0.50500
O 	O 	0.95150 0.24620 0.62170 -0.40900
O 	O 	0.85760 0.38010 0.65270 -0.45600
H 	H 	0.91640 0.39890 0.66350 0.19800
O 	O 	0.88920 0.99240 0.55967 -0.33700
Ca	Ca	0.50000 0.50000 -0.00000 1.51200
Ca	Ca	0.50000 -0.00000 0.50000 1.51200
