data_crystal

_cell_length_a 16.86000
_cell_length_b 24.51300
_cell_length_c 11.92000
_cell_angle_alpha 90.00000
_cell_angle_beta  109.39200
_cell_angle_gamma 90.00000

_symmetry_space_group_name_	'P 1'
_symmetry_space_group_name_H-M	'P 1'

loop_
_symmetry_equiv_pos_as_xyz
  x,y,z

loop_
_atom_site_label
_atom_site_type_symbol
_atom_site_fract_x
_atom_site_fract_y
_atom_site_fract_z
_atom_site_charge
C 	C 	0.17830 0.17431 0.79350 0.38600
C 	C 	0.24910 0.19500 0.89750 -0.21200
C 	C 	0.23360 0.22381 0.98690 0.10900
H 	H 	0.17850 0.23010 0.98380 -0.03600
C 	C 	0.30030 0.24369 0.08240 -0.22000
H 	H 	0.28940 0.26390 0.14170 0.10200
C 	C 	0.38260 0.23359 0.08930 0.13700
C 	C 	0.39690 0.20393 0.99930 -0.20600
H 	H 	0.45180 0.19590 0.00380 0.09200
C 	C 	0.33100 0.18607 0.90300 0.11400
H 	H 	0.34190 0.16780 0.84120 -0.01500
C 	C 	0.45210 0.25459 0.19130 -0.11100
H 	H 	0.43700 0.27460 0.24730 0.06100
C 	C 	0.53320 0.24821 0.21220 -0.08600
H 	H 	0.54880 0.22720 0.15800 0.05200
C 	C 	0.60190 0.27113 0.31310 0.10800
C 	C 	0.68530 0.25877 0.32690 -0.18900
H 	H 	0.69730 0.23560 0.27280 0.08600
C 	C 	0.75030 0.28054 0.41990 0.07600
H 	H 	0.80560 0.27250 0.42700 -0.01700
C 	C 	0.58680 0.30557 0.39560 -0.17800
H 	H 	0.53170 0.31540 0.38670 0.07900
C 	C 	0.80360 0.33827 0.60340 0.34900
C 	C 	0.73380 0.31414 0.50240 -0.17300
C 	C 	0.65140 0.32551 0.49070 0.08100
H 	H 	0.63940 0.34680 0.54760 -0.00400
C 	C 	0.05030 0.99430 0.81150 0.08300
H 	H 	0.03950 0.97920 0.87660 -0.11500
C 	C 	0.08020 0.00303 0.65610 0.06200
H 	H 	0.09470 0.99510 0.58910 -0.10600
C 	C 	0.95250 0.25738 0.33150 0.10600
H 	H 	0.92640 0.26450 0.25100 -0.08500
C 	C 	0.01290 0.26758 0.51400 0.11900
H 	H 	0.03780 0.28350 0.58830 -0.08200
Cd	Cd	0.05252 0.13687 0.60016 1.11300
Cd	Cd	0.00662 0.12004 0.86633 1.11600
Cd	Cd	0.93377 0.12551 0.29091 1.12900
N 	N 	0.06555 0.05234 0.68570 -0.27800
N 	N 	0.04555 0.04700 0.78800 -0.29600
N 	N 	0.07203 0.96493 0.73250 -0.31400
N 	N 	0.96496 0.20822 0.37610 -0.28200
N 	N 	0.00525 0.21495 0.49710 -0.28100
N 	N 	0.98098 0.29650 0.41310 -0.30600
O 	O 	0.78988 0.35169 0.69550 -0.44300
O 	O 	0.87495 0.34399 0.59230 -0.47100
O 	O 	0.10550 0.17158 0.80070 -0.57900
O 	O 	0.19279 0.16085 0.70090 -0.46400
C 	C 	0.82170 0.67431 0.70650 0.38500
C 	C 	0.75090 0.69500 0.60250 -0.21300
C 	C 	0.76640 0.72381 0.51310 0.10700
H 	H 	0.82150 0.73010 0.51620 -0.03700
C 	C 	0.69970 0.74369 0.41760 -0.22000
H 	H 	0.71060 0.76390 0.35830 0.10100
C 	C 	0.61740 0.73359 0.41070 0.13700
C 	C 	0.60310 0.70393 0.50070 -0.20800
H 	H 	0.54820 0.69590 0.49620 0.09100
C 	C 	0.66900 0.68607 0.59700 0.11300
H 	H 	0.65810 0.66780 0.65880 -0.01500
C 	C 	0.54790 0.75459 0.30870 -0.11200
H 	H 	0.56300 0.77460 0.25270 0.06100
C 	C 	0.46680 0.74821 0.28780 -0.08400
H 	H 	0.45120 0.72720 0.34200 0.05100
C 	C 	0.39810 0.77113 0.18690 0.10400
C 	C 	0.31470 0.75877 0.17310 -0.18500
H 	H 	0.30270 0.73560 0.22720 0.08400
C 	C 	0.24970 0.78054 0.08010 0.07000
H 	H 	0.19440 0.77250 0.07300 -0.01500
C 	C 	0.41320 0.80557 0.10440 -0.17300
H 	H 	0.46830 0.81540 0.11330 0.07700
C 	C 	0.19640 0.83827 0.89660 0.34700
C 	C 	0.26620 0.81414 0.99760 -0.16800
C 	C 	0.34860 0.82551 0.00930 0.07400
H 	H 	0.36060 0.84680 0.95240 -0.00100
C 	C 	0.94970 0.49430 0.68850 0.08000
H 	H 	0.96050 0.47920 0.62340 -0.11400
C 	C 	0.91980 0.50303 0.84390 0.07000
H 	H 	0.90530 0.49510 0.91090 -0.11000
C 	C 	0.04750 0.75738 0.16850 0.10600
H 	H 	0.07360 0.76450 0.24900 -0.08600
C 	C 	0.98710 0.76758 0.98600 0.11500
H 	H 	0.96220 0.78350 0.91170 -0.08200
Cd	Cd	0.94748 0.63687 0.89984 1.11200
Cd	Cd	0.99338 0.62004 0.63367 1.11600
Cd	Cd	0.06623 0.62551 0.20909 1.12900
N 	N 	0.93445 0.55234 0.81430 -0.27900
N 	N 	0.95445 0.54700 0.71200 -0.29400
N 	N 	0.92797 0.46493 0.76750 -0.31600
N 	N 	0.03504 0.70822 0.12390 -0.28300
N 	N 	0.99475 0.71495 0.00290 -0.27900
N 	N 	0.01902 0.79650 0.08690 -0.30600
O 	O 	0.21012 0.85169 0.80450 -0.44300
O 	O 	0.12505 0.84399 0.90770 -0.47000
O 	O 	0.89450 0.67158 0.69930 -0.57900
O 	O 	0.80721 0.66085 0.79910 -0.46400
C 	C 	0.82170 0.82569 0.20650 0.38500
C 	C 	0.75090 0.80500 0.10250 -0.21300
C 	C 	0.76640 0.77619 0.01310 0.10800
H 	H 	0.82150 0.76990 0.01620 -0.03700
C 	C 	0.69970 0.75631 0.91760 -0.22100
H 	H 	0.71060 0.73610 0.85830 0.10100
C 	C 	0.61740 0.76641 0.91070 0.13600
C 	C 	0.60310 0.79607 0.00070 -0.20700
H 	H 	0.54820 0.80410 0.99620 0.09100
C 	C 	0.66900 0.81393 0.09700 0.11300
H 	H 	0.65810 0.83220 0.15880 -0.01500
C 	C 	0.54790 0.74541 0.80870 -0.11100
H 	H 	0.56300 0.72540 0.75270 0.06100
C 	C 	0.46680 0.75179 0.78780 -0.08600
H 	H 	0.45120 0.77280 0.84200 0.05200
C 	C 	0.39810 0.72887 0.68690 0.10800
C 	C 	0.31470 0.74123 0.67310 -0.18900
H 	H 	0.30270 0.76440 0.72720 0.08600
C 	C 	0.24970 0.71946 0.58010 0.07600
H 	H 	0.19440 0.72750 0.57300 -0.01700
C 	C 	0.41320 0.69443 0.60440 -0.17800
H 	H 	0.46830 0.68460 0.61330 0.07900
C 	C 	0.19640 0.66173 0.39660 0.34900
C 	C 	0.26620 0.68586 0.49760 -0.17300
C 	C 	0.34860 0.67449 0.50930 0.08100
H 	H 	0.36060 0.65320 0.45240 -0.00400
C 	C 	0.94970 0.00570 0.18850 0.08300
H 	H 	0.96050 0.02080 0.12340 -0.11500
C 	C 	0.91980 0.99697 0.34390 0.06200
H 	H 	0.90530 0.00490 0.41090 -0.10600
C 	C 	0.04750 0.74262 0.66850 0.10600
H 	H 	0.07360 0.73550 0.74900 -0.08500
C 	C 	0.98710 0.73242 0.48600 0.11900
H 	H 	0.96220 0.71650 0.41170 -0.08200
Cd	Cd	0.94748 0.86313 0.39984 1.11300
Cd	Cd	0.99338 0.87996 0.13367 1.11600
Cd	Cd	0.06623 0.87449 0.70909 1.12900
N 	N 	0.93445 0.94766 0.31430 -0.27800
N 	N 	0.95445 0.95300 0.21200 -0.29600
N 	N 	0.92797 0.03507 0.26750 -0.31400
N 	N 	0.03504 0.79178 0.62390 -0.28200
N 	N 	0.99475 0.78505 0.50290 -0.28100
N 	N 	0.01902 0.70350 0.58690 -0.30600
O 	O 	0.21012 0.64831 0.30450 -0.44300
O 	O 	0.12505 0.65601 0.40770 -0.47100
O 	O 	0.89450 0.82842 0.19930 -0.57900
O 	O 	0.80721 0.83915 0.29910 -0.46400
C 	C 	0.17830 0.32569 0.29350 0.38500
C 	C 	0.24910 0.30500 0.39750 -0.21300
C 	C 	0.23360 0.27619 0.48690 0.10700
H 	H 	0.17850 0.26990 0.48380 -0.03700
C 	C 	0.30030 0.25631 0.58240 -0.22000
H 	H 	0.28940 0.23610 0.64170 0.10100
C 	C 	0.38260 0.26641 0.58930 0.13700
C 	C 	0.39690 0.29607 0.49930 -0.20800
H 	H 	0.45180 0.30410 0.50380 0.09100
C 	C 	0.33100 0.31393 0.40300 0.11300
H 	H 	0.34190 0.33220 0.34120 -0.01500
C 	C 	0.45210 0.24541 0.69130 -0.11200
H 	H 	0.43700 0.22540 0.74730 0.06100
C 	C 	0.53320 0.25179 0.71220 -0.08400
H 	H 	0.54880 0.27280 0.65800 0.05100
C 	C 	0.60190 0.22887 0.81310 0.10400
C 	C 	0.68530 0.24123 0.82690 -0.18500
H 	H 	0.69730 0.26440 0.77280 0.08400
C 	C 	0.75030 0.21946 0.91990 0.07000
H 	H 	0.80560 0.22750 0.92700 -0.01500
C 	C 	0.58680 0.19443 0.89560 -0.17300
H 	H 	0.53170 0.18460 0.88670 0.07700
C 	C 	0.80360 0.16173 0.10340 0.34700
C 	C 	0.73380 0.18586 0.00240 -0.16800
C 	C 	0.65140 0.17449 0.99070 0.07400
H 	H 	0.63940 0.15320 0.04760 -0.00100
C 	C 	0.05030 0.50570 0.31150 0.08000
H 	H 	0.03950 0.52080 0.37660 -0.11400
C 	C 	0.08020 0.49697 0.15610 0.07000
H 	H 	0.09470 0.50490 0.08910 -0.11000
C 	C 	0.95250 0.24262 0.83150 0.10600
H 	H 	0.92640 0.23550 0.75100 -0.08600
C 	C 	0.01290 0.23242 0.01400 0.11500
H 	H 	0.03780 0.21650 0.08830 -0.08200
Cd	Cd	0.05252 0.36313 0.10016 1.11200
Cd	Cd	0.00662 0.37996 0.36633 1.11600
Cd	Cd	0.93377 0.37449 0.79091 1.12900
N 	N 	0.06555 0.44766 0.18570 -0.27900
N 	N 	0.04555 0.45300 0.28800 -0.29400
N 	N 	0.07203 0.53507 0.23250 -0.31600
N 	N 	0.96496 0.29178 0.87610 -0.28300
N 	N 	0.00525 0.28505 0.99710 -0.27900
N 	N 	0.98098 0.20350 0.91310 -0.30600
O 	O 	0.78988 0.14831 0.19550 -0.44300
O 	O 	0.87495 0.15601 0.09230 -0.47000
O 	O 	0.10550 0.32842 0.30070 -0.57900
O 	O 	0.19279 0.33915 0.20090 -0.46400
