data_crystal

_cell_length_a 11.92860
_cell_length_b 11.92860
_cell_length_c 10.46900
_cell_angle_alpha 90.00000
_cell_angle_beta  90.00000
_cell_angle_gamma 120.00000

_symmetry_space_group_name_	'P 1'
_symmetry_space_group_name_H-M	'P 1'

loop_
_symmetry_equiv_pos_as_xyz
  x,y,z

loop_
_atom_site_label
_atom_site_type_symbol
_atom_site_fract_x
_atom_site_fract_y
_atom_site_fract_z
_atom_site_charge
N 	N 	0.10644 0.51732 0.22491 -0.22400
N 	N 	0.15051 0.53182 0.34931 -0.23500
C 	C 	0.26030 0.53010 0.34510 0.18200
N 	N 	0.29002 0.51490 0.22215 -0.25800
C 	C 	0.19200 0.50870 0.15190 0.08400
H 	H 	0.18570 0.49950 0.06360 -0.04600
N 	N 	0.32790 0.53200 0.44990 -0.32300
H 	H 	0.29980 0.53440 0.52490 0.12100
H 	H 	0.39900 0.53070 0.44140 0.13500
O 	O 	0.40170 0.36773 0.29860 -0.50900
H 	H 	0.45390 0.34220 0.29380 0.22400
Cu	Cu	0.43765 0.49782 0.15982 0.85400
N 	N 	0.48268 0.58912 0.89158 -0.22600
N 	N 	0.46818 0.61869 0.01598 -0.23600
C 	C 	0.46990 0.73020 0.01177 0.18300
N 	N 	0.48510 0.77512 0.88882 -0.26000
C 	C 	0.49130 0.68330 0.81857 0.08300
H 	H 	0.50050 0.68620 0.73027 -0.04800
N 	N 	0.46800 0.79590 0.11657 -0.32400
H 	H 	0.46560 0.76540 0.19157 0.12100
H 	H 	0.46930 0.86830 0.10807 0.13600
O 	O 	0.63227 0.03397 0.96527 -0.50600
H 	H 	0.65780 0.11170 0.96047 0.22500
Cu	Cu	0.50218 0.93983 0.82649 0.85300
N 	N 	0.41088 0.89356 0.55824 -0.22500
N 	N 	0.38131 0.84949 0.68264 -0.23600
C 	C 	0.26980 0.73970 0.67843 0.18100
N 	N 	0.22488 0.70998 0.55548 -0.25900
C 	C 	0.31670 0.80800 0.48523 0.08300
H 	H 	0.31380 0.81430 0.39693 -0.04700
N 	N 	0.20410 0.67210 0.78323 -0.32300
H 	H 	0.23460 0.70020 0.85823 0.11900
H 	H 	0.13170 0.60100 0.77473 0.13300
O 	O 	0.96603 0.59830 0.63193 -0.50700
H 	H 	0.88830 0.54610 0.62713 0.22400
Cu	Cu	0.06017 0.56235 0.49315 0.85400
N 	N 	0.51732 0.10644 0.77509 -0.22500
N 	N 	0.53182 0.15051 0.65069 -0.23600
C 	C 	0.53010 0.26030 0.65490 0.18100
N 	N 	0.51490 0.29002 0.77785 -0.25900
C 	C 	0.50870 0.19200 0.84810 0.08300
H 	H 	0.49950 0.18570 0.93640 -0.04700
N 	N 	0.53200 0.32790 0.55010 -0.32300
H 	H 	0.53440 0.29980 0.47510 0.12100
H 	H 	0.53070 0.39900 0.55860 0.13500
O 	O 	0.36773 0.40170 0.70140 -0.50900
H 	H 	0.34220 0.45390 0.70620 0.22400
Cu	Cu	0.49782 0.43765 0.84018 0.85400
N 	N 	0.58912 0.48268 0.10842 -0.22600
N 	N 	0.61869 0.46818 0.98402 -0.23600
C 	C 	0.73020 0.46990 0.98823 0.18300
N 	N 	0.77512 0.48510 0.11118 -0.26000
C 	C 	0.68330 0.49130 0.18143 0.08300
H 	H 	0.68620 0.50050 0.26973 -0.04800
N 	N 	0.79590 0.46800 0.88343 -0.32400
H 	H 	0.76540 0.46560 0.80843 0.12100
H 	H 	0.86830 0.46930 0.89193 0.13600
O 	O 	0.03397 0.63227 0.03473 -0.50600
H 	H 	0.11170 0.65780 0.03953 0.22500
Cu	Cu	0.93983 0.50218 0.17351 0.85300
N 	N 	0.89356 0.41088 0.44176 -0.22500
N 	N 	0.84949 0.38131 0.31736 -0.23600
C 	C 	0.73970 0.26980 0.32157 0.18100
N 	N 	0.70998 0.22488 0.44452 -0.25900
C 	C 	0.80800 0.31670 0.51477 0.08300
H 	H 	0.81430 0.31380 0.60307 -0.04700
N 	N 	0.67210 0.20410 0.21677 -0.32300
H 	H 	0.70020 0.23460 0.14177 0.11900
H 	H 	0.60100 0.13170 0.22527 0.13300
O 	O 	0.59830 0.96603 0.36807 -0.50700
H 	H 	0.54610 0.88830 0.37287 0.22400
Cu	Cu	0.56235 0.06017 0.50685 0.85400
