data_crystal

_cell_length_a 6.59100
_cell_length_b 11.07800
_cell_length_c 15.40800
_cell_angle_alpha 90.00000
_cell_angle_beta  90.00000
_cell_angle_gamma 90.00000

_symmetry_space_group_name_	'P 1'
_symmetry_space_group_name_H-M	'P 1'

loop_
_symmetry_equiv_pos_as_xyz
  x,y,z

loop_
_atom_site_label
_atom_site_type_symbol
_atom_site_fract_x
_atom_site_fract_y
_atom_site_fract_z
_atom_site_charge
Cu	Cu	0.75000 0.72601 0.99264 0.89700
O 	O 	0.00920 0.75200 0.93880 -0.59000
H 	H 	0.01830 0.75410 0.87860 0.19600
N 	N 	0.10530 0.68810 0.10520 -0.19900
N 	N 	0.90070 0.66690 0.09830 -0.20100
N 	N 	0.99630 0.62110 0.22900 -0.15300
N 	N 	0.87780 0.45830 0.43190 -0.17000
C 	C 	0.84100 0.62670 0.17340 0.10400
H 	H 	0.70840 0.60490 0.18660 -0.02000
C 	C 	0.15980 0.66220 0.18430 0.09900
H 	H 	0.29010 0.67050 0.20660 -0.02100
C 	C 	0.99050 0.58980 0.32070 0.07100
C 	C 	0.10400 0.65640 0.37800 -0.08700
H 	H 	0.18140 0.72170 0.35940 0.05900
C 	C 	0.10000 0.62300 0.46310 -0.04900
H 	H 	0.16890 0.66780 0.50470 0.04400
C 	C 	0.98900 0.52030 0.48680 0.00900
H 	H 	0.99530 0.49460 0.54420 0.00600
C 	C 	0.88190 0.49260 0.34840 -0.03300
H 	H 	0.80790 0.44850 0.30800 0.03500
Cu	Cu	0.25000 0.77399 0.00736 0.89900
O 	O 	0.50920 0.74800 0.06120 -0.59000
H 	H 	0.51830 0.74590 0.12140 0.19700
N 	N 	0.60530 0.81190 0.89480 -0.19800
N 	N 	0.40070 0.83310 0.90170 -0.20000
N 	N 	0.49630 0.87890 0.77100 -0.15300
N 	N 	0.37780 0.04170 0.56810 -0.17000
C 	C 	0.34100 0.87330 0.82660 0.10400
H 	H 	0.20840 0.89510 0.81340 -0.02000
C 	C 	0.65980 0.83780 0.81570 0.09900
H 	H 	0.79010 0.82950 0.79340 -0.02200
C 	C 	0.49050 0.91020 0.67930 0.07100
C 	C 	0.60400 0.84360 0.62200 -0.08700
H 	H 	0.68140 0.77830 0.64060 0.05900
C 	C 	0.60000 0.87700 0.53690 -0.04900
H 	H 	0.66890 0.83220 0.49530 0.04300
C 	C 	0.48900 0.97970 0.51320 0.00700
H 	H 	0.49530 0.00540 0.45580 0.00800
C 	C 	0.38190 0.00740 0.65160 -0.03300
H 	H 	0.30790 0.05150 0.69200 0.03500
Cu	Cu	0.75000 0.27399 0.49264 0.89900
O 	O 	0.49080 0.24800 0.43880 -0.59100
H 	H 	0.48170 0.24590 0.37860 0.19700
N 	N 	0.39470 0.31190 0.60520 -0.19800
N 	N 	0.59930 0.33310 0.59830 -0.20100
N 	N 	0.50370 0.37890 0.72900 -0.15300
N 	N 	0.62220 0.54170 0.93190 -0.17000
C 	C 	0.65900 0.37330 0.67340 0.10400
H 	H 	0.79160 0.39510 0.68660 -0.02100
C 	C 	0.34020 0.33780 0.68430 0.10000
H 	H 	0.20990 0.32950 0.70660 -0.02000
C 	C 	0.50950 0.41020 0.82070 0.07200
C 	C 	0.39600 0.34360 0.87800 -0.08700
H 	H 	0.31860 0.27830 0.85940 0.05900
C 	C 	0.40000 0.37700 0.96310 -0.04800
H 	H 	0.33110 0.33220 0.00470 0.04300
C 	C 	0.51100 0.47970 0.98680 0.00900
H 	H 	0.50470 0.50540 0.04420 0.00700
C 	C 	0.61810 0.50740 0.84840 -0.03400
H 	H 	0.69210 0.55150 0.80800 0.03400
Cu	Cu	0.25000 0.22601 0.50736 0.89900
O 	O 	0.99080 0.25200 0.56120 -0.59100
H 	H 	0.98170 0.25410 0.62140 0.19700
N 	N 	0.89470 0.18810 0.39480 -0.19800
N 	N 	0.09930 0.16690 0.40170 -0.20100
N 	N 	0.00370 0.12110 0.27100 -0.15400
N 	N 	0.12220 0.95830 0.06810 -0.16800
C 	C 	0.15900 0.12670 0.32660 0.10400
H 	H 	0.29160 0.10490 0.31340 -0.02000
C 	C 	0.84020 0.16220 0.31570 0.10100
H 	H 	0.70990 0.17050 0.29340 -0.02100
C 	C 	0.00950 0.08980 0.17930 0.07200
C 	C 	0.89600 0.15640 0.12200 -0.09100
H 	H 	0.81860 0.22170 0.14060 0.06100
C 	C 	0.90000 0.12300 0.03690 -0.03500
H 	H 	0.83110 0.16780 0.99530 0.03700
C 	C 	0.01100 0.02030 0.01320 -0.00300
H 	H 	0.00470 0.99460 0.95580 0.01300
C 	C 	0.11810 0.99260 0.15160 -0.03500
H 	H 	0.19210 0.94850 0.19200 0.03500
