data_crystal

_cell_length_a 5.18120
_cell_length_b 10.74200
_cell_length_c 15.12240
_cell_angle_alpha 82.46600
_cell_angle_beta  84.92800
_cell_angle_gamma 82.69100

_symmetry_space_group_name_	'P 1'
_symmetry_space_group_name_H-M	'P 1'

loop_
_symmetry_equiv_pos_as_xyz
  x,y,z

loop_
_atom_site_label
_atom_site_type_symbol
_atom_site_fract_x
_atom_site_fract_y
_atom_site_fract_z
_atom_site_charge
C 	C 	0.98420 0.62970 0.48541 0.03600
H 	H 	0.97180 0.71930 0.47550 0.04700
C 	C 	0.08570 0.56730 0.56424 -0.10200
C 	C 	0.09970 0.43480 0.57933 0.01400
C 	C 	0.18970 0.35980 0.66371 0.09400
C 	C 	0.41600 0.27360 0.66223 -0.16200
H 	H 	0.50850 0.25890 0.60680 0.07700
C 	C 	0.50600 0.20930 0.74146 0.08000
H 	H 	0.66360 0.15350 0.74020 -0.00400
C 	C 	0.13370 0.30830 0.82434 0.11500
H 	H 	0.03370 0.31780 0.87930 0.00800
C 	C 	0.04960 0.37580 0.74507 -0.24400
H 	H 	0.89460 0.43350 0.74650 0.16000
C 	C 	0.36600 0.22640 0.82281 -0.18000
C 	C 	0.46740 0.16010 0.90891 0.38900
C 	C 	0.17340 0.64310 0.63030 0.11400
C 	C 	0.40160 0.60350 0.67280 -0.14000
H 	H 	0.51340 0.53210 0.65580 0.09100
C 	C 	0.46760 0.66770 0.74000 0.06700
H 	H 	0.62300 0.63950 0.76940 0.05100
C 	C 	0.30540 0.77380 0.76433 -0.11300
C 	C 	0.08280 0.81750 0.71869 0.01900
H 	H 	0.97450 0.89100 0.73380 0.10600
C 	C 	0.01980 0.75340 0.65131 -0.19600
H 	H 	0.87100 0.78470 0.61910 0.14300
C 	C 	0.35910 0.83540 0.84231 0.44700
O 	O 	0.30050 0.14812 0.97672 -0.41000
O 	O 	0.70370 0.12330 0.91043 -0.42700
O 	O 	0.19840 0.91430 0.87453 -0.39600
O 	O 	0.58720 0.79740 0.87251 -0.47600
H 	H 	0.60540 0.83560 0.91620 0.34700
C 	C 	0.01580 0.37030 0.51459 -0.15900
H 	H 	0.02820 0.28070 0.52450 0.05200
C 	C 	0.91430 0.43270 0.43576 0.07400
C 	C 	0.90030 0.56520 0.42067 -0.03600
C 	C 	0.81030 0.64020 0.33629 0.03100
C 	C 	0.58400 0.72640 0.33777 -0.08500
H 	H 	0.49150 0.74110 0.39320 0.06900
C 	C 	0.49400 0.79070 0.25854 0.03300
H 	H 	0.33640 0.84650 0.25980 0.05300
C 	C 	0.86630 0.69170 0.17566 -0.01200
H 	H 	0.96630 0.68220 0.12070 0.05200
C 	C 	0.95040 0.62420 0.25493 0.02300
H 	H 	0.10540 0.56650 0.25350 -0.01200
C 	C 	0.63400 0.77360 0.17719 -0.09700
C 	C 	0.53260 0.83990 0.09109 0.39500
C 	C 	0.82660 0.35690 0.36970 0.03400
C 	C 	0.59840 0.39650 0.32720 -0.12100
H 	H 	0.48660 0.46790 0.34420 0.06900
C 	C 	0.53240 0.33230 0.26000 0.07300
H 	H 	0.37700 0.36050 0.23060 0.01100
C 	C 	0.69460 0.22620 0.23567 -0.19400
C 	C 	0.91720 0.18250 0.28131 0.14800
H 	H 	0.02550 0.10900 0.26620 -0.07600
C 	C 	0.98020 0.24660 0.34869 -0.06100
H 	H 	0.12900 0.21530 0.38090 0.00400
C 	C 	0.64090 0.16460 0.15769 0.45000
O 	O 	0.69950 0.85188 0.02328 -0.47800
O 	O 	0.29630 0.87670 0.08957 -0.45000
O 	O 	0.80160 0.08570 0.12547 -0.52500
O 	O 	0.41280 0.20260 0.12749 -0.51600
H 	H 	0.39460 0.16440 0.08380 0.22900
Ca	Ca	-0.00000 0.00000 -0.00000 1.46700
