data_crystal

_cell_length_a 5.11610
_cell_length_b 10.82390
_cell_length_c 15.25980
_cell_angle_alpha 82.99000
_cell_angle_beta  85.88500
_cell_angle_gamma 83.05000

_symmetry_space_group_name_	'P 1'
_symmetry_space_group_name_H-M	'P 1'

loop_
_symmetry_equiv_pos_as_xyz
  x,y,z

loop_
_atom_site_label
_atom_site_type_symbol
_atom_site_fract_x
_atom_site_fract_y
_atom_site_fract_z
_atom_site_charge
C 	C 	0.98340 0.62876 0.48889 0.03200
H 	H 	0.97080 0.71770 0.48130 0.04700
C 	C 	0.08230 0.56412 0.56694 -0.09900
C 	C 	0.09730 0.43225 0.57818 0.01300
C 	C 	0.18580 0.35482 0.66115 0.09500
C 	C 	0.41090 0.26833 0.65918 -0.16200
H 	H 	0.50250 0.25400 0.60430 0.07700
C 	C 	0.50170 0.20282 0.73773 0.08100
H 	H 	0.65860 0.14620 0.73640 -0.00300
C 	C 	0.36350 0.22007 0.81785 -0.18000
C 	C 	0.13200 0.30211 0.81946 0.11700
H 	H 	0.03250 0.31130 0.87370 0.00600
C 	C 	0.04630 0.37062 0.74161 -0.24400
H 	H 	0.89150 0.42860 0.74330 0.15900
C 	C 	0.46740 0.15452 0.90324 0.38900
C 	C 	0.16840 0.63697 0.63547 0.11100
C 	C 	0.39790 0.59565 0.67927 -0.13900
H 	H 	0.51000 0.52510 0.66210 0.09000
C 	C 	0.46350 0.65680 0.74765 0.06600
H 	H 	0.61960 0.62770 0.77760 0.05200
C 	C 	0.30080 0.76137 0.77277 -0.11000
C 	C 	0.07790 0.80704 0.72628 0.01500
H 	H 	0.97050 0.88010 0.74160 0.10700
C 	C 	0.01300 0.74548 0.65744 -0.19300
H 	H 	0.86250 0.77730 0.62520 0.14000
C 	C 	0.35480 0.82222 0.85110 0.44500
O 	O 	0.30340 0.14723 0.97079 -0.41500
O 	O 	0.70470 0.11340 0.90431 -0.42900
O 	O 	0.19780 0.90318 0.88093 -0.39900
O 	O 	0.58100 0.77941 0.88467 -0.47400
H 	H 	0.60040 0.81700 0.92840 0.34900
C 	C 	0.01660 0.37124 0.51111 -0.15700
H 	H 	0.02920 0.28230 0.51870 0.05100
C 	C 	0.91770 0.43588 0.43306 0.07200
C 	C 	0.90270 0.56775 0.42182 -0.03500
C 	C 	0.81420 0.64518 0.33885 0.03100
C 	C 	0.58910 0.73167 0.34082 -0.08400
H 	H 	0.49750 0.74600 0.39570 0.06800
C 	C 	0.49830 0.79718 0.26227 0.03100
H 	H 	0.34140 0.85380 0.26360 0.05400
C 	C 	0.63650 0.77993 0.18215 -0.09500
C 	C 	0.86800 0.69789 0.18054 -0.01200
H 	H 	0.96750 0.68870 0.12630 0.05300
C 	C 	0.95370 0.62938 0.25839 0.02200
H 	H 	0.10850 0.57140 0.25670 -0.01200
C 	C 	0.53260 0.84548 0.09676 0.39200
C 	C 	0.83160 0.36303 0.36453 0.03500
C 	C 	0.60210 0.40435 0.32073 -0.12300
H 	H 	0.49000 0.47490 0.33790 0.06900
C 	C 	0.53650 0.34320 0.25235 0.07400
H 	H 	0.38040 0.37230 0.22240 0.01100
C 	C 	0.69920 0.23863 0.22723 -0.19200
C 	C 	0.92210 0.19296 0.27372 0.14700
H 	H 	0.02950 0.11990 0.25840 -0.07500
C 	C 	0.98700 0.25452 0.34256 -0.06200
H 	H 	0.13750 0.22270 0.37480 0.00500
C 	C 	0.64520 0.17778 0.14890 0.45100
O 	O 	0.69660 0.85277 0.02921 -0.48000
O 	O 	0.29530 0.88660 0.09569 -0.44300
O 	O 	0.80220 0.09682 0.11907 -0.52600
O 	O 	0.41900 0.22059 0.11533 -0.51500
H 	H 	0.39960 0.18300 0.07160 0.23300
Ca	Ca	-0.00000 0.00000 -0.00000 1.46800
