data_crystal

_cell_length_a 8.57850
_cell_length_b 13.82360
_cell_length_c 31.93220
_cell_angle_alpha 90.00000
_cell_angle_beta  90.00000
_cell_angle_gamma 90.00000

_symmetry_space_group_name_	'P 1'
_symmetry_space_group_name_H-M	'P 1'

loop_
_symmetry_equiv_pos_as_xyz
  x,y,z

loop_
_atom_site_label
_atom_site_type_symbol
_atom_site_fract_x
_atom_site_fract_y
_atom_site_fract_z
_atom_site_charge
Pr	Pr	0.92104 0.79873 0.10343 2.08500
Pr	Pr	0.57896 0.29873 0.89657 2.09000
Pr	Pr	0.07896 0.20127 0.60343 2.08500
Pr	Pr	0.42104 0.70127 0.39657 2.09000
Pr	Pr	0.07896 0.20127 0.89657 2.08500
Pr	Pr	0.42104 0.70127 0.10343 2.09000
Pr	Pr	0.92104 0.79873 0.39657 2.08500
Pr	Pr	0.57896 0.29873 0.60343 2.09000
H 	H 	0.88710 0.59480 0.18760 0.10300
H 	H 	0.46670 0.98010 0.10990 0.08000
H 	H 	0.59030 0.18550 0.02820 0.07600
H 	H 	0.21210 0.02480 0.00590 0.05700
H 	H 	0.67940 0.51720 0.22670 0.20200
H 	H 	0.65710 0.17460 0.11060 0.16000
H 	H 	0.69050 0.07370 0.11980 0.18400
H 	H 	0.76410 0.12060 0.08420 0.16600
H 	H 	0.61290 0.09480 0.81240 0.09200
H 	H 	0.03330 0.48010 0.89010 0.07800
H 	H 	0.90970 0.68550 0.97180 0.07700
H 	H 	0.28790 0.52480 0.99410 0.05900
H 	H 	0.82060 0.01720 0.77330 0.20500
H 	H 	0.84290 0.67460 0.88940 0.16100
H 	H 	0.80950 0.57370 0.88020 0.18600
H 	H 	0.73590 0.62060 0.91580 0.16600
H 	H 	0.11290 0.40520 0.68760 0.10400
H 	H 	0.53330 0.01990 0.60990 0.08100
H 	H 	0.40970 0.81450 0.52820 0.07700
H 	H 	0.78790 0.97520 0.50590 0.05800
H 	H 	0.32060 0.48280 0.72670 0.20200
H 	H 	0.34290 0.82540 0.61060 0.16000
H 	H 	0.30950 0.92630 0.61980 0.18400
H 	H 	0.23590 0.87940 0.58420 0.16600
H 	H 	0.38710 0.90520 0.31240 0.09200
H 	H 	0.96670 0.51990 0.39010 0.07800
H 	H 	0.09030 0.31450 0.47180 0.07700
H 	H 	0.71210 0.47520 0.49410 0.05900
H 	H 	0.17940 0.98280 0.27330 0.20500
H 	H 	0.15710 0.32540 0.38940 0.16100
H 	H 	0.19050 0.42630 0.38020 0.18600
H 	H 	0.26410 0.37940 0.41580 0.16600
H 	H 	0.11290 0.40520 0.81240 0.10400
H 	H 	0.53330 0.01990 0.89010 0.08100
H 	H 	0.40970 0.81450 0.97180 0.07700
H 	H 	0.78790 0.97520 0.99410 0.05800
H 	H 	0.32060 0.48280 0.77330 0.20200
H 	H 	0.34290 0.82540 0.88940 0.16000
H 	H 	0.30950 0.92630 0.88020 0.18400
H 	H 	0.23590 0.87940 0.91580 0.16600
H 	H 	0.38710 0.90520 0.18760 0.09200
H 	H 	0.96670 0.51990 0.10990 0.07800
H 	H 	0.09030 0.31450 0.02820 0.07700
H 	H 	0.71210 0.47520 0.00590 0.05900
H 	H 	0.17940 0.98280 0.22670 0.20500
H 	H 	0.15710 0.32540 0.11060 0.16100
H 	H 	0.19050 0.42630 0.11980 0.18600
H 	H 	0.26410 0.37940 0.08420 0.16600
H 	H 	0.88710 0.59480 0.31240 0.10400
H 	H 	0.46670 0.98010 0.39010 0.08100
H 	H 	0.59030 0.18550 0.47180 0.07700
H 	H 	0.21210 0.02480 0.49410 0.05800
H 	H 	0.67940 0.51720 0.27330 0.20200
H 	H 	0.65710 0.17460 0.38940 0.16000
H 	H 	0.69050 0.07370 0.38020 0.18400
H 	H 	0.76410 0.12060 0.41580 0.16600
H 	H 	0.61290 0.09480 0.68760 0.09200
H 	H 	0.03330 0.48010 0.60990 0.07800
H 	H 	0.90970 0.68550 0.52820 0.07700
H 	H 	0.28790 0.52480 0.50590 0.05900
H 	H 	0.82060 0.01720 0.72670 0.20500
H 	H 	0.84290 0.67460 0.61060 0.16100
H 	H 	0.80950 0.57370 0.61980 0.18600
H 	H 	0.73590 0.62060 0.58420 0.16600
H 	H 	0.25030 0.70840 0.25000 0.08800
H 	H 	0.24970 0.20840 0.75000 0.07500
H 	H 	0.74970 0.29160 0.75000 0.08800
H 	H 	0.75030 0.79160 0.25000 0.07500
C 	C 	0.15830 0.68540 0.17250 0.34400
C 	C 	0.08040 0.65780 0.21259 0.00400
C 	C 	0.93630 0.61020 0.21270 -0.15700
C 	C 	0.20750 0.91570 0.07328 0.35000
C 	C 	0.32150 0.99120 0.05992 -0.05200
C 	C 	0.44830 0.01360 0.08519 -0.10800
C 	C 	0.54580 0.08700 0.07248 0.12700
C 	C 	0.52300 0.13580 0.03585 -0.09600
C 	C 	0.39840 0.11090 0.00995 -0.07000
C 	C 	0.29760 0.04020 0.02253 0.00100
C 	C 	0.37510 0.16180 0.96935 0.40500
C 	C 	0.34170 0.18540 0.82750 0.35700
C 	C 	0.41960 0.15780 0.78741 -0.03700
C 	C 	0.56370 0.11020 0.78730 -0.11300
C 	C 	0.29250 0.41570 0.92672 0.35100
C 	C 	0.17850 0.49120 0.94008 -0.05700
C 	C 	0.05170 0.51360 0.91481 -0.11100
C 	C 	0.95420 0.58700 0.92752 0.13300
C 	C 	0.97700 0.63580 0.96415 -0.09600
C 	C 	0.10160 0.61090 0.99005 -0.07200
C 	C 	0.20240 0.54020 0.97747 0.00400
C 	C 	0.12490 0.66180 0.03065 0.40600
C 	C 	0.84170 0.31460 0.67250 0.34400
C 	C 	0.91960 0.34220 0.71259 0.00400
C 	C 	0.06370 0.38980 0.71270 -0.15700
C 	C 	0.79250 0.08430 0.57328 0.35000
C 	C 	0.67850 0.00880 0.55992 -0.05200
C 	C 	0.55170 0.98640 0.58519 -0.10800
C 	C 	0.45420 0.91300 0.57248 0.12700
C 	C 	0.47700 0.86420 0.53585 -0.09600
C 	C 	0.60160 0.88910 0.50995 -0.07000
C 	C 	0.70240 0.95980 0.52253 0.00100
C 	C 	0.62490 0.83820 0.46935 0.40500
C 	C 	0.65830 0.81460 0.32750 0.35700
C 	C 	0.58040 0.84220 0.28741 -0.03700
C 	C 	0.43630 0.88980 0.28730 -0.11300
C 	C 	0.70750 0.58430 0.42672 0.35100
C 	C 	0.82150 0.50880 0.44008 -0.05700
C 	C 	0.94830 0.48640 0.41481 -0.11000
C 	C 	0.04580 0.41300 0.42752 0.13300
C 	C 	0.02300 0.36420 0.46415 -0.09800
C 	C 	0.89840 0.38910 0.49005 -0.07000
C 	C 	0.79760 0.45980 0.47747 0.00300
C 	C 	0.87510 0.33820 0.53065 0.40400
C 	C 	0.84170 0.31460 0.82750 0.34400
C 	C 	0.91960 0.34220 0.78741 0.00400
C 	C 	0.06370 0.38980 0.78730 -0.15700
C 	C 	0.79250 0.08430 0.92672 0.35000
C 	C 	0.67850 0.00880 0.94008 -0.05200
C 	C 	0.55170 0.98640 0.91481 -0.10800
C 	C 	0.45420 0.91300 0.92752 0.12700
C 	C 	0.47700 0.86420 0.96415 -0.09600
C 	C 	0.60160 0.88910 0.99005 -0.07000
C 	C 	0.70240 0.95980 0.97747 0.00100
C 	C 	0.62490 0.83820 0.03065 0.40500
C 	C 	0.65830 0.81460 0.17250 0.35700
C 	C 	0.58040 0.84220 0.21259 -0.03700
C 	C 	0.43630 0.88980 0.21270 -0.11300
C 	C 	0.70750 0.58430 0.07328 0.35100
C 	C 	0.82150 0.50880 0.05992 -0.05700
C 	C 	0.94830 0.48640 0.08519 -0.11100
C 	C 	0.04580 0.41300 0.07248 0.13300
C 	C 	0.02300 0.36420 0.03585 -0.09600
C 	C 	0.89840 0.38910 0.00995 -0.07200
C 	C 	0.79760 0.45980 0.02253 0.00400
C 	C 	0.87510 0.33820 0.96935 0.40600
C 	C 	0.15830 0.68540 0.32750 0.34400
C 	C 	0.08040 0.65780 0.28741 0.00400
C 	C 	0.93630 0.61020 0.28730 -0.15700
C 	C 	0.20750 0.91570 0.42672 0.35000
C 	C 	0.32150 0.99120 0.44008 -0.05200
C 	C 	0.44830 0.01360 0.41481 -0.10800
C 	C 	0.54580 0.08700 0.42752 0.12700
C 	C 	0.52300 0.13580 0.46415 -0.09600
C 	C 	0.39840 0.11090 0.49005 -0.07000
C 	C 	0.29760 0.04020 0.47747 0.00100
C 	C 	0.37510 0.16180 0.53065 0.40500
C 	C 	0.34170 0.18540 0.67250 0.35700
C 	C 	0.41960 0.15780 0.71259 -0.03700
C 	C 	0.56370 0.11020 0.71270 -0.11300
C 	C 	0.29250 0.41570 0.57328 0.35100
C 	C 	0.17850 0.49120 0.55992 -0.05700
C 	C 	0.05170 0.51360 0.58519 -0.11000
C 	C 	0.95420 0.58700 0.57248 0.13300
C 	C 	0.97700 0.63580 0.53585 -0.09800
C 	C 	0.10160 0.61090 0.50995 -0.07000
C 	C 	0.20240 0.54020 0.52253 0.00300
C 	C 	0.12490 0.66180 0.46935 0.40400
C 	C 	0.15250 0.67930 0.25000 -0.03600
C 	C 	0.86900 0.58680 0.25000 0.19400
C 	C 	0.34750 0.17930 0.75000 -0.00400
C 	C 	0.63100 0.08680 0.75000 0.16900
C 	C 	0.84750 0.32070 0.75000 -0.03600
C 	C 	0.13100 0.41320 0.75000 0.19400
C 	C 	0.65250 0.82070 0.25000 -0.00400
C 	C 	0.36900 0.91320 0.25000 0.16900
N 	N 	0.95830 0.97260 0.16180 0.05000
N 	N 	0.67750 0.11700 0.09948 -0.39500
N 	N 	0.54170 0.47260 0.83820 0.06200
N 	N 	0.82250 0.61700 0.90052 -0.39700
N 	N 	0.04170 0.02740 0.66180 0.05000
N 	N 	0.32250 0.88300 0.59948 -0.39500
N 	N 	0.45830 0.52740 0.33820 0.06200
N 	N 	0.17750 0.38300 0.40052 -0.39600
N 	N 	0.04170 0.02740 0.83820 0.05000
N 	N 	0.32250 0.88300 0.90052 -0.39500
N 	N 	0.45830 0.52740 0.16180 0.06200
N 	N 	0.17750 0.38300 0.09948 -0.39700
N 	N 	0.95830 0.97260 0.33820 0.05000
N 	N 	0.67750 0.11700 0.40052 -0.39500
N 	N 	0.54170 0.47260 0.66180 0.06200
N 	N 	0.82250 0.61700 0.59948 -0.39600
N 	N 	0.72220 0.53350 0.25000 -0.33600
N 	N 	0.77780 0.03350 0.75000 -0.33200
N 	N 	0.27780 0.46650 0.75000 -0.33600
N 	N 	0.22220 0.96650 0.25000 -0.33200
O 	O 	0.24740 0.84290 0.09505 -0.52700
O 	O 	0.06580 0.92870 0.06351 -0.39900
O 	O 	0.08020 0.68000 0.13846 -0.50600
O 	O 	0.29650 0.71160 0.17348 -0.42700
O 	O 	0.48000 0.22140 0.95799 -0.48200
O 	O 	0.25710 0.14090 0.94806 -0.48900
O 	O 	0.85340 0.96830 0.13437 -0.28500
O 	O 	0.05990 0.90970 0.16370 -0.23700
O 	O 	0.95370 0.03860 0.18870 -0.11800
O 	O 	0.25260 0.34290 0.90495 -0.53100
O 	O 	0.43420 0.42870 0.93649 -0.40500
O 	O 	0.41980 0.18000 0.86154 -0.51500
O 	O 	0.20350 0.21160 0.82652 -0.43500
O 	O 	0.02000 0.72140 0.04201 -0.47900
O 	O 	0.24290 0.64090 0.05194 -0.48600
O 	O 	0.64660 0.46830 0.86563 -0.28100
O 	O 	0.44010 0.40970 0.83630 -0.25100
O 	O 	0.54630 0.53860 0.81130 -0.11800
O 	O 	0.75260 0.15710 0.59505 -0.52800
O 	O 	0.93420 0.07130 0.56351 -0.39900
O 	O 	0.91980 0.32000 0.63846 -0.50600
O 	O 	0.70350 0.28840 0.67348 -0.42700
O 	O 	0.52000 0.77860 0.45799 -0.48200
O 	O 	0.74290 0.85910 0.44806 -0.48900
O 	O 	0.14660 0.03170 0.63437 -0.28500
O 	O 	0.94010 0.09030 0.66370 -0.23700
O 	O 	0.04630 0.96140 0.68870 -0.11800
O 	O 	0.74740 0.65710 0.40495 -0.53100
O 	O 	0.56580 0.57130 0.43649 -0.40500
O 	O 	0.58020 0.82000 0.36154 -0.51500
O 	O 	0.79650 0.78840 0.32652 -0.43500
O 	O 	0.98000 0.27860 0.54201 -0.47900
O 	O 	0.75710 0.35910 0.55194 -0.48600
O 	O 	0.35340 0.53170 0.36563 -0.28100
O 	O 	0.55990 0.59030 0.33630 -0.25100
O 	O 	0.45370 0.46140 0.31130 -0.11800
O 	O 	0.75260 0.15710 0.90495 -0.52700
O 	O 	0.93420 0.07130 0.93649 -0.39900
O 	O 	0.91980 0.32000 0.86154 -0.50600
O 	O 	0.70350 0.28840 0.82652 -0.42700
O 	O 	0.52000 0.77860 0.04201 -0.48200
O 	O 	0.74290 0.85910 0.05194 -0.48900
O 	O 	0.14660 0.03170 0.86563 -0.28500
O 	O 	0.94010 0.09030 0.83630 -0.23700
O 	O 	0.04630 0.96140 0.81130 -0.11800
O 	O 	0.74740 0.65710 0.09505 -0.53100
O 	O 	0.56580 0.57130 0.06351 -0.40500
O 	O 	0.58020 0.82000 0.13846 -0.51500
O 	O 	0.79650 0.78840 0.17348 -0.43500
O 	O 	0.98000 0.27860 0.95799 -0.47900
O 	O 	0.75710 0.35910 0.94806 -0.48600
O 	O 	0.35340 0.53170 0.13437 -0.28100
O 	O 	0.55990 0.59030 0.16370 -0.25100
O 	O 	0.45370 0.46140 0.18870 -0.11800
O 	O 	0.24740 0.84290 0.40495 -0.52800
O 	O 	0.06580 0.92870 0.43649 -0.39900
O 	O 	0.08020 0.68000 0.36154 -0.50600
O 	O 	0.29650 0.71160 0.32652 -0.42700
O 	O 	0.48000 0.22140 0.54201 -0.48200
O 	O 	0.25710 0.14090 0.55194 -0.48900
O 	O 	0.85340 0.96830 0.36563 -0.28500
O 	O 	0.05990 0.90970 0.33630 -0.23700
O 	O 	0.95370 0.03860 0.31130 -0.11800
O 	O 	0.25260 0.34290 0.59505 -0.53100
O 	O 	0.43420 0.42870 0.56351 -0.40500
O 	O 	0.41980 0.18000 0.63846 -0.51500
O 	O 	0.20350 0.21160 0.67348 -0.43500
O 	O 	0.02000 0.72140 0.45799 -0.47900
O 	O 	0.24290 0.64090 0.44806 -0.48600
O 	O 	0.64660 0.46830 0.63437 -0.28100
O 	O 	0.44010 0.40970 0.66370 -0.25100
O 	O 	0.54630 0.53860 0.68870 -0.11800
