data_crystal

_cell_length_a 20.90490
_cell_length_b 14.68080
_cell_length_c 14.25150
_cell_angle_alpha 90.00000
_cell_angle_beta  108.04300
_cell_angle_gamma 90.00000

_symmetry_space_group_name_	'P 1'
_symmetry_space_group_name_H-M	'P 1'

loop_
_symmetry_equiv_pos_as_xyz
  x,y,z

loop_
_atom_site_label
_atom_site_type_symbol
_atom_site_fract_x
_atom_site_fract_y
_atom_site_fract_z
_atom_site_charge
Ag	Ag	0.67945 0.16716 0.70914 0.53300
N 	N 	0.77997 0.09660 0.78110 -0.19800
N 	N 	0.05015 0.39350 0.17270 -0.19700
N 	N 	0.37768 0.96840 0.32380 -0.19300
N 	N 	0.65322 0.75820 0.34070 -0.18900
S 	S 	0.09909 0.80167 0.85682 -0.05400
S 	S 	0.65248 0.29312 0.58638 -0.06300
C 	C 	0.82832 0.05580 0.80180 0.08700
C 	C 	0.88997 0.00390 0.83420 -0.07900
C 	C 	0.95073 0.04460 0.83800 0.05900
H 	H 	0.95190 0.10520 0.81510 0.00900
C 	C 	0.00927 0.99560 0.87550 -0.17400
H 	H 	0.05110 0.02290 0.87900 0.08300
C 	C 	0.00785 0.90740 0.90820 0.09400
C 	C 	0.94671 0.86720 0.90220 -0.12300
H 	H 	0.94550 0.80610 0.92340 0.06300
C 	C 	0.88800 0.91520 0.86590 0.01900
H 	H 	0.84620 0.88770 0.86240 0.01800
C 	C 	0.07201 0.85530 0.95240 -0.20900
H 	H 	0.06490 0.80820 0.99790 0.08100
H 	H 	0.10750 0.89730 0.99100 0.09100
C 	C 	0.16567 0.72810 0.93270 -0.21200
H 	H 	0.18910 0.69890 0.89000 0.08700
H 	H 	0.19890 0.76620 0.98160 0.08900
C 	C 	0.14068 0.65550 0.98640 0.10900
C 	C 	0.14102 0.66780 0.08310 -0.14100
H 	H 	0.15830 0.72290 0.11630 0.06500
C 	C 	0.11678 0.60150 0.13200 0.01300
H 	H 	0.11610 0.61130 0.19760 0.01400
C 	C 	0.09337 0.52030 0.08350 -0.06700
C 	C 	0.09377 0.50550 0.98760 0.01800
H 	H 	0.07810 0.44950 0.95520 0.01400
C 	C 	0.11723 0.57330 0.94000 -0.14600
H 	H 	0.11740 0.56370 0.87420 0.06800
C 	C 	0.06900 0.44940 0.13330 0.08300
C 	C 	0.40573 0.02970 0.36390 0.09100
C 	C 	0.44360 0.10640 0.41520 -0.06600
C 	C 	0.46712 0.17110 0.36330 0.01800
H 	H 	0.45650 0.16650 0.29360 0.02000
C 	C 	0.50596 0.24220 0.41310 -0.13800
H 	H 	0.52220 0.28660 0.37760 0.07200
C 	C 	0.52157 0.24970 0.51500 0.10900
C 	C 	0.49690 0.18560 0.56590 -0.14300
H 	H 	0.50690 0.19090 0.63540 0.06600
C 	C 	0.45779 0.11370 0.51670 0.02000
H 	H 	0.44090 0.06990 0.55210 0.02000
C 	C 	0.56548 0.32570 0.56900 -0.20800
H 	H 	0.55830 0.33590 0.63370 0.07800
H 	H 	0.55460 0.38280 0.53030 0.09000
C 	C 	0.69451 0.39340 0.65150 -0.20600
H 	H 	0.67660 0.40750 0.70650 0.07900
H 	H 	0.74320 0.38090 0.67980 0.07500
C 	C 	0.68439 0.47400 0.58400 0.11900
C 	C 	0.71663 0.47730 0.51230 -0.13700
H 	H 	0.74510 0.42850 0.50690 0.07400
C 	C 	0.70780 0.55040 0.44900 0.01600
H 	H 	0.72980 0.55210 0.39990 0.02000
C 	C 	0.66650 0.62130 0.45770 -0.06400
C 	C 	0.63364 0.61880 0.52840 0.01500
H 	H 	0.60520 0.66770 0.53380 0.02600
C 	C 	0.64252 0.54510 0.59080 -0.14100
H 	H 	0.61970 0.54290 0.63890 0.07100
C 	C 	0.65792 0.69820 0.39220 0.08000
Ag	Ag	0.32055 0.16716 0.79086 0.53200
N 	N 	0.22003 0.09660 0.71890 -0.19800
N 	N 	0.94985 0.39350 0.32730 -0.18600
N 	N 	0.62232 0.96840 0.17620 -0.19400
N 	N 	0.34678 0.75820 0.15930 -0.19000
S 	S 	0.90091 0.80167 0.64318 -0.03400
S 	S 	0.34752 0.29312 0.91362 -0.06400
C 	C 	0.17168 0.05580 0.69820 0.08100
C 	C 	0.11003 0.00390 0.66580 -0.06600
C 	C 	0.04927 0.04460 0.66200 -0.01300
H 	H 	0.04810 0.10520 0.68490 0.02100
C 	C 	0.99073 0.99560 0.62450 -0.10900
H 	H 	0.94890 0.02290 0.62100 0.07000
C 	C 	0.99215 0.90740 0.59180 0.14400
C 	C 	0.05329 0.86720 0.59780 -0.19200
H 	H 	0.05450 0.80610 0.57660 0.07300
C 	C 	0.11200 0.91520 0.63410 0.03500
H 	H 	0.15380 0.88770 0.63760 0.01200
C 	C 	0.92799 0.85530 0.54760 -0.23100
H 	H 	0.93510 0.80820 0.50210 0.09600
H 	H 	0.89250 0.89730 0.50900 0.09700
C 	C 	0.83433 0.72810 0.56730 -0.21900
H 	H 	0.81090 0.69890 0.61000 0.08900
H 	H 	0.80110 0.76620 0.51840 0.09000
C 	C 	0.85932 0.65550 0.51360 0.11500
C 	C 	0.85898 0.66780 0.41690 -0.14200
H 	H 	0.84170 0.72290 0.38370 0.06600
C 	C 	0.88322 0.60150 0.36800 0.01800
H 	H 	0.88390 0.61130 0.30240 0.01700
C 	C 	0.90663 0.52030 0.41650 -0.06400
C 	C 	0.90623 0.50550 0.51240 0.02400
H 	H 	0.92190 0.44950 0.54480 0.02200
C 	C 	0.88277 0.57330 0.56000 -0.14400
H 	H 	0.88260 0.56370 0.62580 0.07200
C 	C 	0.93100 0.44940 0.36670 0.09500
C 	C 	0.59427 0.02970 0.13610 0.09000
C 	C 	0.55640 0.10640 0.08480 -0.06400
C 	C 	0.53288 0.17110 0.13670 0.01600
H 	H 	0.54350 0.16650 0.20640 0.02100
C 	C 	0.49404 0.24220 0.08690 -0.13600
H 	H 	0.47780 0.28660 0.12240 0.07200
C 	C 	0.47843 0.24970 0.98500 0.10800
C 	C 	0.50310 0.18560 0.93410 -0.14100
H 	H 	0.49310 0.19090 0.86460 0.06500
C 	C 	0.54221 0.11370 0.98330 0.01800
H 	H 	0.55910 0.06990 0.94790 0.02100
C 	C 	0.43452 0.32570 0.93100 -0.20700
H 	H 	0.44170 0.33590 0.86630 0.07800
H 	H 	0.44540 0.38280 0.96970 0.09000
C 	C 	0.30549 0.39340 0.84850 -0.20500
H 	H 	0.32340 0.40750 0.79350 0.07800
H 	H 	0.25680 0.38090 0.82020 0.07400
C 	C 	0.31561 0.47400 0.91600 0.11800
C 	C 	0.28337 0.47730 0.98770 -0.13700
H 	H 	0.25490 0.42850 0.99310 0.07300
C 	C 	0.29220 0.55040 0.05100 0.01700
H 	H 	0.27020 0.55210 0.10010 0.02000
C 	C 	0.33350 0.62130 0.04230 -0.06300
C 	C 	0.36636 0.61880 0.97160 0.01400
H 	H 	0.39480 0.66770 0.96620 0.02600
C 	C 	0.35748 0.54510 0.90920 -0.14000
H 	H 	0.38030 0.54290 0.86110 0.07100
C 	C 	0.34208 0.69820 0.10780 0.08000
Ag	Ag	0.32055 0.83284 0.29086 0.53200
N 	N 	0.22003 0.90340 0.21890 -0.19700
N 	N 	0.94985 0.60650 0.82730 -0.18600
N 	N 	0.62232 0.03160 0.67620 -0.19400
N 	N 	0.34678 0.24180 0.65930 -0.19000
S 	S 	0.90091 0.19833 0.14318 -0.03400
S 	S 	0.34752 0.70688 0.41362 -0.06400
C 	C 	0.17168 0.94420 0.19820 0.08100
C 	C 	0.11003 0.99610 0.16580 -0.06600
C 	C 	0.04927 0.95540 0.16200 -0.01300
H 	H 	0.04810 0.89480 0.18490 0.02100
C 	C 	0.99073 0.00440 0.12450 -0.10900
H 	H 	0.94890 0.97710 0.12100 0.07000
C 	C 	0.99215 0.09260 0.09180 0.14300
C 	C 	0.05329 0.13280 0.09780 -0.19000
H 	H 	0.05450 0.19390 0.07660 0.07300
C 	C 	0.11200 0.08480 0.13410 0.03400
H 	H 	0.15380 0.11230 0.13760 0.01200
C 	C 	0.92799 0.14470 0.04760 -0.23100
H 	H 	0.93510 0.19180 0.00210 0.09600
H 	H 	0.89250 0.10270 0.00900 0.09700
C 	C 	0.83433 0.27190 0.06730 -0.21900
H 	H 	0.81090 0.30110 0.11000 0.08900
H 	H 	0.80110 0.23380 0.01840 0.09100
C 	C 	0.85932 0.34450 0.01360 0.11600
C 	C 	0.85898 0.33220 0.91690 -0.14300
H 	H 	0.84170 0.27710 0.88370 0.06600
C 	C 	0.88322 0.39850 0.86800 0.01800
H 	H 	0.88390 0.38870 0.80240 0.01700
C 	C 	0.90663 0.47970 0.91650 -0.06400
C 	C 	0.90623 0.49450 0.01240 0.02500
H 	H 	0.92190 0.55050 0.04480 0.02200
C 	C 	0.88277 0.42670 0.06000 -0.14400
H 	H 	0.88260 0.43630 0.12580 0.07200
C 	C 	0.93100 0.55060 0.86670 0.09500
C 	C 	0.59427 0.97030 0.63610 0.09000
C 	C 	0.55640 0.89360 0.58480 -0.06600
C 	C 	0.53288 0.82890 0.63670 0.01800
H 	H 	0.54350 0.83350 0.70640 0.02000
C 	C 	0.49404 0.75780 0.58690 -0.13800
H 	H 	0.47780 0.71340 0.62240 0.07200
C 	C 	0.47843 0.75030 0.48500 0.10900
C 	C 	0.50310 0.81440 0.43410 -0.14300
H 	H 	0.49310 0.80910 0.36460 0.06600
C 	C 	0.54221 0.88630 0.48330 0.02000
H 	H 	0.55910 0.93010 0.44790 0.02000
C 	C 	0.43452 0.67430 0.43100 -0.20800
H 	H 	0.44170 0.66410 0.36630 0.07800
H 	H 	0.44540 0.61720 0.46970 0.09000
C 	C 	0.30549 0.60660 0.34850 -0.20500
H 	H 	0.32340 0.59250 0.29350 0.07800
H 	H 	0.25680 0.61910 0.32020 0.07400
C 	C 	0.31561 0.52600 0.41600 0.11800
C 	C 	0.28337 0.52270 0.48770 -0.13600
H 	H 	0.25490 0.57150 0.49310 0.07300
C 	C 	0.29220 0.44960 0.55100 0.01600
H 	H 	0.27020 0.44790 0.60010 0.02000
C 	C 	0.33350 0.37870 0.54230 -0.06400
C 	C 	0.36636 0.38120 0.47160 0.01500
H 	H 	0.39480 0.33230 0.46620 0.02600
C 	C 	0.35748 0.45490 0.40920 -0.14100
H 	H 	0.38030 0.45710 0.36110 0.07100
C 	C 	0.34208 0.30180 0.60780 0.08000
Ag	Ag	0.67945 0.83284 0.20914 0.53200
N 	N 	0.77997 0.90340 0.28110 -0.19900
N 	N 	0.05015 0.60650 0.67270 -0.19800
N 	N 	0.37768 0.03160 0.82380 -0.19400
N 	N 	0.65322 0.24180 0.84070 -0.19000
S 	S 	0.09909 0.19833 0.35682 -0.05400
S 	S 	0.65248 0.70688 0.08638 -0.06300
C 	C 	0.82832 0.94420 0.30180 0.08700
C 	C 	0.88997 0.99610 0.33420 -0.07900
C 	C 	0.95073 0.95540 0.33800 0.05900
H 	H 	0.95190 0.89480 0.31510 0.00900
C 	C 	0.00927 0.00440 0.37550 -0.17400
H 	H 	0.05110 0.97710 0.37900 0.08400
C 	C 	0.00785 0.09260 0.40820 0.09500
C 	C 	0.94671 0.13280 0.40220 -0.12300
H 	H 	0.94550 0.19390 0.42340 0.06300
C 	C 	0.88800 0.08480 0.36590 0.01900
H 	H 	0.84620 0.11230 0.36240 0.01800
C 	C 	0.07201 0.14470 0.45240 -0.21000
H 	H 	0.06490 0.19180 0.49790 0.08100
H 	H 	0.10750 0.10270 0.49100 0.09100
C 	C 	0.16567 0.27190 0.43270 -0.21400
H 	H 	0.18910 0.30110 0.39000 0.08700
H 	H 	0.19890 0.23380 0.48160 0.08900
C 	C 	0.14068 0.34450 0.48640 0.11200
C 	C 	0.14102 0.33220 0.58310 -0.14400
H 	H 	0.15830 0.27710 0.61630 0.06500
C 	C 	0.11678 0.39850 0.63200 0.01500
H 	H 	0.11610 0.38870 0.69760 0.01300
C 	C 	0.09337 0.47970 0.58350 -0.07000
C 	C 	0.09377 0.49450 0.48760 0.02100
H 	H 	0.07810 0.55050 0.45520 0.01400
C 	C 	0.11723 0.42670 0.44000 -0.14800
H 	H 	0.11740 0.43630 0.37420 0.06900
C 	C 	0.06900 0.55060 0.63330 0.08300
C 	C 	0.40573 0.97030 0.86390 0.09100
C 	C 	0.44360 0.89360 0.91520 -0.06700
C 	C 	0.46712 0.82890 0.86330 0.01900
H 	H 	0.45650 0.83350 0.79360 0.02000
C 	C 	0.50596 0.75780 0.91310 -0.13900
H 	H 	0.52220 0.71340 0.87760 0.07300
C 	C 	0.52157 0.75030 0.01500 0.11000
C 	C 	0.49690 0.81440 0.06590 -0.14400
H 	H 	0.50690 0.80910 0.13540 0.06600
C 	C 	0.45779 0.88630 0.01670 0.02100
H 	H 	0.44090 0.93010 0.05210 0.02000
C 	C 	0.56548 0.67430 0.06900 -0.20900
H 	H 	0.55830 0.66410 0.13370 0.07800
H 	H 	0.55460 0.61720 0.03030 0.09100
C 	C 	0.69451 0.60660 0.15150 -0.20600
H 	H 	0.67660 0.59250 0.20650 0.07900
H 	H 	0.74320 0.61910 0.17980 0.07500
C 	C 	0.68439 0.52600 0.08400 0.11900
C 	C 	0.71663 0.52270 0.01230 -0.13700
H 	H 	0.74510 0.57150 0.00690 0.07400
C 	C 	0.70780 0.44960 0.94900 0.01600
H 	H 	0.72980 0.44790 0.89990 0.02000
C 	C 	0.66650 0.37870 0.95770 -0.06500
C 	C 	0.63364 0.38120 0.02840 0.01600
H 	H 	0.60520 0.33230 0.03380 0.02600
C 	C 	0.64252 0.45490 0.09080 -0.14100
H 	H 	0.61970 0.45710 0.13890 0.07100
C 	C 	0.65792 0.30180 0.89220 0.08000
Ag	Ag	-0.00000 0.71152 0.75000 0.51500
Ag	Ag	-0.00000 0.28848 0.25000 0.51500
