data_crystal

_cell_length_a 17.57570
_cell_length_b 17.57570
_cell_length_c 17.57570
_cell_angle_alpha 90.92960
_cell_angle_beta  90.92960
_cell_angle_gamma 90.92960

_symmetry_space_group_name_	'P 1'
_symmetry_space_group_name_H-M	'P 1'

loop_
_symmetry_equiv_pos_as_xyz
  x,y,z

loop_
_atom_site_label
_atom_site_type_symbol
_atom_site_fract_x
_atom_site_fract_y
_atom_site_fract_z
_atom_site_charge
Ce	Ce	0.36705 0.36705 0.36705 2.15900
Ce	Ce	0.63295 0.63295 0.63295 2.15900
Ce	Ce	0.50000 0.50000 0.50000 2.14600
H 	H 	0.38200 0.53620 0.23280 0.03400
H 	H 	0.38110 0.57350 0.10670 0.08400
H 	H 	0.61070 0.54110 0.23710 0.05700
H 	H 	0.40260 0.61430 0.96730 0.08300
H 	H 	0.66330 0.62560 0.91640 0.06500
H 	H 	0.44560 0.63680 0.84750 0.05700
H 	H 	0.23280 0.38200 0.53620 0.03500
H 	H 	0.10670 0.38110 0.57350 0.08500
H 	H 	0.23710 0.61070 0.54110 0.05700
H 	H 	0.96730 0.40260 0.61430 0.08300
H 	H 	0.91640 0.66330 0.62560 0.06500
H 	H 	0.84750 0.44560 0.63680 0.05700
H 	H 	0.53620 0.23280 0.38200 0.03500
H 	H 	0.57350 0.10670 0.38110 0.08500
H 	H 	0.54110 0.23710 0.61070 0.05700
H 	H 	0.61430 0.96730 0.40260 0.08300
H 	H 	0.62560 0.91640 0.66330 0.06500
H 	H 	0.63680 0.84750 0.44560 0.05700
H 	H 	0.61800 0.46380 0.76720 0.03500
H 	H 	0.61890 0.42650 0.89330 0.08500
H 	H 	0.38930 0.45890 0.76290 0.05700
H 	H 	0.59740 0.38570 0.03270 0.08300
H 	H 	0.33670 0.37440 0.08360 0.06500
H 	H 	0.55440 0.36320 0.15250 0.05700
H 	H 	0.76720 0.61800 0.46380 0.03500
H 	H 	0.89330 0.61890 0.42650 0.08500
H 	H 	0.76290 0.38930 0.45890 0.05700
H 	H 	0.03270 0.59740 0.38570 0.08300
H 	H 	0.08360 0.33670 0.37440 0.06500
H 	H 	0.15250 0.55440 0.36320 0.05700
H 	H 	0.46380 0.76720 0.61800 0.03500
H 	H 	0.42650 0.89330 0.61890 0.08500
H 	H 	0.45890 0.76290 0.38930 0.05700
H 	H 	0.38570 0.03270 0.59740 0.08300
H 	H 	0.37440 0.08360 0.33670 0.06500
H 	H 	0.36320 0.15250 0.55440 0.05700
C 	C 	0.49760 0.51140 0.32830 0.35700
C 	C 	0.49530 0.53440 0.24790 -0.10800
C 	C 	0.42790 0.54470 0.20840 0.04300
C 	C 	0.42700 0.56710 0.13290 -0.09900
C 	C 	0.56480 0.54840 0.21150 0.03700
C 	C 	0.56410 0.57310 0.13740 -0.06400
C 	C 	0.49620 0.58030 0.09700 0.04900
C 	C 	0.50940 0.60160 0.01630 0.03300
C 	C 	0.58570 0.60740 0.99960 -0.05300
C 	C 	0.45440 0.61520 0.95750 -0.08100
C 	C 	0.61150 0.62260 0.92620 0.01100
C 	C 	0.48090 0.62940 0.88650 0.01800
C 	C 	0.55850 0.63310 0.86910 -0.06700
C 	C 	0.58310 0.64320 0.78850 0.30600
C 	C 	0.32830 0.49760 0.51140 0.35700
C 	C 	0.24790 0.49530 0.53440 -0.10800
C 	C 	0.20840 0.42790 0.54470 0.04300
C 	C 	0.13290 0.42700 0.56710 -0.09900
C 	C 	0.21150 0.56480 0.54840 0.03700
C 	C 	0.13740 0.56410 0.57310 -0.06400
C 	C 	0.09700 0.49620 0.58030 0.04900
C 	C 	0.01630 0.50940 0.60160 0.03300
C 	C 	0.99960 0.58570 0.60740 -0.05300
C 	C 	0.95750 0.45440 0.61520 -0.08100
C 	C 	0.92620 0.61150 0.62260 0.01100
C 	C 	0.88650 0.48090 0.62940 0.01800
C 	C 	0.86910 0.55850 0.63310 -0.06700
C 	C 	0.78850 0.58310 0.64320 0.30600
C 	C 	0.51140 0.32830 0.49760 0.35700
C 	C 	0.53440 0.24790 0.49530 -0.10800
C 	C 	0.54470 0.20840 0.42790 0.04300
C 	C 	0.56710 0.13290 0.42700 -0.09900
C 	C 	0.54840 0.21150 0.56480 0.03700
C 	C 	0.57310 0.13740 0.56410 -0.06400
C 	C 	0.58030 0.09700 0.49620 0.04900
C 	C 	0.60160 0.01630 0.50940 0.03300
C 	C 	0.60740 0.99960 0.58570 -0.05300
C 	C 	0.61520 0.95750 0.45440 -0.08100
C 	C 	0.62260 0.92620 0.61150 0.01100
C 	C 	0.62940 0.88650 0.48090 0.01800
C 	C 	0.63310 0.86910 0.55850 -0.06700
C 	C 	0.64320 0.78850 0.58310 0.30600
C 	C 	0.50240 0.48860 0.67170 0.35700
C 	C 	0.50470 0.46560 0.75210 -0.10800
C 	C 	0.57210 0.45530 0.79160 0.04300
C 	C 	0.57300 0.43290 0.86710 -0.09900
C 	C 	0.43520 0.45160 0.78850 0.03700
C 	C 	0.43590 0.42690 0.86260 -0.06400
C 	C 	0.50380 0.41970 0.90300 0.04900
C 	C 	0.49060 0.39840 0.98370 0.03300
C 	C 	0.41430 0.39260 0.00040 -0.05300
C 	C 	0.54560 0.38480 0.04250 -0.08100
C 	C 	0.38850 0.37740 0.07380 0.01100
C 	C 	0.51910 0.37060 0.11350 0.01800
C 	C 	0.44150 0.36690 0.13090 -0.06700
C 	C 	0.41690 0.35680 0.21150 0.30600
C 	C 	0.67170 0.50240 0.48860 0.35700
C 	C 	0.75210 0.50470 0.46560 -0.10800
C 	C 	0.79160 0.57210 0.45530 0.04300
C 	C 	0.86710 0.57300 0.43290 -0.09900
C 	C 	0.78850 0.43520 0.45160 0.03700
C 	C 	0.86260 0.43590 0.42690 -0.06400
C 	C 	0.90300 0.50380 0.41970 0.04900
C 	C 	0.98370 0.49060 0.39840 0.03300
C 	C 	0.00040 0.41430 0.39260 -0.05300
C 	C 	0.04250 0.54560 0.38480 -0.08100
C 	C 	0.07380 0.38850 0.37740 0.01100
C 	C 	0.11350 0.51910 0.37060 0.01800
C 	C 	0.13090 0.44150 0.36690 -0.06700
C 	C 	0.21150 0.41690 0.35680 0.30600
C 	C 	0.48860 0.67170 0.50240 0.35700
C 	C 	0.46560 0.75210 0.50470 -0.10800
C 	C 	0.45530 0.79160 0.57210 0.04300
C 	C 	0.43290 0.86710 0.57300 -0.09900
C 	C 	0.45160 0.78850 0.43520 0.03700
C 	C 	0.42690 0.86260 0.43590 -0.06400
C 	C 	0.41970 0.90300 0.50380 0.04900
C 	C 	0.39840 0.98370 0.49060 0.03300
C 	C 	0.39260 0.00040 0.41430 -0.05300
C 	C 	0.38480 0.04250 0.54560 -0.08100
C 	C 	0.37740 0.07380 0.38850 0.01100
C 	C 	0.37060 0.11350 0.51910 0.01800
C 	C 	0.36690 0.13090 0.44150 -0.06700
C 	C 	0.35680 0.21150 0.41690 0.30600
S 	S 	0.64346 0.59021 0.07990 0.30600
S 	S 	0.07990 0.64346 0.59021 0.30600
S 	S 	0.59021 0.07990 0.64346 0.30600
S 	S 	0.35654 0.40979 0.92010 0.30600
S 	S 	0.92010 0.35654 0.40979 0.30600
S 	S 	0.40979 0.92010 0.35654 0.30600
O 	O 	0.55901 0.51021 0.36411 -0.39200
O 	O 	0.43443 0.49113 0.35993 -0.56100
O 	O 	0.65338 0.63758 0.77568 -0.40500
O 	O 	0.53522 0.65422 0.73692 -0.40200
O 	O 	0.68380 0.65900 0.10700 -0.18600
O 	O 	0.68630 0.52110 0.06840 -0.20100
O 	O 	0.36411 0.55901 0.51021 -0.39200
O 	O 	0.35993 0.43443 0.49113 -0.56100
O 	O 	0.77568 0.65338 0.63758 -0.40500
O 	O 	0.73692 0.53522 0.65422 -0.40200
O 	O 	0.10700 0.68380 0.65900 -0.18600
O 	O 	0.06840 0.68630 0.52110 -0.20100
O 	O 	0.51021 0.36411 0.55901 -0.39200
O 	O 	0.49113 0.35993 0.43443 -0.56100
O 	O 	0.63758 0.77568 0.65338 -0.40500
O 	O 	0.65422 0.73692 0.53522 -0.40200
O 	O 	0.65900 0.10700 0.68380 -0.18600
O 	O 	0.52110 0.06840 0.68630 -0.20100
O 	O 	0.44099 0.48979 0.63589 -0.39200
O 	O 	0.56557 0.50887 0.64007 -0.56100
O 	O 	0.34662 0.36242 0.22432 -0.40500
O 	O 	0.46478 0.34578 0.26308 -0.40200
O 	O 	0.31620 0.34100 0.89300 -0.18600
O 	O 	0.31370 0.47890 0.93160 -0.20100
O 	O 	0.63589 0.44099 0.48979 -0.39200
O 	O 	0.64007 0.56557 0.50887 -0.56100
O 	O 	0.22432 0.34662 0.36242 -0.40500
O 	O 	0.26308 0.46478 0.34578 -0.40200
O 	O 	0.89300 0.31620 0.34100 -0.18600
O 	O 	0.93160 0.31370 0.47890 -0.20100
O 	O 	0.48979 0.63589 0.44099 -0.39200
O 	O 	0.50887 0.64007 0.56557 -0.56100
O 	O 	0.36242 0.22432 0.34662 -0.40500
O 	O 	0.34578 0.26308 0.46478 -0.40200
O 	O 	0.34100 0.89300 0.31620 -0.18600
O 	O 	0.47890 0.93160 0.31370 -0.20100
