data_crystal

_cell_length_a 12.49960
_cell_length_b 17.70080
_cell_length_c 22.38690
_cell_angle_alpha 79.65700
_cell_angle_beta  80.45200
_cell_angle_gamma 81.32600

_symmetry_space_group_name_	'P 1'
_symmetry_space_group_name_H-M	'P 1'

loop_
_symmetry_equiv_pos_as_xyz
  x,y,z

loop_
_atom_site_label
_atom_site_type_symbol
_atom_site_fract_x
_atom_site_fract_y
_atom_site_fract_z
_atom_site_charge
Dy	Dy	0.65337 0.02921 0.99792 1.66000
Dy	Dy	0.87118 0.42990 0.51805 1.67200
Dy	Dy	0.34663 0.97079 0.00208 1.66000
Dy	Dy	0.12882 0.57010 0.48195 1.67200
H 	H 	0.75360 0.00730 0.20170 0.07100
H 	H 	0.71160 0.23020 0.11950 0.05900
H 	H 	0.77740 0.04580 0.29150 0.07100
H 	H 	0.79930 0.10860 0.38100 0.07100
H 	H 	0.75800 0.37850 0.33210 0.05500
H 	H 	0.82060 0.18480 0.45150 0.05000
H 	H 	0.69070 0.88590 0.12530 0.02300
H 	H 	0.45420 0.74660 0.15110 0.03100
H 	H 	0.53030 0.66670 0.23260 0.07100
H 	H 	0.63550 0.59660 0.31760 0.06900
H 	H 	0.74740 0.55140 0.39590 0.01000
H 	H 	0.93110 0.72610 0.32850 0.03400
H 	H 	0.95520 0.69540 0.63660 0.04000
H 	H 	0.71470 0.56040 0.66300 0.00800
H 	H 	0.61870 0.62540 0.74230 0.09000
H 	H 	0.54200 0.71100 0.82200 0.09200
H 	H 	0.76800 0.89470 0.83020 0.03200
H 	H 	0.49160 0.79930 0.88900 0.03200
H 	H 	0.24640 0.99270 0.79830 0.07100
H 	H 	0.28840 0.76980 0.88050 0.05900
H 	H 	0.22260 0.95420 0.70850 0.07100
H 	H 	0.20070 0.89140 0.61900 0.07100
H 	H 	0.24200 0.62150 0.66790 0.05500
H 	H 	0.17940 0.81520 0.54850 0.05000
H 	H 	0.30930 0.11410 0.87470 0.02300
H 	H 	0.54580 0.25340 0.84890 0.03100
H 	H 	0.46970 0.33330 0.76740 0.07100
H 	H 	0.36450 0.40340 0.68240 0.06900
H 	H 	0.25260 0.44860 0.60410 0.01000
H 	H 	0.06890 0.27390 0.67150 0.03400
H 	H 	0.04480 0.30460 0.36340 0.04000
H 	H 	0.28530 0.43960 0.33700 0.00800
H 	H 	0.38130 0.37460 0.25770 0.09000
H 	H 	0.45800 0.28900 0.17800 0.09200
H 	H 	0.23200 0.10530 0.16980 0.03200
H 	H 	0.50840 0.20070 0.11100 0.03200
C 	C 	0.72410 0.08470 0.09220 0.27700
C 	C 	0.73440 0.11470 0.15080 -0.04700
C 	C 	0.75100 0.05960 0.20340 -0.00900
C 	C 	0.72480 0.19330 0.15350 -0.00600
C 	C 	0.73560 0.21450 0.20780 -0.04300
C 	C 	0.76350 0.08250 0.25740 -0.06600
C 	C 	0.75490 0.16130 0.26010 0.02900
C 	C 	0.76780 0.19770 0.31320 0.03900
C 	C 	0.75450 0.27830 0.30010 -0.04800
C 	C 	0.79170 0.16230 0.37070 -0.07900
C 	C 	0.76690 0.32480 0.34200 0.00300
C 	C 	0.80430 0.20820 0.41290 0.00700
C 	C 	0.79280 0.28880 0.39830 -0.06200
C 	C 	0.80850 0.33870 0.44490 0.29800
C 	C 	0.50330 0.87590 0.08130 0.42900
C 	C 	0.56330 0.82400 0.12930 -0.14200
C 	C 	0.65870 0.84250 0.14550 0.05500
C 	C 	0.51740 0.75850 0.16220 0.05100
C 	C 	0.56230 0.70970 0.21130 -0.11000
C 	C 	0.70340 0.79260 0.19360 -0.08300
C 	C 	0.65730 0.72950 0.22610 0.04700
C 	C 	0.71860 0.68760 0.27850 0.04600
C 	C 	0.80990 0.72460 0.28190 -0.08600
C 	C 	0.69410 0.62200 0.32020 -0.11300
C 	C 	0.76190 0.59490 0.36710 0.05600
C 	C 	0.87320 0.69970 0.32660 0.06600
C 	C 	0.85260 0.63490 0.36970 -0.15300
C 	C 	0.92230 0.60540 0.41800 0.43100
C 	C 	0.90410 0.57620 0.59190 0.45500
C 	C 	0.84390 0.61980 0.64330 -0.14300
C 	C 	0.88940 0.68050 0.65790 0.05300
C 	C 	0.74420 0.60030 0.67390 0.06600
C 	C 	0.83220 0.71780 0.70570 -0.07100
C 	C 	0.68540 0.63950 0.72160 -0.11900
C 	C 	0.73110 0.70010 0.73650 0.04800
C 	C 	0.68460 0.74910 0.78440 0.05200
C 	C 	0.75060 0.80460 0.78780 -0.07200
C 	C 	0.58770 0.74760 0.82270 -0.11800
C 	C 	0.72160 0.85900 0.82860 0.05000
C 	C 	0.55760 0.80110 0.86290 0.06000
C 	C 	0.62290 0.85730 0.86550 -0.13400
C 	C 	0.58480 0.91450 0.91070 0.42900
C 	C 	0.27590 0.91530 0.90780 0.27700
C 	C 	0.26560 0.88530 0.84920 -0.04700
C 	C 	0.24900 0.94040 0.79660 -0.00900
C 	C 	0.27520 0.80670 0.84650 -0.00600
C 	C 	0.26440 0.78550 0.79220 -0.04300
C 	C 	0.23650 0.91750 0.74260 -0.06600
C 	C 	0.24510 0.83870 0.73990 0.02900
C 	C 	0.23220 0.80230 0.68680 0.03900
C 	C 	0.24550 0.72170 0.69990 -0.04800
C 	C 	0.20830 0.83770 0.62930 -0.07900
C 	C 	0.23310 0.67520 0.65800 0.00300
C 	C 	0.19570 0.79180 0.58710 0.00700
C 	C 	0.20720 0.71120 0.60170 -0.06200
C 	C 	0.19150 0.66130 0.55510 0.29800
C 	C 	0.49670 0.12410 0.91870 0.42900
C 	C 	0.43670 0.17600 0.87070 -0.14200
C 	C 	0.34130 0.15750 0.85450 0.05500
C 	C 	0.48260 0.24150 0.83780 0.05100
C 	C 	0.43770 0.29030 0.78870 -0.11000
C 	C 	0.29660 0.20740 0.80640 -0.08300
C 	C 	0.34270 0.27050 0.77390 0.04700
C 	C 	0.28140 0.31240 0.72150 0.04600
C 	C 	0.19010 0.27540 0.71810 -0.08600
C 	C 	0.30590 0.37800 0.67980 -0.11300
C 	C 	0.23810 0.40510 0.63290 0.05600
C 	C 	0.12680 0.30030 0.67340 0.06600
C 	C 	0.14740 0.36510 0.63030 -0.15300
C 	C 	0.07770 0.39460 0.58200 0.43100
C 	C 	0.09590 0.42380 0.40810 0.45500
C 	C 	0.15610 0.38020 0.35670 -0.14300
C 	C 	0.11060 0.31950 0.34210 0.05300
C 	C 	0.25580 0.39970 0.32610 0.06600
C 	C 	0.16780 0.28220 0.29430 -0.07100
C 	C 	0.31460 0.36050 0.27840 -0.11900
C 	C 	0.26890 0.29990 0.26350 0.04800
C 	C 	0.31540 0.25090 0.21560 0.05200
C 	C 	0.24940 0.19540 0.21220 -0.07200
C 	C 	0.41230 0.25240 0.17730 -0.11800
C 	C 	0.27840 0.14100 0.17140 0.05000
C 	C 	0.44240 0.19890 0.13710 0.06000
C 	C 	0.37710 0.14270 0.13450 -0.13400
C 	C 	0.41520 0.08550 0.08930 0.42900
S 	S 	0.72000 0.31060 0.22441 0.29900
S 	S 	0.82070 0.80640 0.22400 0.33500
S 	S 	0.87370 0.79520 0.73480 0.31600
S 	S 	0.28000 0.68940 0.77559 0.29900
S 	S 	0.17930 0.19360 0.77600 0.33500
S 	S 	0.12630 0.20480 0.26520 0.31600
O 	O 	0.71290 0.01470 0.09600 -0.39700
O 	O 	0.72310 0.13330 0.04100 -0.34600
O 	O 	0.84120 0.30390 0.49490 -0.38100
O 	O 	0.79310 0.41000 0.43010 -0.40200
O 	O 	0.79960 0.35570 0.18500 -0.19300
O 	O 	0.60580 0.34460 0.22760 -0.21900
O 	O 	0.55040 0.93260 0.05060 -0.51000
O 	O 	0.41190 0.86390 0.07320 -0.44600
O 	O 	0.90330 0.54500 0.45660 -0.50600
O 	O 	0.00160 0.64230 0.41890 -0.44200
O 	O 	0.79990 0.87470 0.25050 -0.22900
O 	O 	0.92090 0.79610 0.18110 -0.22000
O 	O 	0.98060 0.60500 0.55800 -0.44500
O 	O 	0.86790 0.51370 0.58970 -0.48400
O 	O 	0.64880 0.96110 0.91530 -0.46400
O 	O 	0.87920 0.86310 0.68900 -0.21000
O 	O 	0.96630 0.76750 0.76780 -0.20200
O 	O 	0.49060 0.90780 0.94100 -0.43800
O 	O 	0.28710 0.98530 0.90400 -0.39700
O 	O 	0.27690 0.86670 0.95900 -0.34600
O 	O 	0.15880 0.69610 0.50510 -0.38100
O 	O 	0.20690 0.59000 0.56990 -0.40200
O 	O 	0.20040 0.64430 0.81500 -0.19300
O 	O 	0.39420 0.65540 0.77240 -0.21900
O 	O 	0.44960 0.06740 0.94940 -0.51000
O 	O 	0.58810 0.13610 0.92680 -0.44600
O 	O 	0.09670 0.45500 0.54340 -0.50600
O 	O 	0.99840 0.35770 0.58110 -0.44200
O 	O 	0.20010 0.12530 0.74950 -0.22900
O 	O 	0.07910 0.20390 0.81890 -0.22000
O 	O 	0.01940 0.39500 0.44200 -0.44500
O 	O 	0.13210 0.48630 0.41030 -0.48400
O 	O 	0.35120 0.03890 0.08470 -0.46400
O 	O 	0.12080 0.13690 0.31100 -0.21000
O 	O 	0.03370 0.23250 0.23220 -0.20200
O 	O 	0.50940 0.09220 0.05900 -0.43800
