data_crystal

_cell_length_a 9.55910
_cell_length_b 9.78200
_cell_length_c 18.28800
_cell_angle_alpha 78.75000
_cell_angle_beta  86.28000
_cell_angle_gamma 68.73000

_symmetry_space_group_name_	'P 1'
_symmetry_space_group_name_H-M	'P 1'

loop_
_symmetry_equiv_pos_as_xyz
  x,y,z

loop_
_atom_site_label
_atom_site_type_symbol
_atom_site_fract_x
_atom_site_fract_y
_atom_site_fract_z
_atom_site_charge
Zn	Zn	0.09403 0.09600 0.97434 1.20300
Zn	Zn	0.18201 0.88960 0.14695 1.20900
Zn	Zn	0.90597 0.90400 0.02566 1.20300
Zn	Zn	0.81799 0.11040 0.85305 1.20900
H 	H 	0.96370 0.06610 0.70590 -0.02000
H 	H 	0.05490 0.19430 0.60670 0.08600
H 	H 	0.92340 0.54360 0.70020 0.09700
H 	H 	0.82100 0.41840 0.79920 -0.00400
H 	H 	0.07130 0.55030 0.57440 0.06700
H 	H 	0.87630 0.68430 0.49280 0.02200
H 	H 	0.78000 0.34290 0.47890 0.04000
H 	H 	0.61740 0.27000 0.56440 0.05800
H 	H 	0.53190 0.64030 0.65190 0.06700
H 	H 	0.69460 0.71310 0.56630 0.04600
H 	H 	0.48070 0.46840 0.72230 0.05300
H 	H 	0.49740 0.22920 0.66650 0.06700
H 	H 	0.36660 0.07530 0.73510 0.09800
H 	H 	0.26170 0.99380 0.84050 0.00300
H 	H 	0.14220 0.38530 0.90160 0.00600
H 	H 	0.25970 0.47220 0.79430 0.09500
H 	H 	0.57210 0.53790 0.06680 0.05100
H 	H 	0.87090 0.54450 0.90130 0.03700
H 	H 	0.51370 0.91650 0.91660 0.04300
H 	H 	0.03630 0.93390 0.29410 -0.01900
H 	H 	0.94510 0.80570 0.39330 0.08700
H 	H 	0.07660 0.45640 0.29980 0.09700
H 	H 	0.17900 0.58160 0.20080 -0.00400
H 	H 	0.92870 0.44970 0.42560 0.06700
H 	H 	0.12370 0.31570 0.50720 0.02200
H 	H 	0.22000 0.65710 0.52110 0.04000
H 	H 	0.38260 0.73000 0.43560 0.05800
H 	H 	0.46810 0.35970 0.34810 0.06700
H 	H 	0.30540 0.28690 0.43370 0.04600
H 	H 	0.51930 0.53160 0.27770 0.05300
H 	H 	0.50260 0.77080 0.33350 0.06700
H 	H 	0.63340 0.92470 0.26490 0.09800
H 	H 	0.73830 0.00620 0.15950 0.00300
H 	H 	0.85780 0.61470 0.09840 0.00600
H 	H 	0.74030 0.52780 0.20570 0.09500
H 	H 	0.42790 0.46210 0.93320 0.05100
H 	H 	0.12910 0.45550 0.09870 0.03700
H 	H 	0.48630 0.08350 0.08340 0.04300
C 	C 	0.95020 0.16600 0.70650 0.09900
C 	C 	0.00470 0.24800 0.64390 -0.16600
C 	C 	0.99180 0.39260 0.63270 0.12400
C 	C 	0.92840 0.44700 0.69730 -0.14300
C 	C 	0.86930 0.36860 0.76040 0.07100
C 	C 	0.02540 0.48220 0.56130 -0.12500
C 	C 	0.89890 0.57600 0.49910 0.01800
C 	C 	0.75300 0.53500 0.51430 -0.00000
C 	C 	0.73000 0.40290 0.51380 -0.03100
C 	C 	0.63290 0.35940 0.56480 -0.07800
C 	C 	0.55890 0.44810 0.61640 0.05500
C 	C 	0.58190 0.58030 0.61700 -0.08000
C 	C 	0.67900 0.62370 0.56590 -0.03200
C 	C 	0.49550 0.40900 0.68580 -0.05400
C 	C 	0.46000 0.29850 0.69860 -0.09600
C 	C 	0.35810 0.26320 0.76300 0.11700
C 	C 	0.33380 0.13540 0.77170 -0.16500
C 	C 	0.26260 0.09140 0.83250 0.08200
C 	C 	0.19280 0.32000 0.86900 0.07700
C 	C 	0.26810 0.37160 0.80670 -0.14700
C 	C 	0.52650 0.73630 0.99730 -0.09300
C 	C 	0.60580 0.58880 0.02460 0.02400
C 	C 	0.73940 0.51400 0.98820 -0.09600
C 	C 	0.78370 0.59390 0.92640 0.04900
C 	C 	0.70640 0.74170 0.90010 -0.12600
C 	C 	0.57130 0.81610 0.93500 0.04000
C 	C 	0.38000 0.82070 0.03380 0.35400
C 	C 	0.83040 0.35430 0.01780 0.32100
C 	C 	0.04980 0.83400 0.29350 0.09900
C 	C 	0.99530 0.75200 0.35610 -0.16600
C 	C 	0.00820 0.60740 0.36730 0.12400
C 	C 	0.07160 0.55300 0.30270 -0.14300
C 	C 	0.13070 0.63140 0.23960 0.07100
C 	C 	0.97460 0.51780 0.43870 -0.12500
C 	C 	0.10110 0.42400 0.50090 0.01800
C 	C 	0.24700 0.46500 0.48570 -0.00000
C 	C 	0.27000 0.59710 0.48620 -0.03100
C 	C 	0.36710 0.64060 0.43520 -0.07800
C 	C 	0.44110 0.55190 0.38360 0.05500
C 	C 	0.41810 0.41970 0.38300 -0.08000
C 	C 	0.32100 0.37630 0.43410 -0.03200
C 	C 	0.50450 0.59100 0.31420 -0.05400
C 	C 	0.54000 0.70150 0.30140 -0.09600
C 	C 	0.64190 0.73680 0.23700 0.11700
C 	C 	0.66620 0.86460 0.22830 -0.16500
C 	C 	0.73740 0.90860 0.16750 0.08200
C 	C 	0.80720 0.68000 0.13100 0.07700
C 	C 	0.73190 0.62840 0.19330 -0.14700
C 	C 	0.47350 0.26370 0.00270 -0.09300
C 	C 	0.39420 0.41120 0.97540 0.02400
C 	C 	0.26060 0.48600 0.01180 -0.09600
C 	C 	0.21630 0.40610 0.07360 0.04900
C 	C 	0.29360 0.25830 0.09990 -0.12600
C 	C 	0.42870 0.18390 0.06500 0.04000
C 	C 	0.62000 0.17930 0.96620 0.35400
C 	C 	0.16960 0.64570 0.98220 0.32100
S 	S 	0.75940 0.83040 0.81440 0.50600
S 	S 	0.24060 0.16960 0.18560 0.50600
N 	N 	0.88320 0.22370 0.76380 -0.28300
N 	N 	0.19160 0.17860 0.88320 -0.26000
N 	N 	0.11680 0.77630 0.23620 -0.28300
N 	N 	0.80840 0.82140 0.11680 -0.26000
O 	O 	0.30870 0.95430 0.00640 -0.48900
O 	O 	0.34060 0.75240 0.09610 -0.46200
O 	O 	0.79270 0.27950 0.07270 -0.27800
O 	O 	0.95240 0.29900 0.97880 -0.45600
O 	O 	0.71860 0.99050 0.81910 -0.45100
O 	O 	0.67170 0.81440 0.75770 -0.25900
O 	O 	0.92090 0.75840 0.80730 -0.28000
O 	O 	0.98620 0.99230 0.92540 -0.69100
O 	O 	0.69130 0.04570 0.99360 -0.48900
O 	O 	0.65940 0.24760 0.90390 -0.46200
O 	O 	0.20730 0.72050 0.92730 -0.27800
O 	O 	0.04760 0.70100 0.02120 -0.45600
O 	O 	0.28140 0.00950 0.18090 -0.45100
O 	O 	0.32830 0.18560 0.24230 -0.25900
O 	O 	0.07910 0.24160 0.19270 -0.28000
O 	O 	0.01380 0.00770 0.07460 -0.69100
H 	H 	0.98620 0.88807 0.93628 0.07900
H 	H 	0.01380 0.11193 0.06372 0.07900
