data_crystal

_cell_length_a 18.30850
_cell_length_b 9.07880
_cell_length_c 19.64640
_cell_angle_alpha 90.00000
_cell_angle_beta  97.06800
_cell_angle_gamma 90.00000

_symmetry_space_group_name_	'P 1'
_symmetry_space_group_name_H-M	'P 1'

loop_
_symmetry_equiv_pos_as_xyz
  x,y,z

loop_
_atom_site_label
_atom_site_type_symbol
_atom_site_fract_x
_atom_site_fract_y
_atom_site_fract_z
_atom_site_charge
O 	O 	0.09341 0.59390 0.96614 -0.49700
O 	O 	0.36748 0.55370 0.99047 -0.46100
O 	O 	0.40657 0.32990 0.95942 -0.47400
C 	C 	0.35771 0.42710 0.96656 0.40900
Dy	Dy	0.97154 0.21224 0.99780 1.86200
O 	O 	0.99321 0.95890 0.07480 -0.56200
O 	O 	0.22500 0.46970 0.95546 -0.14600
O 	O 	0.97247 0.17640 0.11941 -0.40900
C 	C 	0.17733 0.26440 0.90267 -0.00800
H 	H 	0.14390 0.19440 0.88330 0.04000
O 	O 	0.03425 0.38100 0.93884 -0.50700
C 	C 	0.98673 0.04150 0.12590 0.39700
C 	C 	0.25443 0.25580 0.90730 -0.03700
H 	H 	0.28190 0.18070 0.89060 0.05500
C 	C 	0.99731 0.83290 0.21319 -0.03400
H 	H 	0.99550 0.75050 0.18490 0.03700
C 	C 	0.09056 0.46210 0.94686 0.45600
C 	C 	0.99539 0.97490 0.19277 -0.02700
C 	C 	0.28106 0.37950 0.94110 -0.00100
C 	C 	0.16066 0.39400 0.93176 -0.03100
O 	O 	0.59341 0.09390 0.96614 -0.49800
O 	O 	0.86748 0.05370 0.99047 -0.45900
O 	O 	0.90657 0.82990 0.95942 -0.48000
C 	C 	0.85771 0.92710 0.96656 0.40300
Dy	Dy	0.47154 0.71224 0.99780 1.89500
O 	O 	0.49321 0.45890 0.07480 -0.56900
O 	O 	0.72500 0.96970 0.95546 -0.14900
O 	O 	0.47247 0.67640 0.11941 -0.41300
C 	C 	0.67733 0.76440 0.90267 -0.00900
H 	H 	0.64390 0.69440 0.88330 0.03900
O 	O 	0.53425 0.88100 0.93884 -0.51700
C 	C 	0.48673 0.54150 0.12590 0.40300
C 	C 	0.75443 0.75580 0.90730 -0.03900
H 	H 	0.78190 0.68070 0.89060 0.05300
C 	C 	0.49731 0.33290 0.21319 -0.02800
H 	H 	0.49550 0.25050 0.18490 0.03500
C 	C 	0.59056 0.96210 0.94686 0.45300
C 	C 	0.49539 0.47490 0.19277 -0.03100
C 	C 	0.78106 0.87950 0.94110 -0.00200
C 	C 	0.66066 0.89400 0.93176 -0.03300
O 	O 	0.90659 0.59390 0.53386 -0.50200
O 	O 	0.63252 0.55370 0.50953 -0.46300
O 	O 	0.59343 0.32990 0.54058 -0.47600
C 	C 	0.64229 0.42710 0.53344 0.40900
Dy	Dy	0.02846 0.21224 0.50220 1.91000
O 	O 	0.00679 0.95890 0.42520 -0.56500
O 	O 	0.77500 0.46970 0.54454 -0.14700
O 	O 	0.02753 0.17640 0.38059 -0.41300
C 	C 	0.82267 0.26440 0.59733 -0.00800
H 	H 	0.85610 0.19440 0.61670 0.03800
O 	O 	0.96575 0.38100 0.56116 -0.52200
C 	C 	0.01327 0.04150 0.37410 0.40100
C 	C 	0.74557 0.25580 0.59270 -0.03800
H 	H 	0.71810 0.18070 0.60940 0.05400
C 	C 	0.00269 0.83290 0.28681 -0.02300
H 	H 	0.00450 0.75050 0.31510 0.03500
C 	C 	0.90944 0.46210 0.55314 0.45800
C 	C 	0.00461 0.97490 0.30723 -0.02900
C 	C 	0.71894 0.37950 0.55890 -0.00200
C 	C 	0.83934 0.39400 0.56824 -0.03500
O 	O 	0.40659 0.09390 0.53386 -0.50100
O 	O 	0.13252 0.05370 0.50953 -0.46300
O 	O 	0.09343 0.82990 0.54058 -0.47100
C 	C 	0.14229 0.92710 0.53344 0.40800
Dy	Dy	0.52846 0.71224 0.50220 1.89400
O 	O 	0.50679 0.45890 0.42520 -0.56900
O 	O 	0.27500 0.96970 0.54454 -0.14700
O 	O 	0.52753 0.67640 0.38059 -0.41300
C 	C 	0.32267 0.76440 0.59733 -0.00800
H 	H 	0.35610 0.69440 0.61670 0.03900
O 	O 	0.46575 0.88100 0.56116 -0.51700
C 	C 	0.51327 0.54150 0.37410 0.40400
C 	C 	0.24557 0.75580 0.59270 -0.03900
H 	H 	0.21810 0.68070 0.60940 0.05500
C 	C 	0.50269 0.33290 0.28681 -0.02800
H 	H 	0.50450 0.25050 0.31510 0.03500
C 	C 	0.40944 0.96210 0.55314 0.45700
C 	C 	0.50461 0.47490 0.30723 -0.03100
C 	C 	0.21894 0.87950 0.55890 -0.00100
C 	C 	0.33934 0.89400 0.56824 -0.03400
O 	O 	0.90659 0.40610 0.03386 -0.49700
O 	O 	0.63252 0.44630 0.00953 -0.46100
O 	O 	0.59343 0.67010 0.04058 -0.47500
C 	C 	0.64229 0.57290 0.03344 0.40900
Dy	Dy	0.02846 0.78776 0.00220 1.88800
O 	O 	0.00679 0.04110 0.92520 -0.55400
O 	O 	0.77500 0.53030 0.04454 -0.14600
O 	O 	0.02753 0.82360 0.88059 -0.40700
C 	C 	0.82267 0.73560 0.09733 -0.00800
H 	H 	0.85610 0.80560 0.11670 0.03900
O 	O 	0.96575 0.61900 0.06116 -0.51500
C 	C 	0.01327 0.95850 0.87410 0.39700
C 	C 	0.74557 0.74420 0.09270 -0.03700
H 	H 	0.71810 0.81930 0.10940 0.05500
C 	C 	0.00269 0.16710 0.78681 -0.01200
H 	H 	0.00450 0.24950 0.81510 0.03300
C 	C 	0.90944 0.53790 0.05314 0.45600
C 	C 	0.00461 0.02510 0.80723 -0.02800
C 	C 	0.71894 0.62050 0.05890 -0.00100
C 	C 	0.83934 0.60600 0.06824 -0.03200
O 	O 	0.40659 0.90610 0.03386 -0.49900
O 	O 	0.13252 0.94630 0.00953 -0.46000
O 	O 	0.09343 0.17010 0.04058 -0.47300
C 	C 	0.14229 0.07290 0.03344 0.40300
Dy	Dy	0.52846 0.28776 0.00220 1.89200
O 	O 	0.50679 0.54110 0.92520 -0.56900
O 	O 	0.27500 0.03030 0.04454 -0.14900
O 	O 	0.52753 0.32360 0.88059 -0.41300
C 	C 	0.32267 0.23560 0.09733 -0.00900
H 	H 	0.35610 0.30560 0.11670 0.03800
O 	O 	0.46575 0.11900 0.06116 -0.51700
C 	C 	0.51327 0.45850 0.87410 0.40400
C 	C 	0.24557 0.24420 0.09270 -0.03900
H 	H 	0.21810 0.31930 0.10940 0.05400
C 	C 	0.50269 0.66710 0.78681 -0.02800
H 	H 	0.50450 0.74950 0.81510 0.03500
C 	C 	0.40944 0.03790 0.05314 0.45400
C 	C 	0.50461 0.52510 0.80723 -0.03100
C 	C 	0.21894 0.12050 0.05890 -0.00100
C 	C 	0.33934 0.10600 0.06824 -0.03300
O 	O 	0.09341 0.40610 0.46614 -0.50200
O 	O 	0.36748 0.44630 0.49047 -0.46200
O 	O 	0.40657 0.67010 0.45942 -0.47600
C 	C 	0.35771 0.57290 0.46656 0.40900
Dy	Dy	0.97154 0.78776 0.49780 1.88000
O 	O 	0.99321 0.04110 0.57480 -0.57200
O 	O 	0.22500 0.53030 0.45546 -0.14700
O 	O 	0.97247 0.82360 0.61941 -0.41500
C 	C 	0.17733 0.73560 0.40267 -0.00800
H 	H 	0.14390 0.80560 0.38330 0.03900
O 	O 	0.03425 0.61900 0.43884 -0.51300
C 	C 	0.98673 0.95850 0.62590 0.40100
C 	C 	0.25443 0.74420 0.40730 -0.03800
H 	H 	0.28190 0.81930 0.39060 0.05500
C 	C 	0.99731 0.16710 0.71319 -0.04300
H 	H 	0.99550 0.24950 0.68490 0.03800
C 	C 	0.09056 0.53790 0.44686 0.45800
C 	C 	0.99539 0.02510 0.69277 -0.03400
C 	C 	0.28106 0.62050 0.44110 -0.00200
C 	C 	0.16066 0.60600 0.43176 -0.03300
O 	O 	0.59341 0.90610 0.46614 -0.50200
O 	O 	0.86748 0.94630 0.49047 -0.46200
O 	O 	0.90657 0.17010 0.45942 -0.47900
C 	C 	0.85771 0.07290 0.46656 0.40900
Dy	Dy	0.47154 0.28776 0.49780 1.89400
O 	O 	0.49321 0.54110 0.57480 -0.56900
O 	O 	0.72500 0.03030 0.45546 -0.14700
O 	O 	0.47247 0.32360 0.61941 -0.41300
C 	C 	0.67733 0.23560 0.40267 -0.00800
H 	H 	0.64390 0.30560 0.38330 0.03900
O 	O 	0.53425 0.11900 0.43884 -0.51700
C 	C 	0.48673 0.45850 0.62590 0.40400
C 	C 	0.75443 0.24420 0.40730 -0.03800
H 	H 	0.78190 0.31930 0.39060 0.05400
C 	C 	0.49731 0.66710 0.71319 -0.02800
H 	H 	0.49550 0.74950 0.68490 0.03500
C 	C 	0.59056 0.03790 0.44686 0.45700
C 	C 	0.49539 0.52510 0.69277 -0.03100
C 	C 	0.78106 0.12050 0.44110 -0.00200
C 	C 	0.66066 0.10600 0.43176 -0.03400
O 	O 	-0.00000 0.06560 0.25000 -0.13400
O 	O 	0.50000 0.56560 0.25000 -0.13300
O 	O 	-0.00000 0.93440 0.75000 -0.12800
O 	O 	0.50000 0.43440 0.75000 -0.13300
