data_crystal

_cell_length_a 13.15870
_cell_length_b 13.15870
_cell_length_c 16.10120
_cell_angle_alpha 90.00000
_cell_angle_beta  90.00000
_cell_angle_gamma 120.00000

_symmetry_space_group_name_	'P 1'
_symmetry_space_group_name_H-M	'P 1'

loop_
_symmetry_equiv_pos_as_xyz
  x,y,z

loop_
_atom_site_label
_atom_site_type_symbol
_atom_site_fract_x
_atom_site_fract_y
_atom_site_fract_z
_atom_site_charge
P 	P 	0.14800 0.67150 0.14720 0.76300
Al	Al	0.12190 0.45900 0.60630 2.40300
Al	Al	0.11270 0.45010 0.24290 2.40500
P 	P 	0.15840 0.68180 0.70640 0.64900
Si	Si	0.21200 0.52760 0.42370 2.69500
O 	O 	0.14580 0.58650 0.21560 -0.85100
O 	O 	0.02030 0.64040 0.12370 -0.76300
O 	O 	0.21910 0.80390 0.17960 -0.74000
O 	O 	0.21830 0.67050 0.06950 -0.86700
O 	O 	0.23710 0.81790 0.68220 -0.77800
O 	O 	0.14790 0.59180 0.63830 -0.89400
O 	O 	0.13800 0.45340 0.50190 -1.29600
O 	O 	0.03600 0.66680 0.73600 -0.71000
O 	O 	0.15070 0.46300 0.33880 -1.32800
O 	O 	0.21440 0.67520 0.79380 -0.89200
O 	O 	0.34400 0.55480 0.42550 -1.37200
P 	P 	0.32850 0.47650 0.14720 0.76400
Al	Al	0.54100 0.66290 0.60630 2.40400
Al	Al	0.54990 0.66260 0.24290 2.40600
P 	P 	0.31820 0.47660 0.70640 0.65000
Si	Si	0.47240 0.68440 0.42370 2.69600
O 	O 	0.41350 0.55930 0.21560 -0.84900
O 	O 	0.35960 0.37990 0.12370 -0.75800
O 	O 	0.19610 0.41520 0.17960 -0.73700
O 	O 	0.32950 0.54780 0.06950 -0.86500
O 	O 	0.18210 0.41920 0.68220 -0.77800
O 	O 	0.40820 0.55610 0.63830 -0.89400
O 	O 	0.54660 0.68460 0.50190 -1.29600
O 	O 	0.33320 0.36920 0.73600 -0.71100
O 	O 	0.53700 0.68770 0.33880 -1.32700
O 	O 	0.32480 0.53920 0.79380 -0.89200
O 	O 	0.44520 0.78920 0.42550 -1.37200
P 	P 	0.52350 0.85200 0.14720 0.76400
Al	Al	0.33710 0.87810 0.60630 2.40400
Al	Al	0.33740 0.88730 0.24290 2.40600
P 	P 	0.52340 0.84160 0.70640 0.65000
Si	Si	0.31560 0.78800 0.42370 2.69600
O 	O 	0.44070 0.85420 0.21560 -0.85000
O 	O 	0.62010 0.97970 0.12370 -0.76100
O 	O 	0.58480 0.78090 0.17960 -0.73700
O 	O 	0.45220 0.78170 0.06950 -0.86500
O 	O 	0.58080 0.76290 0.68220 -0.77800
O 	O 	0.44390 0.85210 0.63830 -0.89400
O 	O 	0.31540 0.86200 0.50190 -1.29600
O 	O 	0.63080 0.96400 0.73600 -0.71100
O 	O 	0.31230 0.84930 0.33880 -1.32800
O 	O 	0.46080 0.78560 0.79380 -0.89200
O 	O 	0.21080 0.65600 0.42550 -1.37200
P 	P 	0.85200 0.32850 0.64720 0.76100
Al	Al	0.87810 0.54100 0.10630 2.40400
Al	Al	0.88730 0.54990 0.74290 2.40500
P 	P 	0.84160 0.31820 0.20640 0.65300
Si	Si	0.78800 0.47240 0.92370 2.28700
O 	O 	0.85420 0.41350 0.71560 -0.85200
O 	O 	0.97970 0.35960 0.62370 -0.78100
O 	O 	0.78090 0.19610 0.67960 -0.75600
O 	O 	0.78170 0.32950 0.56950 -0.90200
O 	O 	0.76290 0.18210 0.18220 -0.75700
O 	O 	0.85210 0.40820 0.13830 -0.86600
O 	O 	0.86200 0.54660 0.00190 -1.09400
O 	O 	0.96400 0.33320 0.23600 -0.68300
O 	O 	0.84930 0.53700 0.83880 -1.27000
O 	O 	0.78560 0.32480 0.29380 -0.85900
O 	O 	0.65600 0.44520 0.92550 -1.26100
P 	P 	0.67150 0.52350 0.64720 0.76100
Al	Al	0.45900 0.33710 0.10630 2.40400
Al	Al	0.45010 0.33740 0.74290 2.40500
P 	P 	0.68180 0.52340 0.20640 0.65300
Si	Si	0.52760 0.31560 0.92370 2.28700
O 	O 	0.58650 0.44070 0.71560 -0.85200
O 	O 	0.64040 0.62010 0.62370 -0.78100
O 	O 	0.80390 0.58480 0.67960 -0.75600
O 	O 	0.67050 0.45220 0.56950 -0.90200
O 	O 	0.81790 0.58080 0.18220 -0.75700
O 	O 	0.59180 0.44390 0.13830 -0.86700
O 	O 	0.45340 0.31540 0.00190 -1.09500
O 	O 	0.66680 0.63080 0.23600 -0.68400
O 	O 	0.46300 0.31230 0.83880 -1.27000
O 	O 	0.67520 0.46080 0.29380 -0.85900
O 	O 	0.55480 0.21080 0.92550 -1.26100
P 	P 	0.47650 0.14800 0.64720 0.76100
Al	Al	0.66290 0.12190 0.10630 2.40400
Al	Al	0.66260 0.11270 0.74290 2.40500
P 	P 	0.47660 0.15840 0.20640 0.65300
Si	Si	0.68440 0.21200 0.92370 2.28600
O 	O 	0.55930 0.14580 0.71560 -0.85200
O 	O 	0.37990 0.02030 0.62370 -0.78100
O 	O 	0.41520 0.21910 0.67960 -0.75600
O 	O 	0.54780 0.21830 0.56950 -0.90200
O 	O 	0.41920 0.23710 0.18220 -0.75800
O 	O 	0.55610 0.14790 0.13830 -0.86600
O 	O 	0.68460 0.13800 0.00190 -1.09400
O 	O 	0.36920 0.03600 0.23600 -0.68300
O 	O 	0.68770 0.15070 0.83880 -1.27000
O 	O 	0.53920 0.21440 0.29380 -0.85900
O 	O 	0.78920 0.34400 0.92550 -1.26100
Al	Al	0.33333 0.66667 0.01550 2.36100
Al	Al	0.33333 0.66667 0.84280 2.34800
Al	Al	0.66667 0.33333 0.51550 2.35600
Al	Al	0.66667 0.33333 0.34280 2.35200
