data_crystal

_cell_length_a 17.99500
_cell_length_b 15.57000
_cell_length_c 12.36000
_cell_angle_alpha 90.00000
_cell_angle_beta  92.60000
_cell_angle_gamma 90.00000

_symmetry_space_group_name_	'P 1'
_symmetry_space_group_name_H-M	'P 1'

loop_
_symmetry_equiv_pos_as_xyz
  x,y,z

loop_
_atom_site_label
_atom_site_type_symbol
_atom_site_fract_x
_atom_site_fract_y
_atom_site_fract_z
_atom_site_charge
Sn	Sn	0.72490 0.53900 0.29970 1.26500
C 	C 	0.76810 0.35830 0.43720 -0.21500
C 	C 	0.65740 0.25090 0.41900 -0.21100
C 	C 	0.79220 0.19150 0.38220 -0.21900
C 	C 	0.80130 0.62610 0.38090 -0.26900
C 	C 	0.61760 0.51800 0.36340 -0.29000
C 	C 	0.74360 0.47250 0.15270 -0.32000
C 	C 	0.56390 0.33040 0.13890 -0.31700
N 	N 	0.77620 0.42540 0.39640 -0.17600
N 	N 	0.60230 0.25520 0.36860 -0.18900
N 	N 	0.81550 0.15620 0.30910 -0.16800
Sn	Sn	0.22490 0.03900 0.29970 1.26100
C 	C 	0.26810 0.85830 0.43720 -0.22600
C 	C 	0.15740 0.75090 0.41900 -0.21800
C 	C 	0.29220 0.69150 0.38220 -0.22700
C 	C 	0.30130 0.12610 0.38090 -0.29200
C 	C 	0.11760 0.01800 0.36340 -0.31600
C 	C 	0.24360 0.97250 0.15270 -0.33100
C 	C 	0.06390 0.83040 0.13890 -0.34800
N 	N 	0.27620 0.92540 0.39640 -0.18200
N 	N 	0.10230 0.75520 0.36860 -0.19800
N 	N 	0.31550 0.65620 0.30910 -0.17500
Sn	Sn	0.27510 0.53900 0.20030 1.25900
C 	C 	0.23190 0.35830 0.06280 -0.26600
C 	C 	0.34260 0.25090 0.08100 -0.24500
C 	C 	0.20780 0.19150 0.11780 -0.26500
C 	C 	0.19870 0.62610 0.11910 -0.33100
C 	C 	0.38240 0.51800 0.13660 -0.31800
C 	C 	0.25640 0.47250 0.34730 -0.29900
C 	C 	0.43610 0.33040 0.36110 -0.28700
N 	N 	0.22380 0.42540 0.10360 -0.19000
N 	N 	0.39770 0.25520 0.13140 -0.19200
N 	N 	0.18450 0.15620 0.19090 -0.17800
Sn	Sn	0.77510 0.03900 0.20030 1.26000
C 	C 	0.73190 0.85830 0.06280 -0.25800
C 	C 	0.84260 0.75090 0.08100 -0.23300
C 	C 	0.70780 0.69150 0.11780 -0.25600
C 	C 	0.69870 0.12610 0.11910 -0.32300
C 	C 	0.88240 0.01800 0.13660 -0.29100
C 	C 	0.75640 0.97250 0.34730 -0.28900
C 	C 	0.93610 0.83040 0.36110 -0.23000
N 	N 	0.72380 0.92540 0.10360 -0.18600
N 	N 	0.89770 0.75520 0.13140 -0.16700
N 	N 	0.68450 0.65620 0.19090 -0.17200
Sn	Sn	0.27510 0.46100 0.70030 1.26500
C 	C 	0.23190 0.64170 0.56280 -0.22400
C 	C 	0.34260 0.74910 0.58100 -0.21000
C 	C 	0.20780 0.80850 0.61780 -0.22800
C 	C 	0.19870 0.37390 0.61910 -0.29400
C 	C 	0.38240 0.48200 0.63660 -0.27900
C 	C 	0.25640 0.52750 0.84730 -0.25800
C 	C 	0.43610 0.66960 0.86110 -0.25600
N 	N 	0.22380 0.57460 0.60360 -0.18200
N 	N 	0.39770 0.74480 0.63140 -0.18900
N 	N 	0.18450 0.84380 0.69090 -0.17200
Sn	Sn	0.77510 0.96100 0.70030 1.26500
C 	C 	0.73190 0.14170 0.56280 -0.21800
C 	C 	0.84260 0.24910 0.58100 -0.20000
C 	C 	0.70780 0.30850 0.61780 -0.21900
C 	C 	0.69870 0.87390 0.61910 -0.28400
C 	C 	0.88240 0.98200 0.63660 -0.25100
C 	C 	0.75640 0.02750 0.84730 -0.24700
C 	C 	0.93610 0.16960 0.86110 -0.19900
N 	N 	0.72380 0.07460 0.60360 -0.17900
N 	N 	0.89770 0.24480 0.63140 -0.16400
N 	N 	0.68450 0.34380 0.69090 -0.16600
Sn	Sn	0.72490 0.46100 0.79970 1.26900
C 	C 	0.76810 0.64170 0.93720 -0.15300
C 	C 	0.65740 0.74910 0.91900 -0.15600
C 	C 	0.79220 0.80850 0.88220 -0.16200
C 	C 	0.80130 0.37390 0.88090 -0.23200
C 	C 	0.61760 0.48200 0.86340 -0.25100
C 	C 	0.74360 0.52750 0.65270 -0.27900
C 	C 	0.56390 0.66960 0.63890 -0.28600
N 	N 	0.77620 0.57460 0.89640 -0.17400
N 	N 	0.60230 0.74480 0.86860 -0.19200
N 	N 	0.81550 0.84380 0.80910 -0.16800
Sn	Sn	0.22490 0.96100 0.79970 1.26500
C 	C 	0.26810 0.14170 0.93720 -0.16000
C 	C 	0.15740 0.24910 0.91900 -0.16000
C 	C 	0.29220 0.30850 0.88220 -0.16700
C 	C 	0.30130 0.87390 0.88090 -0.25600
C 	C 	0.11760 0.98200 0.86340 -0.28000
C 	C 	0.24360 0.02750 0.65270 -0.29100
C 	C 	0.06390 0.16960 0.63890 -0.31900
N 	N 	0.27620 0.07460 0.89640 -0.17900
N 	N 	0.10230 0.24480 0.86860 -0.20100
N 	N 	0.31550 0.34380 0.80910 -0.17500
Sn	Sn	0.50000 0.25940 0.25000 1.25800
C 	C 	0.50000 0.11720 0.25000 -0.29200
Sn	Sn	0.00000 0.75940 0.25000 1.22900
C 	C 	-0.00000 0.61720 0.25000 -0.34000
Sn	Sn	0.50000 0.74060 0.75000 1.26200
C 	C 	0.50000 0.88280 0.75000 -0.26400
Sn	Sn	0.00000 0.24060 0.75000 1.23200
C 	C 	0.00000 0.38280 0.75000 -0.31100
Fe	Fe	0.75000 0.25000 0.50000 1.18600
Fe	Fe	0.25000 0.25000 -0.00000 1.13300
Fe	Fe	0.25000 0.75000 0.50000 1.18600
Fe	Fe	0.75000 0.75000 -0.00000 1.13500
