data_crystal

_cell_length_a 20.30670
_cell_length_b 20.30670
_cell_length_c 20.30670
_cell_angle_alpha 109.47120
_cell_angle_beta  109.47120
_cell_angle_gamma 109.47120

_symmetry_space_group_name_	'P 1'
_symmetry_space_group_name_H-M	'P 1'

loop_
_symmetry_equiv_pos_as_xyz
  x,y,z

loop_
_atom_site_label
_atom_site_type_symbol
_atom_site_fract_x
_atom_site_fract_y
_atom_site_fract_z
_atom_site_charge
H 	H 	0.24520 0.58870 0.46410 -0.02500
H 	H 	0.31060 0.53020 0.40140 0.03800
C 	C 	0.26130 0.54820 0.47970 0.02400
C 	C 	0.29820 0.51560 0.44400 -0.07100
H 	H 	0.87540 0.41130 0.65650 -0.02500
H 	H 	0.87120 0.46980 0.78040 0.03700
C 	C 	0.93150 0.45180 0.71310 0.03800
C 	C 	0.92840 0.48440 0.78260 -0.04600
H 	H 	0.12460 0.78110 0.53590 -0.02300
H 	H 	0.12880 0.90920 0.59860 0.04200
C 	C 	0.06850 0.78160 0.52030 0.01900
C 	C 	0.07160 0.85420 0.55600 -0.06100
H 	H 	0.75480 0.21890 0.34350 -0.02500
H 	H 	0.68940 0.09080 0.21960 0.03600
C 	C 	0.73870 0.21840 0.28690 0.02500
C 	C 	0.70180 0.14580 0.21740 -0.07000
H 	H 	0.34350 0.58870 0.12460 -0.02500
H 	H 	0.21960 0.53020 0.12880 0.03700
C 	C 	0.28690 0.54820 0.06850 0.01900
C 	C 	0.21740 0.51560 0.07160 -0.06600
H 	H 	0.53590 0.41130 0.75480 -0.02400
H 	H 	0.59860 0.46980 0.68940 0.04100
C 	C 	0.52030 0.45180 0.73870 0.02700
C 	C 	0.55600 0.48440 0.70180 -0.06800
H 	H 	0.65650 0.78110 0.24520 -0.02200
H 	H 	0.78040 0.90920 0.31060 0.04400
C 	C 	0.71310 0.78160 0.26130 0.02400
C 	C 	0.78260 0.85420 0.29820 -0.06300
H 	H 	0.46410 0.21890 0.87540 -0.02500
H 	H 	0.40140 0.09080 0.87120 0.03400
C 	C 	0.47970 0.21840 0.93150 0.03900
C 	C 	0.44400 0.14580 0.92840 -0.04800
Zn	Zn	0.22104 0.61052 0.61052 1.14700
Zn	Zn	-0.00000 0.38948 0.61052 1.14200
C 	C 	0.31900 0.46380 0.46380 0.00900
C 	C 	0.36700 0.43490 0.43490 0.11700
N 	N 	0.24480 0.53230 0.53230 -0.26300
C 	C 	0.00000 0.53620 0.85520 -0.01400
C 	C 	0.00000 0.56510 0.93210 0.12500
N 	N 	0.00000 0.46770 0.71250 -0.27400
C 	C 	0.00000 0.85520 0.53620 -0.01400
C 	C 	0.00000 0.93210 0.56510 0.12500
N 	N 	-0.00000 0.71250 0.46770 -0.27400
C 	C 	0.68100 0.14480 0.14480 0.00900
C 	C 	0.63300 0.06790 0.06790 0.11400
N 	N 	0.75520 0.28750 0.28750 -0.26200
N 	N 	0.15090 0.62620 0.52470 -0.23000
C 	C 	0.89850 0.37380 0.52470 -0.23500
N 	N 	0.47530 0.62620 0.10150 -0.23200
C 	C 	0.47530 0.37380 0.84910 -0.24400
N 	N 	0.38870 0.38870 0.45960 -0.14800
N 	N 	0.07090 0.61130 -0.00000 -0.15900
N 	N 	0.92910 0.92910 0.54040 -0.13100
N 	N 	0.61130 0.07090 -0.00000 -0.15900
H 	H 	0.46410 0.24520 0.58870 -0.02400
H 	H 	0.40140 0.31060 0.53020 0.03900
C 	C 	0.47970 0.26130 0.54820 0.02500
C 	C 	0.44400 0.29820 0.51560 -0.07000
H 	H 	0.65650 0.87540 0.41130 -0.02400
H 	H 	0.78040 0.87120 0.46980 0.03800
C 	C 	0.71310 0.93150 0.45180 0.03900
C 	C 	0.78260 0.92840 0.48440 -0.04500
H 	H 	0.53590 0.12460 0.78110 -0.02200
H 	H 	0.59860 0.12880 0.90920 0.04300
C 	C 	0.52030 0.06850 0.78160 0.02000
C 	C 	0.55600 0.07160 0.85420 -0.06000
H 	H 	0.34350 0.75480 0.21890 -0.02400
H 	H 	0.21960 0.68940 0.09080 0.03700
C 	C 	0.28690 0.73870 0.21840 0.02600
C 	C 	0.21740 0.70180 0.14580 -0.06900
H 	H 	0.12460 0.34350 0.58870 -0.02400
H 	H 	0.12880 0.21960 0.53020 0.03800
C 	C 	0.06850 0.28690 0.54820 0.02000
C 	C 	0.07160 0.21740 0.51560 -0.06500
H 	H 	0.75480 0.53590 0.41130 -0.02300
H 	H 	0.68940 0.59860 0.46980 0.04100
C 	C 	0.73870 0.52030 0.45180 0.02700
C 	C 	0.70180 0.55600 0.48440 -0.06800
H 	H 	0.24520 0.65650 0.78110 -0.02200
H 	H 	0.31060 0.78040 0.90920 0.04400
C 	C 	0.26130 0.71310 0.78160 0.02400
C 	C 	0.29820 0.78260 0.85420 -0.06300
H 	H 	0.87540 0.46410 0.21890 -0.02500
H 	H 	0.87120 0.40140 0.09080 0.03400
C 	C 	0.93150 0.47970 0.21840 0.03900
C 	C 	0.92840 0.44400 0.14580 -0.04800
Zn	Zn	0.61052 0.22104 0.61052 1.14700
Zn	Zn	0.61052 0.00000 0.38948 1.14200
C 	C 	0.46380 0.31900 0.46380 0.00900
C 	C 	0.43490 0.36700 0.43490 0.11700
N 	N 	0.53230 0.24480 0.53230 -0.26300
C 	C 	0.85520 -0.00000 0.53620 -0.01400
C 	C 	0.93210 0.00000 0.56510 0.12500
N 	N 	0.71250 0.00000 0.46770 -0.27400
C 	C 	0.53620 0.00000 0.85520 -0.01400
C 	C 	0.56510 0.00000 0.93210 0.12500
N 	N 	0.46770 0.00000 0.71250 -0.27400
C 	C 	0.14480 0.68100 0.14480 0.00900
C 	C 	0.06790 0.63300 0.06790 0.11400
N 	N 	0.28750 0.75520 0.28750 -0.26200
N 	N 	0.52470 0.15090 0.62620 -0.23000
C 	C 	0.52470 0.89850 0.37380 -0.23500
N 	N 	0.10150 0.47530 0.62620 -0.23200
C 	C 	0.84910 0.47530 0.37380 -0.24400
N 	N 	0.45960 0.38870 0.38870 -0.14800
N 	N 	-0.00000 0.07090 0.61130 -0.15900
N 	N 	0.54040 0.92910 0.92910 -0.13100
N 	N 	-0.00000 0.61130 0.07090 -0.15900
H 	H 	0.58870 0.46410 0.24520 -0.02400
H 	H 	0.53020 0.40140 0.31060 0.03900
C 	C 	0.54820 0.47970 0.26130 0.02500
C 	C 	0.51560 0.44400 0.29820 -0.07000
H 	H 	0.41130 0.65650 0.87540 -0.02400
H 	H 	0.46980 0.78040 0.87120 0.03800
C 	C 	0.45180 0.71310 0.93150 0.03900
C 	C 	0.48440 0.78260 0.92840 -0.04500
H 	H 	0.78110 0.53590 0.12460 -0.02200
H 	H 	0.90920 0.59860 0.12880 0.04300
C 	C 	0.78160 0.52030 0.06850 0.02000
C 	C 	0.85420 0.55600 0.07160 -0.06000
H 	H 	0.21890 0.34350 0.75480 -0.02400
H 	H 	0.09080 0.21960 0.68940 0.03700
C 	C 	0.21840 0.28690 0.73870 0.02600
C 	C 	0.14580 0.21740 0.70180 -0.06900
H 	H 	0.58870 0.12460 0.34350 -0.02400
H 	H 	0.53020 0.12880 0.21960 0.03800
C 	C 	0.54820 0.06850 0.28690 0.02000
C 	C 	0.51560 0.07160 0.21740 -0.06500
H 	H 	0.41130 0.75480 0.53590 -0.02300
H 	H 	0.46980 0.68940 0.59860 0.04100
C 	C 	0.45180 0.73870 0.52030 0.02700
C 	C 	0.48440 0.70180 0.55600 -0.06800
H 	H 	0.78110 0.24520 0.65650 -0.02200
H 	H 	0.90920 0.31060 0.78040 0.04400
C 	C 	0.78160 0.26130 0.71310 0.02400
C 	C 	0.85420 0.29820 0.78260 -0.06300
H 	H 	0.21890 0.87540 0.46410 -0.02500
H 	H 	0.09080 0.87120 0.40140 0.03400
C 	C 	0.21840 0.93150 0.47970 0.03900
C 	C 	0.14580 0.92840 0.44400 -0.04800
Zn	Zn	0.61052 0.61052 0.22104 1.14700
Zn	Zn	0.38948 0.61052 -0.00000 1.14200
C 	C 	0.46380 0.46380 0.31900 0.00900
C 	C 	0.43490 0.43490 0.36700 0.11700
N 	N 	0.53230 0.53230 0.24480 -0.26300
C 	C 	0.53620 0.85520 -0.00000 -0.01400
C 	C 	0.56510 0.93210 -0.00000 0.12500
N 	N 	0.46770 0.71250 -0.00000 -0.27400
C 	C 	0.85520 0.53620 -0.00000 -0.01400
C 	C 	0.93210 0.56510 -0.00000 0.12500
N 	N 	0.71250 0.46770 -0.00000 -0.27400
C 	C 	0.14480 0.14480 0.68100 0.00900
C 	C 	0.06790 0.06790 0.63300 0.11400
N 	N 	0.28750 0.28750 0.75520 -0.26200
N 	N 	0.62620 0.52470 0.15090 -0.23000
C 	C 	0.37380 0.52470 0.89850 -0.23500
N 	N 	0.62620 0.10150 0.47530 -0.23200
C 	C 	0.37380 0.84910 0.47530 -0.24400
N 	N 	0.38870 0.45960 0.38870 -0.14800
N 	N 	0.61130 0.00000 0.07090 -0.15900
N 	N 	0.92910 0.54040 0.92910 -0.13100
N 	N 	0.07090 0.00000 0.61130 -0.15900
H 	H 	0.75480 0.41130 0.53590 -0.02300
H 	H 	0.68940 0.46980 0.59860 0.04200
C 	C 	0.73870 0.45180 0.52030 0.02800
C 	C 	0.70180 0.48440 0.55600 -0.06800
H 	H 	0.12460 0.58870 0.34350 -0.02300
H 	H 	0.12880 0.53020 0.21960 0.03800
C 	C 	0.06850 0.54820 0.28690 0.02000
C 	C 	0.07160 0.51560 0.21740 -0.06400
H 	H 	0.87540 0.21890 0.46410 -0.02500
H 	H 	0.87120 0.09080 0.40140 0.03400
C 	C 	0.93150 0.21840 0.47970 0.03800
C 	C 	0.92840 0.14580 0.44400 -0.04800
H 	H 	0.24520 0.78110 0.65650 -0.02300
H 	H 	0.31060 0.90920 0.78040 0.04500
C 	C 	0.26130 0.78160 0.71310 0.02500
C 	C 	0.29820 0.85420 0.78260 -0.06300
H 	H 	0.65650 0.41130 0.87540 -0.02400
H 	H 	0.78040 0.46980 0.87120 0.03800
C 	C 	0.71310 0.45180 0.93150 0.03900
C 	C 	0.78260 0.48440 0.92840 -0.04500
H 	H 	0.46410 0.58870 0.24520 -0.02400
H 	H 	0.40140 0.53020 0.31060 0.03900
C 	C 	0.47970 0.54820 0.26130 0.02500
C 	C 	0.44400 0.51560 0.29820 -0.06900
H 	H 	0.34350 0.21890 0.75480 -0.02300
H 	H 	0.21960 0.09080 0.68940 0.03700
C 	C 	0.28690 0.21840 0.73870 0.02600
C 	C 	0.21740 0.14580 0.70180 -0.06900
H 	H 	0.53590 0.78110 0.12460 -0.02200
H 	H 	0.59860 0.90920 0.12880 0.04400
C 	C 	0.52030 0.78160 0.06850 0.02100
C 	C 	0.55600 0.85420 0.07160 -0.06000
Zn	Zn	0.77896 0.38948 0.38948 1.14700
Zn	Zn	-0.00000 0.61052 0.38948 1.14300
C 	C 	0.68100 0.53620 0.53620 0.01200
C 	C 	0.63300 0.56510 0.56510 0.12000
N 	N 	0.75520 0.46770 0.46770 -0.26200
C 	C 	0.00000 0.46380 0.14480 -0.01200
C 	C 	-0.00000 0.43490 0.06790 0.10300
N 	N 	-0.00000 0.53230 0.28750 -0.27400
C 	C 	0.00000 0.14480 0.46380 -0.01200
C 	C 	-0.00000 0.06790 0.43490 0.10300
N 	N 	-0.00000 0.28750 0.53230 -0.27400
C 	C 	0.31900 0.85520 0.85520 0.00300
C 	C 	0.36700 0.93210 0.93210 0.15500
N 	N 	0.24480 0.71250 0.71250 -0.26200
N 	N 	0.84910 0.37380 0.47530 -0.23100
C 	C 	0.10150 0.62620 0.47530 -0.25200
N 	N 	0.52470 0.37380 0.89850 -0.22400
C 	C 	0.52470 0.62620 0.15090 -0.24900
N 	N 	0.61130 0.61130 0.54040 -0.14700
N 	N 	0.92910 0.38870 -0.00000 -0.15300
N 	N 	0.07090 0.07090 0.45960 -0.14700
N 	N 	0.38870 0.92910 -0.00000 -0.15300
H 	H 	0.53590 0.75480 0.41130 -0.02300
H 	H 	0.59860 0.68940 0.46980 0.04200
C 	C 	0.52030 0.73870 0.45180 0.02800
C 	C 	0.55600 0.70180 0.48440 -0.06800
H 	H 	0.34350 0.12460 0.58870 -0.02300
H 	H 	0.21960 0.12880 0.53020 0.03800
C 	C 	0.28690 0.06850 0.54820 0.02000
C 	C 	0.21740 0.07160 0.51560 -0.06400
H 	H 	0.46410 0.87540 0.21890 -0.02500
H 	H 	0.40140 0.87120 0.09080 0.03400
C 	C 	0.47970 0.93150 0.21840 0.03800
C 	C 	0.44400 0.92840 0.14580 -0.04800
H 	H 	0.65650 0.24520 0.78110 -0.02300
H 	H 	0.78040 0.31060 0.90920 0.04500
C 	C 	0.71310 0.26130 0.78160 0.02500
C 	C 	0.78260 0.29820 0.85420 -0.06300
H 	H 	0.87540 0.65650 0.41130 -0.02400
H 	H 	0.87120 0.78040 0.46980 0.03800
C 	C 	0.93150 0.71310 0.45180 0.03900
C 	C 	0.92840 0.78260 0.48440 -0.04500
H 	H 	0.24520 0.46410 0.58870 -0.02400
H 	H 	0.31060 0.40140 0.53020 0.03900
C 	C 	0.26130 0.47970 0.54820 0.02500
C 	C 	0.29820 0.44400 0.51560 -0.06900
H 	H 	0.75480 0.34350 0.21890 -0.02300
H 	H 	0.68940 0.21960 0.09080 0.03700
C 	C 	0.73870 0.28690 0.21840 0.02600
C 	C 	0.70180 0.21740 0.14580 -0.06900
H 	H 	0.12460 0.53590 0.78110 -0.02200
H 	H 	0.12880 0.59860 0.90920 0.04400
C 	C 	0.06850 0.52030 0.78160 0.02100
C 	C 	0.07160 0.55600 0.85420 -0.06000
Zn	Zn	0.38948 0.77896 0.38948 1.14700
Zn	Zn	0.38948 0.00000 0.61052 1.14300
C 	C 	0.53620 0.68100 0.53620 0.01200
C 	C 	0.56510 0.63300 0.56510 0.12000
N 	N 	0.46770 0.75520 0.46770 -0.26200
C 	C 	0.14480 0.00000 0.46380 -0.01200
C 	C 	0.06790 0.00000 0.43490 0.10300
N 	N 	0.28750 0.00000 0.53230 -0.27400
C 	C 	0.46380 0.00000 0.14480 -0.01200
C 	C 	0.43490 0.00000 0.06790 0.10300
N 	N 	0.53230 0.00000 0.28750 -0.27400
C 	C 	0.85520 0.31900 0.85520 0.00300
C 	C 	0.93210 0.36700 0.93210 0.15500
N 	N 	0.71250 0.24480 0.71250 -0.26200
N 	N 	0.47530 0.84910 0.37380 -0.23100
C 	C 	0.47530 0.10150 0.62620 -0.25200
N 	N 	0.89850 0.52470 0.37380 -0.22400
C 	C 	0.15090 0.52470 0.62620 -0.24900
N 	N 	0.54040 0.61130 0.61130 -0.14700
N 	N 	-0.00000 0.92910 0.38870 -0.15300
N 	N 	0.45960 0.07090 0.07090 -0.14700
N 	N 	-0.00000 0.38870 0.92910 -0.15300
H 	H 	0.41130 0.53590 0.75480 -0.02300
H 	H 	0.46980 0.59860 0.68940 0.04200
C 	C 	0.45180 0.52030 0.73870 0.02800
C 	C 	0.48440 0.55600 0.70180 -0.06800
H 	H 	0.58870 0.34350 0.12460 -0.02300
H 	H 	0.53020 0.21960 0.12880 0.03800
C 	C 	0.54820 0.28690 0.06850 0.02000
C 	C 	0.51560 0.21740 0.07160 -0.06400
H 	H 	0.21890 0.46410 0.87540 -0.02500
H 	H 	0.09080 0.40140 0.87120 0.03400
C 	C 	0.21840 0.47970 0.93150 0.03800
C 	C 	0.14580 0.44400 0.92840 -0.04800
H 	H 	0.78110 0.65650 0.24520 -0.02300
H 	H 	0.90920 0.78040 0.31060 0.04500
C 	C 	0.78160 0.71310 0.26130 0.02500
C 	C 	0.85420 0.78260 0.29820 -0.06300
H 	H 	0.41130 0.87540 0.65650 -0.02400
H 	H 	0.46980 0.87120 0.78040 0.03800
C 	C 	0.45180 0.93150 0.71310 0.03900
C 	C 	0.48440 0.92840 0.78260 -0.04500
H 	H 	0.58870 0.24520 0.46410 -0.02400
H 	H 	0.53020 0.31060 0.40140 0.03900
C 	C 	0.54820 0.26130 0.47970 0.02500
C 	C 	0.51560 0.29820 0.44400 -0.06900
H 	H 	0.21890 0.75480 0.34350 -0.02300
H 	H 	0.09080 0.68940 0.21960 0.03700
C 	C 	0.21840 0.73870 0.28690 0.02600
C 	C 	0.14580 0.70180 0.21740 -0.06900
H 	H 	0.78110 0.12460 0.53590 -0.02200
H 	H 	0.90920 0.12880 0.59860 0.04400
C 	C 	0.78160 0.06850 0.52030 0.02100
C 	C 	0.85420 0.07160 0.55600 -0.06000
Zn	Zn	0.38948 0.38948 0.77896 1.14700
Zn	Zn	0.61052 0.38948 -0.00000 1.14300
C 	C 	0.53620 0.53620 0.68100 0.01200
C 	C 	0.56510 0.56510 0.63300 0.12000
N 	N 	0.46770 0.46770 0.75520 -0.26200
C 	C 	0.46380 0.14480 -0.00000 -0.01200
C 	C 	0.43490 0.06790 -0.00000 0.10300
N 	N 	0.53230 0.28750 -0.00000 -0.27400
C 	C 	0.14480 0.46380 -0.00000 -0.01200
C 	C 	0.06790 0.43490 -0.00000 0.10300
N 	N 	0.28750 0.53230 -0.00000 -0.27400
C 	C 	0.85520 0.85520 0.31900 0.00300
C 	C 	0.93210 0.93210 0.36700 0.15500
N 	N 	0.71250 0.71250 0.24480 -0.26200
N 	N 	0.37380 0.47530 0.84910 -0.23100
C 	C 	0.62620 0.47530 0.10150 -0.25200
N 	N 	0.37380 0.89850 0.52470 -0.22400
C 	C 	0.62620 0.15090 0.52470 -0.24900
N 	N 	0.61130 0.54040 0.61130 -0.14700
N 	N 	0.38870 -0.00000 0.92910 -0.15300
N 	N 	0.07090 0.45960 0.07090 -0.14700
N 	N 	0.92910 0.00000 0.38870 -0.15300
