data_crystal

_cell_length_a 10.05800
_cell_length_b 21.86000
_cell_length_c 13.98900
_cell_angle_alpha 91.48100
_cell_angle_beta  90.00000
_cell_angle_gamma 90.00000

_symmetry_space_group_name_	'P 1'
_symmetry_space_group_name_H-M	'P 1'

loop_
_symmetry_equiv_pos_as_xyz
  x,y,z

loop_
_atom_site_label
_atom_site_type_symbol
_atom_site_fract_x
_atom_site_fract_y
_atom_site_fract_z
_atom_site_charge
Sm	Sm	0.43840 0.75971 0.76824 2.07400
Sm	Sm	0.75039 0.25103 0.47348 2.23900
Sm	Sm	0.93840 0.24029 0.73176 2.07100
Sm	Sm	0.25039 0.74897 0.02652 2.23400
Sm	Sm	0.56160 0.24029 0.23176 2.07400
Sm	Sm	0.24961 0.74897 0.52652 2.23900
Sm	Sm	0.06160 0.75971 0.26824 2.07100
Sm	Sm	0.74961 0.25103 0.97348 2.23400
H 	H 	0.31660 0.92190 0.56000 0.20000
H 	H 	0.46380 0.90950 0.52950 0.19600
H 	H 	0.64410 0.96680 0.63550 0.08000
H 	H 	0.70470 0.06210 0.68520 0.06300
H 	H 	0.32460 0.11450 0.68280 0.04900
H 	H 	0.26720 0.01710 0.62590 0.08800
H 	H 	0.48380 0.18510 0.73710 0.16900
H 	H 	0.61880 0.15980 0.77600 0.17800
H 	H 	0.00260 0.65830 0.78730 0.16200
H 	H 	0.14350 0.62990 0.80490 0.16700
H 	H 	0.83770 0.59590 0.70850 0.04300
H 	H 	0.77230 0.50580 0.63420 0.08700
H 	H 	0.14690 0.45430 0.61710 0.08000
H 	H 	0.21290 0.54400 0.68820 0.05800
H 	H 	0.81310 0.41450 0.55410 0.20800
H 	H 	0.95570 0.40470 0.51230 0.20700
H 	H 	0.58640 0.61660 0.64890 0.18900
H 	H 	0.65160 0.63430 0.55150 0.17700
H 	H 	0.46320 0.52400 0.66010 0.08000
H 	H 	0.59480 0.57250 0.40560 0.06500
H 	H 	0.70020 0.87750 0.98850 0.20300
H 	H 	0.63370 0.87240 0.08950 0.20100
H 	H 	0.50360 0.93160 0.87220 0.08200
H 	H 	0.58230 0.97220 0.14580 0.07700
H 	H 	0.81660 0.07810 0.94000 0.19600
H 	H 	0.96380 0.09050 0.97050 0.19100
H 	H 	0.14410 0.03320 0.86450 0.07500
H 	H 	0.20470 0.93790 0.81480 0.06800
H 	H 	0.82460 0.88550 0.81720 0.05400
H 	H 	0.76720 0.98290 0.87410 0.08300
H 	H 	0.98380 0.81490 0.76290 0.16700
H 	H 	0.11880 0.84020 0.72400 0.17800
H 	H 	0.50260 0.34170 0.71270 0.15900
H 	H 	0.64350 0.37010 0.69510 0.16400
H 	H 	0.33770 0.40410 0.79150 0.04000
H 	H 	0.27230 0.49420 0.86580 0.09100
H 	H 	0.64690 0.54570 0.88290 0.08400
H 	H 	0.71290 0.45600 0.81180 0.05500
H 	H 	0.31310 0.58550 0.94590 0.21100
H 	H 	0.45570 0.59530 0.98770 0.21000
H 	H 	0.08640 0.38340 0.85110 0.19000
H 	H 	0.15160 0.36570 0.94850 0.17800
H 	H 	0.96320 0.47600 0.83990 0.08100
H 	H 	0.09480 0.42750 0.09440 0.06600
H 	H 	0.20020 0.12250 0.51150 0.20500
H 	H 	0.13370 0.12760 0.41050 0.20100
H 	H 	0.00360 0.06840 0.62780 0.08300
H 	H 	0.08230 0.02780 0.35420 0.07600
H 	H 	0.68340 0.07810 0.44000 0.20000
H 	H 	0.53620 0.09050 0.47050 0.19600
H 	H 	0.35590 0.03320 0.36450 0.08000
H 	H 	0.29530 0.93790 0.31480 0.06300
H 	H 	0.67540 0.88550 0.31720 0.04900
H 	H 	0.73280 0.98290 0.37410 0.08800
H 	H 	0.51620 0.81490 0.26290 0.16900
H 	H 	0.38120 0.84020 0.22400 0.17800
H 	H 	0.99740 0.34170 0.21270 0.16200
H 	H 	0.85650 0.37010 0.19510 0.16700
H 	H 	0.16230 0.40410 0.29150 0.04300
H 	H 	0.22770 0.49420 0.36580 0.08700
H 	H 	0.85310 0.54570 0.38290 0.08000
H 	H 	0.78710 0.45600 0.31180 0.05800
H 	H 	0.18690 0.58550 0.44590 0.20800
H 	H 	0.04430 0.59530 0.48770 0.20700
H 	H 	0.41360 0.38340 0.35110 0.18900
H 	H 	0.34840 0.36570 0.44850 0.17700
H 	H 	0.53680 0.47600 0.33990 0.08000
H 	H 	0.40520 0.42750 0.59440 0.06500
H 	H 	0.29980 0.12250 0.01150 0.20300
H 	H 	0.36630 0.12760 0.91050 0.20100
H 	H 	0.49640 0.06840 0.12780 0.08200
H 	H 	0.41770 0.02780 0.85420 0.07700
H 	H 	0.18340 0.92190 0.06000 0.19600
H 	H 	0.03620 0.90950 0.02950 0.19100
H 	H 	0.85590 0.96680 0.13550 0.07500
H 	H 	0.79530 0.06210 0.18520 0.06800
H 	H 	0.17540 0.11450 0.18280 0.05400
H 	H 	0.23280 0.01710 0.12590 0.08300
H 	H 	0.01620 0.18510 0.23710 0.16700
H 	H 	0.88120 0.15980 0.27600 0.17800
H 	H 	0.49740 0.65830 0.28730 0.15900
H 	H 	0.35650 0.62990 0.30490 0.16400
H 	H 	0.66230 0.59590 0.20850 0.04000
H 	H 	0.72770 0.50580 0.13420 0.09100
H 	H 	0.35310 0.45430 0.11710 0.08400
H 	H 	0.28710 0.54400 0.18820 0.05500
H 	H 	0.68690 0.41450 0.05410 0.21100
H 	H 	0.54430 0.40470 0.01230 0.21000
H 	H 	0.91360 0.61660 0.14890 0.19000
H 	H 	0.84840 0.63430 0.05150 0.17800
H 	H 	0.03680 0.52400 0.16010 0.08100
H 	H 	0.90520 0.57250 0.90560 0.06600
H 	H 	0.79980 0.87750 0.48850 0.20500
H 	H 	0.86630 0.87240 0.58950 0.20100
H 	H 	0.99640 0.93160 0.37220 0.08300
H 	H 	0.91770 0.97220 0.64580 0.07600
C 	C 	0.41360 0.86860 0.64970 0.60000
C 	C 	0.40700 0.91930 0.58380 -0.60300
C 	C 	0.44610 0.98110 0.62330 0.23000
C 	C 	0.57880 0.99660 0.64360 -0.14300
C 	C 	0.61540 0.05350 0.67450 -0.09900
C 	C 	0.52210 0.09850 0.69010 0.15800
C 	C 	0.39000 0.08500 0.67250 -0.09400
C 	C 	0.35610 0.02570 0.63850 -0.17300
C 	C 	0.56230 0.16150 0.72000 -0.51800
C 	C 	0.63430 0.19230 0.64260 0.53100
C 	C 	0.13800 0.68190 0.68520 0.52000
C 	C 	0.07810 0.63870 0.75620 -0.48000
C 	C 	0.03300 0.57890 0.70790 0.14400
C 	C 	0.90140 0.56710 0.69040 -0.07600
C 	C 	0.86210 0.51270 0.64610 -0.17300
C 	C 	0.95120 0.46970 0.61980 0.22500
C 	C 	0.08300 0.48290 0.63600 -0.14900
C 	C 	0.12280 0.53650 0.67890 -0.08700
C 	C 	0.90590 0.41010 0.57130 -0.58800
C 	C 	0.91970 0.35310 0.62670 0.58600
C 	C 	0.46240 0.66390 0.56490 0.55600
C 	C 	0.57060 0.61970 0.58080 -0.54200
C 	C 	0.53630 0.55590 0.53820 0.19000
C 	C 	0.47880 0.51460 0.59590 -0.12800
C 	C 	0.55700 0.54320 0.44410 -0.11700
C 	C 	0.52630 0.83060 0.98400 0.64900
C 	C 	0.61620 0.87920 0.02250 -0.60100
C 	C 	0.55410 0.94220 0.01170 0.19400
C 	C 	0.50260 0.95930 0.92390 -0.12100
C 	C 	0.54950 0.98330 0.08660 -0.13300
C 	C 	0.91360 0.13140 0.85030 0.59500
C 	C 	0.90700 0.08070 0.91620 -0.59100
C 	C 	0.94610 0.01890 0.87670 0.21100
C 	C 	0.07880 0.00340 0.85640 -0.12300
C 	C 	0.11540 0.94650 0.82550 -0.11300
C 	C 	0.02210 0.90150 0.80990 0.17100
C 	C 	0.89000 0.91500 0.82750 -0.11000
C 	C 	0.85610 0.97430 0.86150 -0.15700
C 	C 	0.06230 0.83850 0.78000 -0.52000
C 	C 	0.13430 0.80770 0.85740 0.53200
C 	C 	0.63800 0.31810 0.81480 0.51700
C 	C 	0.57810 0.36130 0.74380 -0.47300
C 	C 	0.53300 0.42110 0.79210 0.13300
C 	C 	0.40140 0.43290 0.80960 -0.06400
C 	C 	0.36210 0.48730 0.85390 -0.18300
C 	C 	0.45120 0.53030 0.88020 0.23600
C 	C 	0.58300 0.51710 0.86400 -0.16100
C 	C 	0.62280 0.46350 0.82110 -0.07700
C 	C 	0.40590 0.58990 0.92870 -0.59400
C 	C 	0.41970 0.64690 0.87330 0.58700
C 	C 	0.96240 0.33610 0.93510 0.55200
C 	C 	0.07060 0.38030 0.91920 -0.54100
C 	C 	0.03630 0.44410 0.96180 0.20100
C 	C 	0.97880 0.48540 0.90410 -0.13600
C 	C 	0.05700 0.45680 0.05590 -0.12400
C 	C 	0.02630 0.16940 0.51600 0.64900
C 	C 	0.11620 0.12080 0.47750 -0.60500
C 	C 	0.05410 0.05780 0.48830 0.19500
C 	C 	0.00260 0.04070 0.57610 -0.12200
C 	C 	0.04950 0.01670 0.41340 -0.13400
C 	C 	0.58640 0.13140 0.35030 0.60000
C 	C 	0.59300 0.08070 0.41620 -0.60300
C 	C 	0.55390 0.01890 0.37670 0.23000
C 	C 	0.42120 0.00340 0.35640 -0.14300
C 	C 	0.38460 0.94650 0.32550 -0.09900
C 	C 	0.47790 0.90150 0.30990 0.15800
C 	C 	0.61000 0.91500 0.32750 -0.09400
C 	C 	0.64390 0.97430 0.36150 -0.17300
C 	C 	0.43770 0.83850 0.28000 -0.51800
C 	C 	0.36570 0.80770 0.35740 0.53100
C 	C 	0.86200 0.31810 0.31480 0.52000
C 	C 	0.92190 0.36130 0.24380 -0.48000
C 	C 	0.96700 0.42110 0.29210 0.14400
C 	C 	0.09860 0.43290 0.30960 -0.07600
C 	C 	0.13790 0.48730 0.35390 -0.17300
C 	C 	0.04880 0.53030 0.38020 0.22500
C 	C 	0.91700 0.51710 0.36400 -0.14900
C 	C 	0.87720 0.46350 0.32110 -0.08700
C 	C 	0.09410 0.58990 0.42870 -0.58800
C 	C 	0.08030 0.64690 0.37330 0.58600
C 	C 	0.53760 0.33610 0.43510 0.55600
C 	C 	0.42940 0.38030 0.41920 -0.54200
C 	C 	0.46370 0.44410 0.46180 0.19000
C 	C 	0.52120 0.48540 0.40410 -0.12800
C 	C 	0.44300 0.45680 0.55590 -0.11700
C 	C 	0.47370 0.16940 0.01600 0.64900
C 	C 	0.38380 0.12080 0.97750 -0.60100
C 	C 	0.44590 0.05780 0.98830 0.19400
C 	C 	0.49740 0.04070 0.07610 -0.12100
C 	C 	0.45050 0.01670 0.91340 -0.13300
C 	C 	0.08640 0.86860 0.14970 0.59500
C 	C 	0.09300 0.91930 0.08380 -0.59100
C 	C 	0.05390 0.98110 0.12330 0.21100
C 	C 	0.92120 0.99660 0.14360 -0.12300
C 	C 	0.88460 0.05350 0.17450 -0.11300
C 	C 	0.97790 0.09850 0.19010 0.17100
C 	C 	0.11000 0.08500 0.17250 -0.11000
C 	C 	0.14390 0.02570 0.13850 -0.15700
C 	C 	0.93770 0.16150 0.22000 -0.52000
C 	C 	0.86570 0.19230 0.14260 0.53200
C 	C 	0.36200 0.68190 0.18520 0.51700
C 	C 	0.42190 0.63870 0.25620 -0.47300
C 	C 	0.46700 0.57890 0.20790 0.13300
C 	C 	0.59860 0.56710 0.19040 -0.06400
C 	C 	0.63790 0.51270 0.14610 -0.18300
C 	C 	0.54880 0.46970 0.11980 0.23600
C 	C 	0.41700 0.48290 0.13600 -0.16100
C 	C 	0.37720 0.53650 0.17890 -0.07700
C 	C 	0.59410 0.41010 0.07130 -0.59400
C 	C 	0.58030 0.35310 0.12670 0.58700
C 	C 	0.03760 0.66390 0.06490 0.55200
C 	C 	0.92940 0.61970 0.08080 -0.54100
C 	C 	0.96370 0.55590 0.03820 0.20100
C 	C 	0.02120 0.51460 0.09590 -0.13600
C 	C 	0.94300 0.54320 0.94410 -0.12400
C 	C 	0.97370 0.83060 0.48400 0.64900
C 	C 	0.88380 0.87920 0.52250 -0.60500
C 	C 	0.94590 0.94220 0.51170 0.19500
C 	C 	0.99740 0.95930 0.42390 -0.12200
C 	C 	0.95050 0.98330 0.58660 -0.13400
O 	O 	0.33340 0.82510 0.63570 -0.69000
O 	O 	0.49310 0.86490 0.71710 -0.53000
O 	O 	0.57200 0.21710 0.57660 -0.53800
O 	O 	0.75970 0.19160 0.63820 -0.61500
O 	O 	0.23460 0.71490 0.70680 -0.64200
O 	O 	0.08210 0.68770 0.60450 -0.51400
O 	O 	0.86690 0.30400 0.59710 -0.70900
O 	O 	0.98150 0.35060 0.70460 -0.53000
O 	O 	0.47290 0.71770 0.60790 -0.64300
O 	O 	0.36840 0.65410 0.51330 -0.56100
O 	O 	0.54690 0.80710 0.90350 -0.59500
O 	O 	0.43180 0.81450 0.03640 -0.60700
O 	O 	0.83340 0.17490 0.86430 -0.68900
O 	O 	0.99310 0.13510 0.78290 -0.53000
O 	O 	0.07200 0.78290 0.92340 -0.53400
O 	O 	0.25970 0.80840 0.86180 -0.61500
O 	O 	0.73460 0.28510 0.79320 -0.64100
O 	O 	0.58210 0.31230 0.89550 -0.51300
O 	O 	0.36690 0.69600 0.90290 -0.70900
O 	O 	0.48150 0.64940 0.79540 -0.53000
O 	O 	0.97290 0.28230 0.89210 -0.64300
O 	O 	0.86840 0.34590 0.98670 -0.56200
O 	O 	0.04690 0.19290 0.59650 -0.59400
O 	O 	0.93180 0.18550 0.46360 -0.60800
O 	O 	0.66660 0.17490 0.36430 -0.69000
O 	O 	0.50690 0.13510 0.28290 -0.53000
O 	O 	0.42800 0.78290 0.42340 -0.53800
O 	O 	0.24030 0.80840 0.36180 -0.61500
O 	O 	0.76540 0.28510 0.29320 -0.64200
O 	O 	0.91790 0.31230 0.39550 -0.51400
O 	O 	0.13310 0.69600 0.40290 -0.70900
O 	O 	0.01850 0.64940 0.29540 -0.53000
O 	O 	0.52710 0.28230 0.39210 -0.64300
O 	O 	0.63160 0.34590 0.48670 -0.56100
O 	O 	0.45310 0.19290 0.09650 -0.59500
O 	O 	0.56820 0.18550 0.96360 -0.60700
O 	O 	0.16660 0.82510 0.13570 -0.68900
O 	O 	0.00690 0.86490 0.21710 -0.53000
O 	O 	0.92800 0.21710 0.07660 -0.53400
O 	O 	0.74030 0.19160 0.13820 -0.61500
O 	O 	0.26540 0.71490 0.20680 -0.64100
O 	O 	0.41790 0.68770 0.10450 -0.51300
O 	O 	0.63310 0.30400 0.09710 -0.70900
O 	O 	0.51850 0.35060 0.20460 -0.53000
O 	O 	0.02710 0.71770 0.10790 -0.64300
O 	O 	0.13160 0.65410 0.01330 -0.56200
O 	O 	0.95310 0.80710 0.40350 -0.59400
O 	O 	0.06820 0.81450 0.53640 -0.60800
