data_crystal

_cell_length_a 11.15400
_cell_length_b 7.79200
_cell_length_c 12.37500
_cell_angle_alpha 90.00000
_cell_angle_beta  90.00000
_cell_angle_gamma 90.00000

_symmetry_space_group_name_	'P 1'
_symmetry_space_group_name_H-M	'P 1'

loop_
_symmetry_equiv_pos_as_xyz
  x,y,z

loop_
_atom_site_label
_atom_site_type_symbol
_atom_site_fract_x
_atom_site_fract_y
_atom_site_fract_z
_atom_site_charge
Ag	Ag	0.20124 0.85045 0.50000 0.50600
C 	C 	0.27380 0.57010 0.53430 -0.59500
C 	C 	0.28550 0.58910 0.42650 0.22900
C 	C 	0.40280 0.63260 0.37560 -0.27000
C 	C 	0.52120 0.35460 0.39820 -0.09400
C 	C 	0.65260 0.38020 0.40550 0.02000
C 	C 	0.72050 0.47870 0.33920 -0.30800
C 	C 	0.43580 0.44020 0.22810 0.10200
N 	N 	0.45940 0.47890 0.32810 -0.10900
N 	N 	0.41660 0.40800 0.13840 -0.22700
H 	H 	0.20200 0.53600 0.56000 0.19800
H 	H 	0.32600 0.59400 0.58900 0.20600
H 	H 	0.21600 0.56100 0.39000 -0.08900
H 	H 	0.38200 0.71200 0.32200 0.08300
H 	H 	0.48200 0.64700 0.40600 0.08700
H 	H 	0.48500 0.35600 0.47200 0.04400
H 	H 	0.49300 0.22300 0.36800 0.03000
H 	H 	0.68500 0.30900 0.45900 -0.01000
H 	H 	0.80700 0.47900 0.33900 0.08100
H 	H 	0.68100 0.53600 0.28100 0.09600
Ag	Ag	0.79876 0.14955 -0.00000 0.49500
C 	C 	0.72620 0.42990 0.03430 -0.74600
C 	C 	0.71450 0.41090 0.92650 0.35100
C 	C 	0.59720 0.36740 0.87560 -0.34400
C 	C 	0.47880 0.64540 0.89820 -0.09900
C 	C 	0.34740 0.61980 0.90550 0.02700
C 	C 	0.27950 0.52130 0.83920 -0.30900
C 	C 	0.56420 0.55980 0.72810 0.10400
N 	N 	0.54060 0.52110 0.82810 -0.10000
N 	N 	0.58340 0.59200 0.63840 -0.22100
H 	H 	0.79800 0.46400 0.06000 0.24600
H 	H 	0.67400 0.40600 0.08900 0.25500
H 	H 	0.78400 0.43900 0.89000 -0.12700
H 	H 	0.61800 0.28800 0.82200 0.10900
H 	H 	0.51800 0.35300 0.90600 0.11600
H 	H 	0.51500 0.64400 0.97200 0.05200
H 	H 	0.50700 0.77700 0.86800 0.03400
H 	H 	0.31500 0.69100 0.95900 -0.00700
H 	H 	0.19300 0.52100 0.83900 0.08400
H 	H 	0.31900 0.46400 0.78100 0.09900
Ag	Ag	0.70124 0.64955 0.50000 0.50800
C 	C 	0.77380 0.92990 0.53430 -0.59700
C 	C 	0.78550 0.91090 0.42650 0.23100
C 	C 	0.90280 0.86740 0.37560 -0.27200
C 	C 	0.02120 0.14540 0.39820 -0.08800
C 	C 	0.15260 0.11980 0.40550 0.01200
C 	C 	0.22050 0.02130 0.33920 -0.29300
C 	C 	0.93580 0.05980 0.22810 0.10300
N 	N 	0.95940 0.02110 0.32810 -0.11000
N 	N 	0.91660 0.09200 0.13840 -0.22600
H 	H 	0.70200 0.96400 0.56000 0.19900
H 	H 	0.82600 0.90600 0.58900 0.20700
H 	H 	0.71600 0.93900 0.39000 -0.09000
H 	H 	0.88200 0.78800 0.32200 0.08400
H 	H 	0.98200 0.85300 0.40600 0.08800
H 	H 	0.98500 0.14400 0.47200 0.04300
H 	H 	0.99300 0.27700 0.36800 0.02900
H 	H 	0.18500 0.19100 0.45900 -0.00700
H 	H 	0.30700 0.02100 0.33900 0.07600
H 	H 	0.18100 0.96400 0.28100 0.08800
Ag	Ag	0.29876 0.35045 -0.00000 0.49500
C 	C 	0.22620 0.07010 0.03430 -0.73000
C 	C 	0.21450 0.08910 0.92650 0.33900
C 	C 	0.09720 0.13260 0.87560 -0.33300
C 	C 	0.97880 0.85460 0.89820 -0.08400
C 	C 	0.84740 0.88020 0.90550 0.01900
C 	C 	0.77950 0.97870 0.83920 -0.30100
C 	C 	0.06420 0.94020 0.72810 0.10200
N 	N 	0.04060 0.97890 0.82810 -0.10600
N 	N 	0.08340 0.90800 0.63840 -0.22200
H 	H 	0.29800 0.03600 0.06000 0.24200
H 	H 	0.17400 0.09400 0.08900 0.25000
H 	H 	0.28400 0.06100 0.89000 -0.12300
H 	H 	0.11800 0.21200 0.82200 0.10600
H 	H 	0.01800 0.14700 0.90600 0.11300
H 	H 	0.01500 0.85600 0.97200 0.04500
H 	H 	0.00700 0.72300 0.86800 0.02900
H 	H 	0.81500 0.80900 0.95900 -0.00300
H 	H 	0.69300 0.97900 0.83900 0.08100
H 	H 	0.81900 0.03600 0.78100 0.09700
