data_crystal

_cell_length_a 11.72000
_cell_length_b 13.70000
_cell_length_c 21.05000
_cell_angle_alpha 90.00000
_cell_angle_beta  90.00000
_cell_angle_gamma 90.00000

_symmetry_space_group_name_	'P 1'
_symmetry_space_group_name_H-M	'P 1'

loop_
_symmetry_equiv_pos_as_xyz
  x,y,z

loop_
_atom_site_label
_atom_site_type_symbol
_atom_site_fract_x
_atom_site_fract_y
_atom_site_fract_z
_atom_site_charge
Cd	Cd	0.00000 0.59869 0.43433 1.22100
Cd	Cd	0.00000 0.40131 0.56567 1.22100
Cd	Cd	0.00000 0.90131 0.93433 1.22000
Cd	Cd	-0.00000 0.09869 0.06567 1.22000
H 	H 	0.78330 0.47240 0.38030 0.02000
H 	H 	0.58530 0.47270 0.37850 0.07100
H 	H 	0.58280 0.71380 0.48730 0.07000
H 	H 	0.78070 0.71350 0.48900 0.02500
H 	H 	0.78330 0.52760 0.61970 0.02000
H 	H 	0.58530 0.52730 0.62150 0.07100
H 	H 	0.58280 0.28620 0.51270 0.07000
H 	H 	0.78070 0.28650 0.51100 0.02500
H 	H 	0.21670 0.02760 0.88030 0.00800
H 	H 	0.41470 0.02730 0.87850 0.07300
H 	H 	0.41720 0.78620 0.98730 0.07000
H 	H 	0.21930 0.78650 0.98900 0.01100
H 	H 	0.21670 0.97240 0.11970 0.00800
H 	H 	0.41470 0.97270 0.12150 0.07300
H 	H 	0.41720 0.21380 0.01270 0.07000
H 	H 	0.21930 0.21350 0.01100 0.01100
H 	H 	0.21670 0.52760 0.61970 0.00600
H 	H 	0.41470 0.52730 0.62150 0.07100
H 	H 	0.41720 0.28620 0.51270 0.07000
H 	H 	0.21930 0.28650 0.51100 0.01100
H 	H 	0.21670 0.47240 0.38030 0.00600
H 	H 	0.41470 0.47270 0.37850 0.07100
H 	H 	0.41720 0.71380 0.48730 0.07000
H 	H 	0.21930 0.71350 0.48900 0.01100
H 	H 	0.78330 0.97240 0.11970 0.02200
H 	H 	0.58530 0.97270 0.12150 0.07300
H 	H 	0.58280 0.21380 0.01270 0.07000
H 	H 	0.78070 0.21350 0.01100 0.02500
H 	H 	0.78330 0.02760 0.88030 0.02200
H 	H 	0.58530 0.02730 0.87850 0.07300
H 	H 	0.58280 0.78620 0.98730 0.07000
H 	H 	0.78070 0.78650 0.98900 0.02500
H 	H 	0.00000 0.57720 0.67380 0.07800
H 	H 	-0.00000 0.65100 0.76900 -0.00400
H 	H 	0.00000 0.84300 0.59780 0.09600
H 	H 	0.00000 0.97540 0.66260 0.13900
H 	H 	0.00000 0.96920 0.73660 0.16300
H 	H 	0.00000 0.42280 0.32620 0.07800
H 	H 	-0.00000 0.34900 0.23100 -0.00400
H 	H 	0.00000 0.15700 0.40220 0.09600
H 	H 	-0.00000 0.02460 0.33740 0.13900
H 	H 	0.00000 0.03080 0.26340 0.16300
H 	H 	0.00000 0.92280 0.17380 0.07900
H 	H 	-0.00000 0.84900 0.26900 -0.00400
H 	H 	0.00000 0.65700 0.09780 0.09600
H 	H 	0.00000 0.52460 0.16260 0.13900
H 	H 	0.00000 0.53080 0.23660 0.16300
H 	H 	0.00000 0.07720 0.82620 0.07900
H 	H 	-0.00000 0.15100 0.73100 -0.00400
H 	H 	-0.00000 0.34300 0.90220 0.09600
H 	H 	-0.00000 0.47540 0.83740 0.13900
H 	H 	0.00000 0.46920 0.76340 0.16300
C 	C 	0.74310 0.52080 0.40173 0.05500
C 	C 	0.62450 0.52100 0.40069 -0.10700
C 	C 	0.56442 0.59330 0.43273 0.04900
C 	C 	0.62290 0.66540 0.46581 -0.10600
C 	C 	0.74150 0.66520 0.46686 0.05100
C 	C 	0.74310 0.47920 0.59827 0.05500
C 	C 	0.62450 0.47900 0.59931 -0.10700
C 	C 	0.56442 0.40670 0.56727 0.04900
C 	C 	0.62290 0.33460 0.53419 -0.10600
C 	C 	0.74150 0.33480 0.53314 0.05100
C 	C 	0.25690 0.97920 0.90173 0.05100
C 	C 	0.37550 0.97900 0.90069 -0.11400
C 	C 	0.43558 0.90670 0.93273 0.05100
C 	C 	0.37710 0.83460 0.96581 -0.11100
C 	C 	0.25850 0.83480 0.96686 0.04900
C 	C 	0.25690 0.02080 0.09827 0.05100
C 	C 	0.37550 0.02100 0.09931 -0.11400
C 	C 	0.43558 0.09330 0.06727 0.05100
C 	C 	0.37710 0.16540 0.03419 -0.11100
C 	C 	0.25850 0.16520 0.03314 0.04900
C 	C 	0.25690 0.47920 0.59827 0.05300
C 	C 	0.37550 0.47900 0.59931 -0.11200
C 	C 	0.43558 0.40670 0.56727 0.05100
C 	C 	0.37710 0.33460 0.53419 -0.11100
C 	C 	0.25850 0.33480 0.53314 0.04900
C 	C 	0.25690 0.52080 0.40173 0.05300
C 	C 	0.37550 0.52100 0.40069 -0.11200
C 	C 	0.43558 0.59330 0.43273 0.05100
C 	C 	0.37710 0.66540 0.46581 -0.11100
C 	C 	0.25850 0.66520 0.46686 0.04900
C 	C 	0.74310 0.02080 0.09827 0.05300
C 	C 	0.62450 0.02100 0.09931 -0.11000
C 	C 	0.56442 0.09330 0.06727 0.04900
C 	C 	0.62290 0.16540 0.03419 -0.10700
C 	C 	0.74150 0.16520 0.03314 0.05100
C 	C 	0.74310 0.97920 0.90173 0.05300
C 	C 	0.62450 0.97900 0.90069 -0.11000
C 	C 	0.56442 0.90670 0.93273 0.04900
C 	C 	0.62290 0.83460 0.96581 -0.10700
C 	C 	0.74150 0.83480 0.96686 0.05100
C 	C 	0.00000 0.66120 0.56020 0.32800
C 	C 	0.00000 0.70400 0.62660 0.00400
C 	C 	0.00000 0.64460 0.67870 -0.13200
C 	C 	0.00000 0.68620 0.73920 0.10600
C 	C 	-0.00000 0.80220 0.63480 -0.16800
C 	C 	0.00000 0.84270 0.69490 0.21500
C 	C 	0.00000 0.78380 0.74834 -0.20800
C 	C 	-0.00000 0.82390 0.81473 0.38000
C 	C 	0.00000 0.33880 0.43980 0.32800
C 	C 	-0.00000 0.29600 0.37340 0.00400
C 	C 	0.00000 0.35540 0.32130 -0.13200
C 	C 	0.00000 0.31380 0.26080 0.10600
C 	C 	0.00000 0.19780 0.36520 -0.16800
C 	C 	0.00000 0.15730 0.30510 0.21500
C 	C 	0.00000 0.21620 0.25166 -0.20800
C 	C 	-0.00000 0.17610 0.18527 0.38000
C 	C 	-0.00000 0.83880 0.06020 0.32800
C 	C 	0.00000 0.79600 0.12660 0.00500
C 	C 	-0.00000 0.85540 0.17870 -0.13200
C 	C 	0.00000 0.81380 0.23920 0.10600
C 	C 	0.00000 0.69780 0.13480 -0.16800
C 	C 	0.00000 0.65730 0.19490 0.21500
C 	C 	0.00000 0.71620 0.24834 -0.20800
C 	C 	0.00000 0.67610 0.31473 0.38000
C 	C 	0.00000 0.16120 0.93980 0.32800
C 	C 	0.00000 0.20400 0.87340 0.00500
C 	C 	-0.00000 0.14460 0.82130 -0.13200
C 	C 	0.00000 0.18620 0.76080 0.10600
C 	C 	0.00000 0.30220 0.86520 -0.16800
C 	C 	-0.00000 0.34270 0.80510 0.21500
C 	C 	0.00000 0.28380 0.75166 -0.20800
C 	C 	0.00000 0.32390 0.68527 0.38000
N 	N 	0.80160 0.59290 0.43482 -0.20000
N 	N 	0.80160 0.40710 0.56518 -0.20000
N 	N 	0.19840 0.90710 0.93482 -0.21500
N 	N 	0.19840 0.09290 0.06518 -0.21500
N 	N 	0.19840 0.40710 0.56518 -0.21500
N 	N 	0.19840 0.59290 0.43482 -0.21500
N 	N 	0.80160 0.09290 0.06518 -0.20100
N 	N 	0.80160 0.90710 0.93482 -0.20100
N 	N 	-0.00000 0.93950 0.69840 -0.30700
N 	N 	0.00000 0.06050 0.30160 -0.30700
N 	N 	0.00000 0.56050 0.19840 -0.30700
N 	N 	0.00000 0.43950 0.80160 -0.30700
O 	O 	-0.00000 0.71710 0.51375 -0.39900
O 	O 	0.00000 0.57110 0.55392 -0.50100
O 	O 	-0.00000 0.76680 0.86069 -0.38800
O 	O 	-0.00000 0.91260 0.82263 -0.42400
O 	O 	0.00000 0.28290 0.48625 -0.39900
O 	O 	0.00000 0.42890 0.44608 -0.50100
O 	O 	0.00000 0.23320 0.13931 -0.38800
O 	O 	0.00000 0.08740 0.17737 -0.42400
O 	O 	-0.00000 0.78290 0.01375 -0.39800
O 	O 	-0.00000 0.92890 0.05392 -0.50000
O 	O 	0.00000 0.73320 0.36069 -0.38800
O 	O 	-0.00000 0.58740 0.32263 -0.42400
O 	O 	0.00000 0.21710 0.98625 -0.39800
O 	O 	0.00000 0.07110 0.94608 -0.50000
O 	O 	0.00000 0.26680 0.63931 -0.38800
O 	O 	0.00000 0.41260 0.67737 -0.42400
