data_crystal

_cell_length_a 11.69000
_cell_length_b 25.29000
_cell_length_c 25.29000
_cell_angle_alpha 120.00000
_cell_angle_beta  90.00000
_cell_angle_gamma 90.00000

_symmetry_space_group_name_	'P 1'
_symmetry_space_group_name_H-M	'P 1'

loop_
_symmetry_equiv_pos_as_xyz
  x,y,z

loop_
_atom_site_label
_atom_site_type_symbol
_atom_site_fract_x
_atom_site_fract_y
_atom_site_fract_z
_atom_site_charge
Cd	Cd	0.00000 0.41239 0.93747 1.22400
Cd	Cd	-0.00000 0.52508 0.58761 1.22400
Cd	Cd	0.00000 0.06253 0.47492 1.22400
Cd	Cd	0.00000 0.58761 0.06253 1.22400
Cd	Cd	-0.00000 0.47492 0.41239 1.22400
Cd	Cd	0.00000 0.93747 0.52508 1.22400
H 	H 	0.22020 0.38250 0.98870 -0.00800
H 	H 	0.41500 0.38650 0.99280 0.08500
H 	H 	0.41050 0.44710 0.87970 0.08900
H 	H 	0.21630 0.44930 0.88420 -0.01900
H 	H 	0.22020 0.60620 0.61750 -0.00800
H 	H 	0.41500 0.60630 0.61350 0.08500
H 	H 	0.41050 0.43260 0.55290 0.08900
H 	H 	0.21630 0.43490 0.55070 -0.01900
H 	H 	0.22020 0.01130 0.39380 -0.00800
H 	H 	0.41500 0.00720 0.39370 0.08500
H 	H 	0.41050 0.12030 0.56740 0.08900
H 	H 	0.21630 0.11580 0.56510 -0.01900
H 	H 	0.22020 0.61750 0.01130 -0.00800
H 	H 	0.41500 0.61350 0.00720 0.08500
H 	H 	0.41050 0.55290 0.12030 0.08900
H 	H 	0.21630 0.55070 0.11580 -0.01900
H 	H 	0.22020 0.39380 0.38250 -0.00800
H 	H 	0.41500 0.39370 0.38650 0.08500
H 	H 	0.41050 0.56740 0.44710 0.08900
H 	H 	0.21630 0.56510 0.44930 -0.01900
H 	H 	0.22020 0.98870 0.60620 -0.00800
H 	H 	0.41500 0.99280 0.60630 0.08500
H 	H 	0.41050 0.87970 0.43260 0.08900
H 	H 	0.21630 0.88420 0.43490 -0.01900
H 	H 	0.77980 0.61750 0.01130 0.00600
H 	H 	0.58500 0.61350 0.00720 0.08300
H 	H 	0.58950 0.55290 0.12030 0.08700
H 	H 	0.78370 0.55070 0.11580 -0.00400
H 	H 	0.77980 0.39380 0.38250 0.00700
H 	H 	0.58500 0.39370 0.38650 0.08300
H 	H 	0.58950 0.56740 0.44710 0.08700
H 	H 	0.78370 0.56510 0.44930 -0.00400
H 	H 	0.77980 0.98870 0.60620 0.00600
H 	H 	0.58500 0.99280 0.60630 0.08300
H 	H 	0.58950 0.87970 0.43260 0.08700
H 	H 	0.78370 0.88420 0.43490 -0.00400
H 	H 	0.77980 0.38250 0.98870 0.00600
H 	H 	0.58500 0.38650 0.99280 0.08300
H 	H 	0.58950 0.44710 0.87970 0.08700
H 	H 	0.78370 0.44930 0.88420 -0.00400
H 	H 	0.77980 0.60620 0.61750 0.00700
H 	H 	0.58500 0.60630 0.61350 0.08300
H 	H 	0.58950 0.43260 0.55290 0.08700
H 	H 	0.78370 0.43490 0.55070 -0.00400
H 	H 	0.77980 0.01130 0.39380 0.00600
H 	H 	0.58500 0.00720 0.39370 0.08300
H 	H 	0.58950 0.12030 0.56740 0.08700
H 	H 	0.78370 0.11580 0.56510 -0.00400
H 	H 	0.00000 0.54840 0.17170 0.08900
H 	H 	0.00000 0.58290 0.31940 0.17500
H 	H 	0.00000 0.60730 0.27660 0.14600
H 	H 	0.00000 0.37890 0.19530 0.02100
H 	H 	0.00000 0.36830 0.10030 0.08000
H 	H 	0.00000 0.62330 0.45160 0.08900
H 	H 	-0.00000 0.73650 0.41710 0.17500
H 	H 	0.00000 0.66930 0.39270 0.14600
H 	H 	0.00000 0.81640 0.62110 0.02100
H 	H 	0.00000 0.73200 0.63170 0.08000
H 	H 	0.00000 0.82830 0.37670 0.08900
H 	H 	-0.00000 0.68060 0.26350 0.17500
H 	H 	0.00000 0.72340 0.33070 0.14600
H 	H 	0.00000 0.80470 0.18360 0.02200
H 	H 	-0.00000 0.89970 0.26800 0.08000
H 	H 	-0.00000 0.45160 0.82830 0.08900
H 	H 	0.00000 0.41710 0.68060 0.17500
H 	H 	0.00000 0.39270 0.72340 0.14600
H 	H 	0.00000 0.62110 0.80470 0.02100
H 	H 	0.00000 0.63170 0.89970 0.08000
H 	H 	0.00000 0.37670 0.54840 0.08900
H 	H 	0.00000 0.26350 0.58290 0.17500
H 	H 	-0.00000 0.33070 0.60730 0.14600
H 	H 	0.00000 0.18360 0.37890 0.02100
H 	H 	-0.00000 0.26800 0.36830 0.08000
H 	H 	0.00000 0.17170 0.62330 0.08900
H 	H 	0.00000 0.31940 0.73650 0.17500
H 	H 	0.00000 0.27660 0.66930 0.14600
H 	H 	0.00000 0.19530 0.81640 0.02200
H 	H 	0.00000 0.10030 0.73200 0.08000
C 	C 	0.25840 0.39780 0.96700 0.10100
C 	C 	0.37670 0.39850 0.96820 -0.15800
C 	C 	0.43680 0.41620 0.93490 0.08500
C 	C 	0.37430 0.43420 0.90400 -0.17000
C 	C 	0.25570 0.43490 0.90640 0.11900
C 	C 	0.25840 0.56920 0.60220 0.10100
C 	C 	0.37670 0.56970 0.60150 -0.15800
C 	C 	0.43680 0.51870 0.58380 0.08500
C 	C 	0.37430 0.46980 0.56580 -0.17000
C 	C 	0.25570 0.47150 0.56510 0.11900
C 	C 	0.25840 0.03300 0.43080 0.10100
C 	C 	0.37670 0.03180 0.43030 -0.15800
C 	C 	0.43680 0.06510 0.48130 0.08500
C 	C 	0.37430 0.09600 0.53020 -0.17000
C 	C 	0.25570 0.09360 0.52850 0.11900
C 	C 	0.25840 0.60220 0.03300 0.10100
C 	C 	0.37670 0.60150 0.03180 -0.15800
C 	C 	0.43680 0.58380 0.06510 0.08500
C 	C 	0.37430 0.56580 0.09600 -0.17000
C 	C 	0.25570 0.56510 0.09360 0.11900
C 	C 	0.25840 0.43080 0.39780 0.10100
C 	C 	0.37670 0.43030 0.39850 -0.15800
C 	C 	0.43680 0.48130 0.41620 0.08500
C 	C 	0.37430 0.53020 0.43420 -0.17000
C 	C 	0.25570 0.52850 0.43490 0.11900
C 	C 	0.25840 0.96700 0.56920 0.10100
C 	C 	0.37670 0.96820 0.56970 -0.15800
C 	C 	0.43680 0.93490 0.51870 0.08500
C 	C 	0.37430 0.90400 0.46980 -0.17000
C 	C 	0.25570 0.90640 0.47150 0.11900
C 	C 	0.74160 0.60220 0.03300 0.09800
C 	C 	0.62330 0.60150 0.03180 -0.14700
C 	C 	0.56320 0.58380 0.06510 0.07500
C 	C 	0.62570 0.56580 0.09600 -0.15900
C 	C 	0.74430 0.56510 0.09360 0.11500
C 	C 	0.74160 0.43080 0.39780 0.09800
C 	C 	0.62330 0.43030 0.39850 -0.14700
C 	C 	0.56320 0.48130 0.41620 0.07500
C 	C 	0.62570 0.53020 0.43420 -0.15800
C 	C 	0.74430 0.52850 0.43490 0.11500
C 	C 	0.74160 0.96700 0.56920 0.09800
C 	C 	0.62330 0.96820 0.56970 -0.14700
C 	C 	0.56320 0.93490 0.51870 0.07500
C 	C 	0.62570 0.90400 0.46980 -0.15900
C 	C 	0.74430 0.90640 0.47150 0.11500
C 	C 	0.74160 0.39780 0.96700 0.09800
C 	C 	0.62330 0.39850 0.96820 -0.14700
C 	C 	0.56320 0.41620 0.93490 0.07500
C 	C 	0.62570 0.43420 0.90400 -0.15900
C 	C 	0.74430 0.43490 0.90640 0.11500
C 	C 	0.74160 0.56920 0.60220 0.09800
C 	C 	0.62330 0.56970 0.60150 -0.14700
C 	C 	0.56320 0.51870 0.58380 0.07500
C 	C 	0.62570 0.46980 0.56580 -0.15800
C 	C 	0.74430 0.47150 0.56510 0.11500
C 	C 	0.74160 0.03300 0.43080 0.09800
C 	C 	0.62330 0.03180 0.43030 -0.14700
C 	C 	0.56320 0.06510 0.48130 0.07500
C 	C 	0.62570 0.09600 0.53020 -0.15900
C 	C 	0.74430 0.09360 0.52850 0.11500
C 	C 	-0.00000 0.44950 0.06490 0.32300
C 	C 	0.00000 0.45760 0.12750 -0.00300
C 	C 	0.00000 0.51420 0.17640 -0.16800
C 	C 	-0.00000 0.52020 0.23560 0.21100
C 	C 	0.00000 0.47060 0.24400 -0.19200
C 	C 	0.00000 0.41370 0.19160 0.07100
C 	C 	0.00000 0.40720 0.13460 -0.10800
C 	C 	-0.00000 0.47500 0.30460 0.35400
C 	C 	0.00000 0.61540 0.55050 0.32300
C 	C 	0.00000 0.66990 0.54240 -0.00300
C 	C 	0.00000 0.66220 0.48580 -0.16800
C 	C 	0.00000 0.71540 0.47980 0.21100
C 	C 	-0.00000 0.77340 0.52940 -0.19200
C 	C 	-0.00000 0.77790 0.58630 0.07100
C 	C 	-0.00000 0.72740 0.59280 -0.10800
C 	C 	-0.00000 0.82960 0.52500 0.35400
C 	C 	-0.00000 0.93510 0.38460 0.32300
C 	C 	-0.00000 0.87250 0.33010 -0.00300
C 	C 	-0.00000 0.82360 0.33780 -0.16800
C 	C 	0.00000 0.76440 0.28460 0.21100
C 	C 	0.00000 0.75600 0.22660 -0.19200
C 	C 	0.00000 0.80840 0.22210 0.07100
C 	C 	0.00000 0.86540 0.27260 -0.10800
C 	C 	-0.00000 0.69540 0.17040 0.35400
C 	C 	-0.00000 0.55050 0.93510 0.32300
C 	C 	0.00000 0.54240 0.87250 -0.00300
C 	C 	-0.00000 0.48580 0.82360 -0.16800
C 	C 	0.00000 0.47980 0.76440 0.21100
C 	C 	0.00000 0.52940 0.75600 -0.19200
C 	C 	0.00000 0.58630 0.80840 0.07100
C 	C 	0.00000 0.59280 0.86540 -0.10800
C 	C 	-0.00000 0.52500 0.69540 0.35400
C 	C 	0.00000 0.38460 0.44950 0.32300
C 	C 	0.00000 0.33010 0.45760 -0.00300
C 	C 	-0.00000 0.33780 0.51420 -0.16800
C 	C 	0.00000 0.28460 0.52020 0.21100
C 	C 	0.00000 0.22660 0.47060 -0.19200
C 	C 	0.00000 0.22210 0.41370 0.07100
C 	C 	-0.00000 0.27260 0.40720 -0.10800
C 	C 	-0.00000 0.17040 0.47500 0.35400
C 	C 	0.00000 0.06490 0.61540 0.32300
C 	C 	0.00000 0.12750 0.66990 -0.00300
C 	C 	0.00000 0.17640 0.66220 -0.16800
C 	C 	0.00000 0.23560 0.71540 0.21100
C 	C 	0.00000 0.24400 0.77340 -0.19200
C 	C 	0.00000 0.19160 0.77790 0.07100
C 	C 	0.00000 0.13460 0.72740 -0.10800
C 	C 	0.00000 0.30460 0.82960 0.35400
N 	N 	0.19750 0.41700 0.93700 -0.24800
N 	N 	0.19750 0.52000 0.58300 -0.24800
N 	N 	0.19750 0.06300 0.48000 -0.24800
N 	N 	0.19750 0.58300 0.06300 -0.24800
N 	N 	0.19750 0.48000 0.41700 -0.24800
N 	N 	0.19750 0.93700 0.52000 -0.24800
N 	N 	0.80250 0.58300 0.06300 -0.23300
N 	N 	0.80250 0.48000 0.41700 -0.23300
N 	N 	0.80250 0.93700 0.52000 -0.23300
N 	N 	0.80250 0.41700 0.93700 -0.23300
N 	N 	0.80250 0.52000 0.58300 -0.23300
N 	N 	0.80250 0.06300 0.48000 -0.23300
N 	N 	0.00000 0.57680 0.28280 -0.34100
N 	N 	-0.00000 0.70600 0.42320 -0.34100
N 	N 	0.00000 0.71720 0.29400 -0.34100
N 	N 	0.00000 0.42320 0.71720 -0.34100
N 	N 	0.00000 0.29400 0.57680 -0.34100
N 	N 	0.00000 0.28280 0.70600 -0.34100
O 	O 	0.00000 0.39740 0.01920 -0.40200
O 	O 	-0.00000 0.49700 0.05970 -0.48600
O 	O 	0.00000 0.42760 0.30810 -0.39700
O 	O 	0.00000 0.52690 0.35230 -0.39500
O 	O 	0.00000 0.62180 0.60260 -0.40200
O 	O 	0.00000 0.56270 0.50300 -0.48600
O 	O 	0.00000 0.88050 0.57240 -0.39700
O 	O 	0.00000 0.82540 0.47310 -0.39500
O 	O 	0.00000 0.98080 0.37820 -0.40200
O 	O 	-0.00000 0.94030 0.43730 -0.48600
O 	O 	0.00000 0.69190 0.11950 -0.39700
O 	O 	0.00000 0.64770 0.17460 -0.39500
O 	O 	-0.00000 0.60260 0.98080 -0.40200
O 	O 	0.00000 0.50300 0.94030 -0.48600
O 	O 	0.00000 0.57240 0.69190 -0.39700
O 	O 	0.00000 0.47310 0.64770 -0.39500
O 	O 	0.00000 0.37820 0.39740 -0.40200
O 	O 	0.00000 0.43730 0.49700 -0.48600
O 	O 	0.00000 0.11950 0.42760 -0.39700
O 	O 	-0.00000 0.17460 0.52690 -0.39500
O 	O 	0.00000 0.01920 0.62180 -0.40200
O 	O 	0.00000 0.05970 0.56270 -0.48600
O 	O 	-0.00000 0.30810 0.88050 -0.39700
O 	O 	0.00000 0.35230 0.82540 -0.39500
