data_crystal

_cell_length_a 9.50950
_cell_length_b 19.84000
_cell_length_c 21.03500
_cell_angle_alpha 90.00000
_cell_angle_beta  90.00000
_cell_angle_gamma 90.00000

_symmetry_space_group_name_	'P 1'
_symmetry_space_group_name_H-M	'P 1'

loop_
_symmetry_equiv_pos_as_xyz
  x,y,z

loop_
_atom_site_label
_atom_site_type_symbol
_atom_site_fract_x
_atom_site_fract_y
_atom_site_fract_z
_atom_site_charge
Cd	Cd	0.50754 0.55346 0.42614 1.21800
N 	N 	0.48300 0.53803 0.31789 -0.22500
N 	N 	0.44310 0.55940 0.21755 -0.11800
N 	N 	0.56000 0.56616 0.11603 -0.11500
N 	N 	0.76800 0.55277 0.07328 -0.23000
O 	O 	0.97110 0.18115 0.39812 -0.34600
O 	O 	0.80600 0.11891 0.44272 -0.40100
O 	O 	0.72150 0.45827 0.40205 -0.32900
O 	O 	0.52100 0.44353 0.45464 -0.49400
S 	S 	0.81767 0.31384 0.41213 0.06500
C 	C 	0.65820 0.34819 0.43311 -0.10200
C 	C 	0.56670 0.30010 0.45273 -0.01100
H 	H 	0.47530 0.30920 0.46580 0.04100
C 	C 	0.62490 0.23470 0.45120 -0.01800
H 	H 	0.57610 0.19620 0.46340 0.05300
C 	C 	0.75880 0.23396 0.43012 -0.08000
C 	C 	0.85380 0.17445 0.42251 0.30900
C 	C 	0.63540 0.42222 0.42909 0.32500
C 	C 	0.40390 0.48720 0.29210 0.01100
H 	H 	0.37240 0.44950 0.31410 0.02300
C 	C 	0.37840 0.49980 0.23050 -0.00500
H 	H 	0.32700 0.47320 0.20240 0.05600
C 	C 	0.50450 0.58050 0.27107 0.09900
H 	H 	0.55590 0.62020 0.27470 -0.00000
C 	C 	0.44760 0.59300 0.15604 -0.00900
H 	H 	0.46240 0.64090 0.16240 0.04500
H 	H 	0.35810 0.58710 0.13460 0.05500
C 	C 	0.55360 0.50830 0.08093 -0.00100
H 	H 	0.47660 0.47990 0.07610 0.05500
C 	C 	0.68170 0.50090 0.05495 0.00700
H 	H 	0.70810 0.46570 0.02830 0.02700
C 	C 	0.68940 0.59130 0.11022 0.09200
H 	H 	0.72020 0.63070 0.12960 -0.00300
Cd	Cd	0.49246 0.05346 0.07386 1.21900
N 	N 	0.51700 0.03803 0.18211 -0.22500
N 	N 	0.55690 0.05940 0.28245 -0.11800
N 	N 	0.44000 0.06616 0.38397 -0.11300
N 	N 	0.23200 0.05277 0.42672 -0.23100
O 	O 	0.02890 0.68115 0.10188 -0.34600
O 	O 	0.19400 0.61891 0.05728 -0.40000
O 	O 	0.27850 0.95827 0.09795 -0.32900
O 	O 	0.47900 0.94353 0.04536 -0.49300
S 	S 	0.18233 0.81384 0.08787 0.06500
C 	C 	0.34180 0.84819 0.06689 -0.10200
C 	C 	0.43330 0.80010 0.04727 -0.01100
H 	H 	0.52470 0.80920 0.03420 0.04100
C 	C 	0.37510 0.73470 0.04880 -0.01700
H 	H 	0.42390 0.69620 0.03660 0.05300
C 	C 	0.24120 0.73396 0.06988 -0.07900
C 	C 	0.14620 0.67445 0.07749 0.30900
C 	C 	0.36460 0.92222 0.07091 0.32500
C 	C 	0.59610 0.98720 0.20790 0.01300
H 	H 	0.62760 0.94950 0.18590 0.02400
C 	C 	0.62160 0.99980 0.26950 -0.00400
H 	H 	0.67300 0.97320 0.29760 0.05600
C 	C 	0.49550 0.08050 0.22893 0.09900
H 	H 	0.44410 0.12020 0.22530 -0.00000
C 	C 	0.55240 0.09300 0.34396 -0.00900
H 	H 	0.53760 0.14090 0.33760 0.04500
H 	H 	0.64190 0.08710 0.36540 0.05400
C 	C 	0.44640 0.00830 0.41907 -0.00400
H 	H 	0.52340 0.97990 0.42390 0.05600
C 	C 	0.31830 0.00090 0.44505 0.01100
H 	H 	0.29190 0.96570 0.47170 0.02500
C 	C 	0.31060 0.09130 0.38978 0.09200
H 	H 	0.27980 0.13070 0.37040 -0.00300
Cd	Cd	0.00754 0.55346 0.07386 1.21900
N 	N 	0.98300 0.53803 0.18211 -0.22300
N 	N 	0.94310 0.55940 0.28245 -0.11600
N 	N 	0.06000 0.56616 0.38397 -0.11400
N 	N 	0.26800 0.55277 0.42672 -0.23100
O 	O 	0.47110 0.18115 0.10188 -0.34500
O 	O 	0.30600 0.11891 0.05728 -0.40100
O 	O 	0.22150 0.45827 0.09795 -0.32900
O 	O 	0.02100 0.44353 0.04536 -0.49400
S 	S 	0.31767 0.31384 0.08787 0.06500
C 	C 	0.15820 0.34819 0.06689 -0.10300
C 	C 	0.06670 0.30010 0.04727 -0.00800
H 	H 	0.97530 0.30920 0.03420 0.03900
C 	C 	0.12490 0.23470 0.04880 -0.01900
H 	H 	0.07610 0.19620 0.03660 0.05400
C 	C 	0.25880 0.23396 0.06988 -0.07900
C 	C 	0.35380 0.17445 0.07749 0.30800
C 	C 	0.13540 0.42222 0.07091 0.32600
C 	C 	0.90390 0.48720 0.20790 0.01100
H 	H 	0.87240 0.44950 0.18590 0.02300
C 	C 	0.87840 0.49980 0.26950 -0.00500
H 	H 	0.82700 0.47320 0.29760 0.05600
C 	C 	0.00450 0.58050 0.22893 0.09700
H 	H 	0.05590 0.62020 0.22530 -0.00000
C 	C 	0.94760 0.59300 0.34396 -0.00800
H 	H 	0.96240 0.64090 0.33760 0.04600
H 	H 	0.85810 0.58710 0.36540 0.05500
C 	C 	0.05360 0.50830 0.41907 -0.00100
H 	H 	0.97660 0.47990 0.42390 0.05500
C 	C 	0.18170 0.50090 0.44505 0.00700
H 	H 	0.20810 0.46570 0.47170 0.02800
C 	C 	0.18940 0.59130 0.38978 0.09200
H 	H 	0.22020 0.63070 0.37040 -0.00400
Cd	Cd	0.99246 0.05346 0.42614 1.21800
N 	N 	0.01700 0.03803 0.31789 -0.22000
N 	N 	0.05690 0.05940 0.21755 -0.11400
N 	N 	0.94000 0.06616 0.11603 -0.11500
N 	N 	0.73200 0.05277 0.07328 -0.23000
O 	O 	0.52890 0.68115 0.39812 -0.34500
O 	O 	0.69400 0.61891 0.44272 -0.40000
O 	O 	0.77850 0.95827 0.40205 -0.32800
O 	O 	0.97900 0.94353 0.45464 -0.49200
S 	S 	0.68233 0.81384 0.41213 0.06600
C 	C 	0.84180 0.84819 0.43311 -0.10500
C 	C 	0.93330 0.80010 0.45273 -0.00400
H 	H 	0.02470 0.80920 0.46580 0.03600
C 	C 	0.87510 0.73470 0.45120 -0.02100
H 	H 	0.92390 0.69620 0.46340 0.05500
C 	C 	0.74120 0.73396 0.43012 -0.07800
C 	C 	0.64620 0.67445 0.42251 0.30800
C 	C 	0.86460 0.92222 0.42909 0.32600
C 	C 	0.09610 0.98720 0.29210 0.00800
H 	H 	0.12760 0.94950 0.31410 0.02400
C 	C 	0.12160 0.99980 0.23050 -0.00600
H 	H 	0.17300 0.97320 0.20240 0.05600
C 	C 	0.99550 0.08050 0.27107 0.09200
H 	H 	0.94410 0.12020 0.27470 0.00100
C 	C 	0.05240 0.09300 0.15604 -0.00700
H 	H 	0.03760 0.14090 0.16240 0.04500
H 	H 	0.14190 0.08710 0.13460 0.05500
C 	C 	0.94640 0.00830 0.08093 0.00000
H 	H 	0.02340 0.97990 0.07610 0.05500
C 	C 	0.81830 0.00090 0.05495 -0.00200
H 	H 	0.79190 0.96570 0.02830 0.03400
C 	C 	0.81060 0.09130 0.11022 0.09200
H 	H 	0.77980 0.13070 0.12960 -0.00400
Cd	Cd	0.99246 0.44654 0.92614 1.21900
N 	N 	0.01700 0.46197 0.81789 -0.22300
N 	N 	0.05690 0.44060 0.71755 -0.11600
N 	N 	0.94000 0.43384 0.61603 -0.11400
N 	N 	0.73200 0.44723 0.57328 -0.23100
O 	O 	0.52890 0.81885 0.89812 -0.34500
O 	O 	0.69400 0.88109 0.94272 -0.40100
O 	O 	0.77850 0.54173 0.90205 -0.32900
O 	O 	0.97900 0.55647 0.95464 -0.49400
S 	S 	0.68233 0.68616 0.91213 0.06500
C 	C 	0.84180 0.65181 0.93311 -0.10300
C 	C 	0.93330 0.69990 0.95273 -0.00800
H 	H 	0.02470 0.69080 0.96580 0.03900
C 	C 	0.87510 0.76530 0.95120 -0.01900
H 	H 	0.92390 0.80380 0.96340 0.05400
C 	C 	0.74120 0.76604 0.93012 -0.07900
C 	C 	0.64620 0.82555 0.92251 0.30800
C 	C 	0.86460 0.57778 0.92909 0.32600
C 	C 	0.09610 0.51280 0.79210 0.01100
H 	H 	0.12760 0.55050 0.81410 0.02300
C 	C 	0.12160 0.50020 0.73050 -0.00500
H 	H 	0.17300 0.52680 0.70240 0.05600
C 	C 	0.99550 0.41950 0.77107 0.09700
H 	H 	0.94410 0.37980 0.77470 -0.00000
C 	C 	0.05240 0.40700 0.65604 -0.00800
H 	H 	0.03760 0.35910 0.66240 0.04600
H 	H 	0.14190 0.41290 0.63460 0.05500
C 	C 	0.94640 0.49170 0.58093 -0.00100
H 	H 	0.02340 0.52010 0.57610 0.05500
C 	C 	0.81830 0.49910 0.55495 0.00700
H 	H 	0.79190 0.53430 0.52830 0.02800
C 	C 	0.81060 0.40870 0.61022 0.09200
H 	H 	0.77980 0.36930 0.62960 -0.00400
Cd	Cd	0.00754 0.94654 0.57386 1.21800
N 	N 	0.98300 0.96197 0.68211 -0.22000
N 	N 	0.94310 0.94060 0.78245 -0.11400
N 	N 	0.06000 0.93384 0.88397 -0.11500
N 	N 	0.26800 0.94723 0.92672 -0.23000
O 	O 	0.47110 0.31885 0.60188 -0.34500
O 	O 	0.30600 0.38109 0.55728 -0.40000
O 	O 	0.22150 0.04173 0.59795 -0.32800
O 	O 	0.02100 0.05647 0.54536 -0.49200
S 	S 	0.31767 0.18616 0.58787 0.06600
C 	C 	0.15820 0.15181 0.56689 -0.10500
C 	C 	0.06670 0.19990 0.54727 -0.00400
H 	H 	0.97530 0.19080 0.53420 0.03600
C 	C 	0.12490 0.26530 0.54880 -0.02100
H 	H 	0.07610 0.30380 0.53660 0.05500
C 	C 	0.25880 0.26604 0.56988 -0.07800
C 	C 	0.35380 0.32555 0.57749 0.30800
C 	C 	0.13540 0.07778 0.57091 0.32600
C 	C 	0.90390 0.01280 0.70790 0.00800
H 	H 	0.87240 0.05050 0.68590 0.02400
C 	C 	0.87840 0.00020 0.76950 -0.00600
H 	H 	0.82700 0.02680 0.79760 0.05600
C 	C 	0.00450 0.91950 0.72893 0.09200
H 	H 	0.05590 0.87980 0.72530 0.00100
C 	C 	0.94760 0.90700 0.84396 -0.00700
H 	H 	0.96240 0.85910 0.83760 0.04500
H 	H 	0.85810 0.91290 0.86540 0.05500
C 	C 	0.05360 0.99170 0.91907 0.00000
H 	H 	0.97660 0.02010 0.92390 0.05500
C 	C 	0.18170 0.99910 0.94505 -0.00200
H 	H 	0.20810 0.03430 0.97170 0.03400
C 	C 	0.18940 0.90870 0.88978 0.09200
H 	H 	0.22020 0.86930 0.87040 -0.00400
Cd	Cd	0.49246 0.44654 0.57386 1.21900
N 	N 	0.51700 0.46197 0.68211 -0.22400
N 	N 	0.55690 0.44060 0.78245 -0.11700
N 	N 	0.44000 0.43384 0.88397 -0.11400
N 	N 	0.23200 0.44723 0.92672 -0.23000
O 	O 	0.02890 0.81885 0.60188 -0.34600
O 	O 	0.19400 0.88109 0.55728 -0.40100
O 	O 	0.27850 0.54173 0.59795 -0.32900
O 	O 	0.47900 0.55647 0.54536 -0.49400
S 	S 	0.18233 0.68616 0.58787 0.06500
C 	C 	0.34180 0.65181 0.56689 -0.10200
C 	C 	0.43330 0.69990 0.54727 -0.01100
H 	H 	0.52470 0.69080 0.53420 0.04100
C 	C 	0.37510 0.76530 0.54880 -0.01800
H 	H 	0.42390 0.80380 0.53660 0.05300
C 	C 	0.24120 0.76604 0.56988 -0.08000
C 	C 	0.14620 0.82555 0.57749 0.30900
C 	C 	0.36460 0.57778 0.57091 0.32500
C 	C 	0.59610 0.51280 0.70790 0.01100
H 	H 	0.62760 0.55050 0.68590 0.02300
C 	C 	0.62160 0.50020 0.76950 -0.00500
H 	H 	0.67300 0.52680 0.79760 0.05600
C 	C 	0.49550 0.41950 0.72893 0.09900
H 	H 	0.44410 0.37980 0.72530 -0.00000
C 	C 	0.55240 0.40700 0.84396 -0.00900
H 	H 	0.53760 0.35910 0.83760 0.04500
H 	H 	0.64190 0.41290 0.86540 0.05500
C 	C 	0.44640 0.49170 0.91907 -0.00100
H 	H 	0.52340 0.52010 0.92390 0.05500
C 	C 	0.31830 0.49910 0.94505 0.00700
H 	H 	0.29190 0.53430 0.97170 0.02700
C 	C 	0.31060 0.40870 0.88978 0.09200
H 	H 	0.27980 0.36930 0.87040 -0.00300
Cd	Cd	0.50754 0.94654 0.92614 1.21900
N 	N 	0.48300 0.96197 0.81789 -0.22500
N 	N 	0.44310 0.94060 0.71755 -0.11800
N 	N 	0.56000 0.93384 0.61603 -0.11300
N 	N 	0.76800 0.94723 0.57328 -0.23100
O 	O 	0.97110 0.31885 0.89812 -0.34600
O 	O 	0.80600 0.38109 0.94272 -0.40000
O 	O 	0.72150 0.04173 0.90205 -0.32900
O 	O 	0.52100 0.05647 0.95464 -0.49300
S 	S 	0.81767 0.18616 0.91213 0.06500
C 	C 	0.65820 0.15181 0.93311 -0.10200
C 	C 	0.56670 0.19990 0.95273 -0.01100
H 	H 	0.47530 0.19080 0.96580 0.04100
C 	C 	0.62490 0.26530 0.95120 -0.01700
H 	H 	0.57610 0.30380 0.96340 0.05300
C 	C 	0.75880 0.26604 0.93012 -0.07900
C 	C 	0.85380 0.32555 0.92251 0.30900
C 	C 	0.63540 0.07778 0.92909 0.32500
C 	C 	0.40390 0.01280 0.79210 0.01300
H 	H 	0.37240 0.05050 0.81410 0.02400
C 	C 	0.37840 0.00020 0.73050 -0.00400
H 	H 	0.32700 0.02680 0.70240 0.05600
C 	C 	0.50450 0.91950 0.77107 0.09900
H 	H 	0.55590 0.87980 0.77470 -0.00000
C 	C 	0.44760 0.90700 0.65604 -0.00900
H 	H 	0.46240 0.85910 0.66240 0.04500
H 	H 	0.35810 0.91290 0.63460 0.05400
C 	C 	0.55360 0.99170 0.58093 -0.00400
H 	H 	0.47660 0.02010 0.57610 0.05600
C 	C 	0.68170 0.99910 0.55495 0.01100
H 	H 	0.70810 0.03430 0.52830 0.02500
C 	C 	0.68940 0.90870 0.61022 0.09200
H 	H 	0.72020 0.86930 0.62960 -0.00300
