data_crystal

_cell_length_a 14.51960
_cell_length_b 23.36700
_cell_length_c 15.60420
_cell_angle_alpha 90.00000
_cell_angle_beta  107.47500
_cell_angle_gamma 90.00000

_symmetry_space_group_name_	'P 1'
_symmetry_space_group_name_H-M	'P 1'

loop_
_symmetry_equiv_pos_as_xyz
  x,y,z

loop_
_atom_site_label
_atom_site_type_symbol
_atom_site_fract_x
_atom_site_fract_y
_atom_site_fract_z
_atom_site_charge
Cd	Cd	0.74343 0.05809 0.08387 1.23200
O 	O 	0.72380 0.05031 0.93600 -0.39300
O 	O 	0.76240 0.96842 0.12360 -0.41000
O 	O 	0.81660 0.08250 0.26070 -0.38800
O 	O 	0.83310 0.15293 0.09420 -0.48700
O 	O 	0.90590 0.06962 0.10610 -0.39100
O 	O 	0.65240 0.12135 0.13000 -0.53200
C 	C 	0.66540 0.01160 0.89690 0.35100
C 	C 	0.68900 0.95230 0.14420 0.37100
C 	C 	0.66300 0.99470 0.80310 -0.10100
O 	O 	0.61090 0.98528 0.93070 -0.42800
C 	C 	0.69360 0.89400 0.18260 -0.18200
O 	O 	0.61610 0.98345 0.13460 -0.44200
C 	C 	0.73810 0.00710 0.76810 0.03000
C 	C 	0.58390 0.96510 0.74990 0.06800
C 	C 	0.76010 0.85450 0.17070 0.13200
C 	C 	0.63460 0.87800 0.23300 0.12900
C 	C 	0.73340 0.99030 0.68310 -0.14900
H 	H 	0.79190 0.02700 0.80280 0.03500
H 	H 	0.53330 0.95580 0.77250 0.02300
C 	C 	0.57950 0.94920 0.66370 -0.17900
O 	O 	0.53880 0.09382 0.00870 -0.46700
C 	C 	0.76790 0.80190 0.20820 -0.23000
H 	H 	0.80000 0.86440 0.13640 -0.00300
H 	H 	0.58780 0.90330 0.23960 0.00000
C 	C 	0.64350 0.82510 0.27400 -0.22700
C 	C 	0.65350 0.96140 0.62880 0.15000
H 	H 	0.78480 0.99850 0.66110 0.09400
H 	H 	0.52540 0.92980 0.62840 0.10100
C 	C 	0.71140 0.78680 0.26300 0.19100
H 	H 	0.81110 0.77560 0.19730 0.10800
H 	H 	0.60390 0.81530 0.30880 0.12000
N 	N 	0.64890 0.94570 0.53890 -0.18700
N 	N 	0.72510 0.73310 0.30790 -0.20400
C 	C 	0.68350 0.98570 0.48650 0.16500
C 	C 	0.58320 0.90260 0.49440 0.18300
C 	C 	0.81730 0.70620 0.33220 0.18700
C 	C 	0.65020 0.70790 0.33450 0.20200
C 	C 	0.72780 0.96540 0.42490 -0.13800
C 	C 	0.67150 0.04350 0.49360 -0.20400
C 	C 	0.51920 0.91230 0.40960 -0.21100
C 	C 	0.57880 0.85090 0.53470 -0.21900
C 	C 	0.90030 0.73690 0.36600 -0.22800
C 	C 	0.82180 0.64660 0.32150 -0.22300
C 	C 	0.55810 0.70070 0.27550 -0.24000
C 	C 	0.66790 0.68760 0.42220 -0.24100
H 	H 	0.73720 0.92630 0.42040 0.08600
C 	C 	0.75840 0.00330 0.36970 0.01100
C 	C 	0.70190 0.08170 0.43900 0.07400
H 	H 	0.64290 0.05750 0.53530 0.10500
H 	H 	0.52330 0.94600 0.37950 0.11600
C 	C 	0.44920 0.87200 0.36950 0.09900
C 	C 	0.50960 0.81130 0.49560 0.11200
H 	H 	0.62380 0.84260 0.58970 0.11000
H 	H 	0.89680 0.77590 0.37670 0.11100
C 	C 	0.98960 0.71080 0.38460 0.11200
C 	C 	0.90980 0.62070 0.34250 0.12400
H 	H 	0.76550 0.62520 0.30040 0.11800
H 	H 	0.54410 0.71450 0.21710 0.12100
C 	C 	0.48700 0.67350 0.30180 0.15200
C 	C 	0.59780 0.66060 0.44900 0.16400
H 	H 	0.72870 0.69260 0.46320 0.12000
H 	H 	0.78730 0.98940 0.32820 0.05300
C 	C 	0.74550 0.06170 0.37700 -0.11300
H 	H 	0.69280 0.12080 0.44420 0.02200
H 	H 	0.40680 0.87900 0.31260 0.01400
C 	C 	0.44220 0.82170 0.41350 -0.15700
H 	H 	0.50790 0.77680 0.52480 0.00700
H 	H 	0.04570 0.73250 0.40470 -0.01800
C 	C 	0.99540 0.65180 0.37310 -0.18500
H 	H 	0.91290 0.58120 0.33630 0.00600
H 	H 	0.42590 0.66870 0.26110 -0.02000
C 	C 	0.50670 0.65290 0.38990 -0.22900
H 	H 	0.61170 0.64740 0.50770 -0.01200
C 	C 	0.77480 0.10210 0.31480 0.33100
C 	C 	0.36320 0.77970 0.37290 0.34400
C 	C 	0.09070 0.62210 0.39170 0.36300
C 	C 	0.43520 0.62100 0.41920 0.42700
O 	O 	0.75240 0.15370 0.31960 -0.41200
O 	O 	0.32030 0.78060 0.29130 -0.37900
O 	O 	0.34020 0.74440 0.42320 -0.37900
Cd	Cd	0.76650 0.19378 0.19489 1.21700
Cd	Cd	0.25657 0.55809 0.41613 1.23800
O 	O 	0.27620 0.55031 0.56400 -0.41000
O 	O 	0.23760 0.46842 0.37640 -0.41500
O 	O 	0.18340 0.58250 0.23930 -0.38700
O 	O 	0.16690 0.65293 0.40580 -0.48300
O 	O 	0.09410 0.56962 0.39390 -0.38200
O 	O 	0.34760 0.62135 0.37000 -0.53200
C 	C 	0.33460 0.51160 0.60310 0.40200
C 	C 	0.31100 0.45230 0.35580 0.37500
C 	C 	0.33700 0.49470 0.69690 -0.17900
O 	O 	0.38910 0.48528 0.56930 -0.45700
C 	C 	0.30640 0.39400 0.31740 -0.18500
O 	O 	0.38390 0.48345 0.36540 -0.45000
C 	C 	0.26190 0.50710 0.73190 0.12500
C 	C 	0.41610 0.46510 0.75010 0.12200
C 	C 	0.23990 0.35450 0.32930 0.13300
C 	C 	0.36540 0.37800 0.26700 0.13100
C 	C 	0.26660 0.49030 0.81690 -0.22300
H 	H 	0.20810 0.52700 0.69720 0.00600
H 	H 	0.46670 0.45580 0.72750 0.00100
C 	C 	0.42050 0.44920 0.83630 -0.22600
O 	O 	0.46120 0.59382 0.49130 -0.45900
C 	C 	0.23210 0.30190 0.29180 -0.23100
H 	H 	0.20000 0.36440 0.36360 -0.00200
H 	H 	0.41220 0.40330 0.26040 -0.00100
C 	C 	0.35650 0.32510 0.22600 -0.22900
C 	C 	0.34650 0.46140 0.87120 0.18700
H 	H 	0.21520 0.49850 0.83890 0.11700
H 	H 	0.47460 0.42980 0.87160 0.11700
C 	C 	0.28860 0.28680 0.23700 0.19100
H 	H 	0.18890 0.27560 0.30270 0.11000
H 	H 	0.39610 0.31530 0.19120 0.12000
N 	N 	0.35110 0.44570 0.96110 -0.17300
N 	N 	0.27490 0.23310 0.19210 -0.20100
C 	C 	0.31650 0.48570 0.01350 0.16900
C 	C 	0.41680 0.40260 0.00560 0.10000
C 	C 	0.18270 0.20620 0.16780 0.18900
C 	C 	0.34980 0.20790 0.16550 0.18500
C 	C 	0.27220 0.46540 0.07510 -0.19400
C 	C 	0.32850 0.54350 0.00640 -0.23400
C 	C 	0.48080 0.41230 0.09040 -0.14600
C 	C 	0.42120 0.35090 0.96530 -0.09500
C 	C 	0.09970 0.23690 0.13400 -0.23400
C 	C 	0.17820 0.14660 0.17850 -0.22500
C 	C 	0.44190 0.20070 0.22450 -0.22200
C 	C 	0.33210 0.18760 0.07780 -0.20800
H 	H 	0.26280 0.42630 0.07960 0.10200
C 	C 	0.24160 0.50330 0.13030 0.09300
C 	C 	0.29810 0.58170 0.06100 0.10700
H 	H 	0.35710 0.55750 0.96470 0.12800
H 	H 	0.47670 0.44600 0.12050 0.08900
C 	C 	0.55080 0.37200 0.13050 0.03400
C 	C 	0.49040 0.31130 0.00440 -0.01600
H 	H 	0.37620 0.34260 0.91030 0.06900
H 	H 	0.10320 0.27590 0.12330 0.11100
C 	C 	0.01040 0.21080 0.11540 0.11900
C 	C 	0.09020 0.12070 0.15750 0.12600
H 	H 	0.23450 0.12520 0.19960 0.11800
H 	H 	0.45590 0.21450 0.28290 0.11500
C 	C 	0.51300 0.17350 0.19820 0.13300
C 	C 	0.40220 0.16060 0.05100 0.11000
H 	H 	0.27130 0.19260 0.03680 0.10400
H 	H 	0.21270 0.48940 0.17180 0.01300
C 	C 	0.25450 0.56170 0.12300 -0.15000
H 	H 	0.30720 0.62080 0.05580 0.00800
H 	H 	0.59320 0.37900 0.18740 0.03500
C 	C 	0.55780 0.32170 0.08650 -0.09200
H 	H 	0.49210 0.27680 0.97520 0.06100
H 	H 	0.95430 0.23250 0.09530 -0.02500
C 	C 	0.00460 0.15180 0.12690 -0.18800
H 	H 	0.08710 0.08120 0.16370 0.00300
H 	H 	0.57410 0.16870 0.23890 -0.01300
C 	C 	0.49330 0.15290 0.11010 -0.20500
H 	H 	0.38830 0.14740 0.99230 0.01800
C 	C 	0.22520 0.60210 0.18520 0.34500
C 	C 	0.63680 0.27970 0.12710 0.31800
C 	C 	0.90930 0.12210 0.10830 0.36200
C 	C 	0.56480 0.12100 0.08080 0.41700
O 	O 	0.24760 0.65370 0.18040 -0.41600
O 	O 	0.67970 0.28060 0.20870 -0.37300
O 	O 	0.65980 0.24440 0.07680 -0.37800
Cd	Cd	0.23350 0.69378 0.30511 1.21700
Cd	Cd	0.25657 0.94191 0.91613 1.24300
O 	O 	0.27620 0.94969 0.06400 -0.42600
O 	O 	0.23760 0.03158 0.87640 -0.41600
O 	O 	0.18340 0.91750 0.73930 -0.38400
O 	O 	0.16690 0.84707 0.90580 -0.47900
O 	O 	0.09410 0.93038 0.89390 -0.37500
O 	O 	0.34760 0.87865 0.87000 -0.53100
C 	C 	0.33460 0.98840 0.10310 0.46100
C 	C 	0.31100 0.04770 0.85580 0.37700
C 	C 	0.33700 0.00530 0.19690 -0.26500
O 	O 	0.38910 0.01472 0.06930 -0.48700
C 	C 	0.30640 0.10600 0.81740 -0.18600
O 	O 	0.38390 0.01655 0.86540 -0.45300
C 	C 	0.26190 0.99290 0.23190 0.22800
C 	C 	0.41610 0.03490 0.25010 0.18400
C 	C 	0.23990 0.14550 0.82930 0.13500
C 	C 	0.36540 0.12200 0.76700 0.13300
C 	C 	0.26660 0.00970 0.31690 -0.30500
H 	H 	0.20810 0.97300 0.19720 -0.02700
H 	H 	0.46670 0.04420 0.22750 -0.02200
C 	C 	0.42050 0.05080 0.33630 -0.28100
O 	O 	0.46120 0.90618 0.99130 -0.45100
C 	C 	0.23210 0.19810 0.79180 -0.23100
H 	H 	0.20000 0.13560 0.86360 0.00000
H 	H 	0.41220 0.09670 0.76040 -0.00300
C 	C 	0.35650 0.17490 0.72600 -0.23000
C 	C 	0.34650 0.03860 0.37120 0.22800
H 	H 	0.21520 0.00150 0.33890 0.13800
H 	H 	0.47460 0.07020 0.37160 0.13300
C 	C 	0.28860 0.21320 0.73700 0.19300
H 	H 	0.18890 0.22440 0.80270 0.11200
H 	H 	0.39610 0.18470 0.69120 0.12100
N 	N 	0.35110 0.05430 0.46110 -0.20300
N 	N 	0.27490 0.26690 0.69210 -0.20400
C 	C 	0.31650 0.01430 0.51350 0.17100
C 	C 	0.41680 0.09740 0.50560 0.18200
C 	C 	0.18270 0.29380 0.66780 0.18900
C 	C 	0.34980 0.29210 0.66550 0.20300
C 	C 	0.27220 0.03460 0.57510 -0.23000
C 	C 	0.32850 0.95650 0.50640 -0.19600
C 	C 	0.48080 0.08770 0.59040 -0.21100
C 	C 	0.42120 0.14910 0.46530 -0.22100
C 	C 	0.09970 0.26310 0.63400 -0.23100
C 	C 	0.17820 0.35340 0.67850 -0.22300
C 	C 	0.44190 0.29930 0.72450 -0.24000
C 	C 	0.33210 0.31240 0.57780 -0.24100
H 	H 	0.26280 0.07370 0.57960 0.11600
C 	C 	0.24160 0.99670 0.63030 0.14700
C 	C 	0.29810 0.91830 0.56100 0.10100
H 	H 	0.35710 0.94250 0.46470 0.11000
H 	H 	0.47670 0.05400 0.62050 0.10900
C 	C 	0.55080 0.12800 0.63050 0.09700
C 	C 	0.49040 0.18870 0.50440 0.11100
H 	H 	0.37620 0.15740 0.41030 0.11000
H 	H 	0.10320 0.22410 0.62330 0.11100
C 	C 	0.01040 0.28920 0.61540 0.11700
C 	C 	0.09020 0.37930 0.65750 0.12600
H 	H 	0.23450 0.37480 0.69960 0.11900
H 	H 	0.45590 0.28550 0.78290 0.12200
C 	C 	0.51300 0.32650 0.69820 0.15300
C 	C 	0.40220 0.33940 0.55100 0.16500
H 	H 	0.27130 0.30740 0.53680 0.12000
H 	H 	0.21270 0.01060 0.67180 -0.01300
C 	C 	0.25450 0.93830 0.62300 -0.16200
H 	H 	0.30720 0.87920 0.55580 0.01400
H 	H 	0.59320 0.12100 0.68740 0.01300
C 	C 	0.55780 0.17830 0.58650 -0.15700
H 	H 	0.49210 0.22320 0.47520 0.00700
H 	H 	0.95430 0.26750 0.59530 -0.02200
C 	C 	0.00460 0.34820 0.62690 -0.18400
H 	H 	0.08710 0.41880 0.66370 0.00700
H 	H 	0.57410 0.33130 0.73890 -0.01900
C 	C 	0.49330 0.34710 0.61010 -0.22900
H 	H 	0.38830 0.35260 0.49230 -0.01200
C 	C 	0.22520 0.89790 0.68520 0.35100
C 	C 	0.63680 0.22030 0.62710 0.34300
C 	C 	0.90930 0.37790 0.60830 0.36200
C 	C 	0.56480 0.37900 0.58080 0.42700
O 	O 	0.24760 0.84630 0.68040 -0.41400
O 	O 	0.67970 0.21940 0.70870 -0.37800
O 	O 	0.65980 0.25560 0.57680 -0.37900
Cd	Cd	0.23350 0.80622 0.80511 1.21800
Cd	Cd	0.74343 0.44191 0.58387 1.23800
O 	O 	0.72380 0.44969 0.43600 -0.41100
O 	O 	0.76240 0.53158 0.62360 -0.41500
O 	O 	0.81660 0.41750 0.76070 -0.38400
O 	O 	0.83310 0.34707 0.59420 -0.48300
O 	O 	0.90590 0.43038 0.60610 -0.38200
O 	O 	0.65240 0.37865 0.63000 -0.53200
C 	C 	0.66540 0.48840 0.39690 0.40300
C 	C 	0.68900 0.54770 0.64420 0.37500
C 	C 	0.66300 0.50530 0.30310 -0.18100
O 	O 	0.61090 0.51472 0.43070 -0.45700
C 	C 	0.69360 0.60600 0.68260 -0.18500
O 	O 	0.61610 0.51655 0.63460 -0.45000
C 	C 	0.73810 0.49290 0.26810 0.12500
C 	C 	0.58390 0.53490 0.24990 0.12500
C 	C 	0.76010 0.64550 0.67070 0.13500
C 	C 	0.63460 0.62200 0.73300 0.13300
C 	C 	0.73340 0.50970 0.18310 -0.22500
H 	H 	0.79190 0.47300 0.30280 0.00500
H 	H 	0.53330 0.54420 0.27250 0.00100
C 	C 	0.57950 0.55080 0.16370 -0.23000
O 	O 	0.53880 0.40618 0.50870 -0.45900
C 	C 	0.76790 0.69810 0.70820 -0.23200
H 	H 	0.80000 0.63560 0.63640 -0.00200
H 	H 	0.58780 0.59670 0.73960 -0.00200
C 	C 	0.64350 0.67490 0.77400 -0.23000
C 	C 	0.65350 0.53860 0.12880 0.18800
H 	H 	0.78480 0.50150 0.16110 0.11200
H 	H 	0.52540 0.57020 0.12840 0.11500
C 	C 	0.71140 0.71320 0.76300 0.19300
H 	H 	0.81110 0.72440 0.69730 0.11100
H 	H 	0.60390 0.68470 0.80880 0.12100
N 	N 	0.64890 0.55430 0.03890 -0.21500
N 	N 	0.72510 0.76690 0.80790 -0.20600
C 	C 	0.68350 0.51430 0.98650 0.16900
C 	C 	0.58320 0.59740 0.99440 0.25800
C 	C 	0.81730 0.79380 0.83220 0.18800
C 	C 	0.65020 0.79210 0.83450 0.21600
C 	C 	0.72780 0.53460 0.92490 -0.18600
C 	C 	0.67150 0.45650 0.99360 -0.16600
C 	C 	0.51920 0.58770 0.90960 -0.27200
C 	C 	0.57880 0.64910 0.03470 -0.33400
C 	C 	0.90030 0.76310 0.86600 -0.22700
C 	C 	0.82180 0.85340 0.82150 -0.21900
C 	C 	0.55810 0.79930 0.77550 -0.25400
C 	C 	0.66790 0.81240 0.92220 -0.26700
H 	H 	0.73720 0.57370 0.92040 0.10300
C 	C 	0.75840 0.49670 0.86970 0.08200
C 	C 	0.70190 0.41830 0.93900 0.07100
H 	H 	0.64290 0.44250 0.03530 0.08700
H 	H 	0.52330 0.55400 0.87950 0.13400
C 	C 	0.44920 0.62800 0.86950 0.15600
C 	C 	0.50960 0.68870 0.99560 0.22700
H 	H 	0.62380 0.65740 0.08970 0.14700
H 	H 	0.89680 0.72410 0.87670 0.11200
C 	C 	0.98960 0.78920 0.88460 0.11200
C 	C 	0.90980 0.87930 0.84250 0.12300
H 	H 	0.76550 0.87480 0.80040 0.11800
H 	H 	0.54410 0.78550 0.71710 0.12700
C 	C 	0.48700 0.82650 0.80180 0.16800
C 	C 	0.59780 0.83940 0.94900 0.20900
H 	H 	0.72870 0.80740 0.96320 0.13300
H 	H 	0.78730 0.51060 0.82820 0.01800
C 	C 	0.74550 0.43830 0.87700 -0.13100
H 	H 	0.69280 0.37920 0.94420 0.02800
H 	H 	0.40680 0.62100 0.81260 -0.00600
C 	C 	0.44220 0.67830 0.91350 -0.21700
H 	H 	0.50790 0.72320 0.02480 -0.04200
H 	H 	0.04570 0.76750 0.90470 -0.01700
C 	C 	0.99540 0.84820 0.87310 -0.18000
H 	H 	0.91290 0.91880 0.83630 0.01100
H 	H 	0.42590 0.83130 0.76110 -0.02400
C 	C 	0.50670 0.84710 0.88990 -0.24800
H 	H 	0.61170 0.85260 0.00770 -0.03600
C 	C 	0.77480 0.39790 0.81480 0.33900
C 	C 	0.36320 0.72030 0.87290 0.36600
C 	C 	0.09070 0.87790 0.89170 0.36100
C 	C 	0.43520 0.87900 0.91920 0.43500
O 	O 	0.75240 0.34630 0.81960 -0.41100
O 	O 	0.32030 0.71940 0.79130 -0.38400
O 	O 	0.34020 0.75560 0.92320 -0.38100
Cd	Cd	0.76650 0.30622 0.69489 1.21800
Cd	Cd	0.50000 0.00000 -0.00000 1.23700
Cd	Cd	0.50000 0.50000 0.50000 1.24700
