data_crystal

_cell_length_a 14.39970
_cell_length_b 23.36200
_cell_length_c 15.54300
_cell_angle_alpha 90.00000
_cell_angle_beta  106.30900
_cell_angle_gamma 90.00000

_symmetry_space_group_name_	'P 1'
_symmetry_space_group_name_H-M	'P 1'

loop_
_symmetry_equiv_pos_as_xyz
  x,y,z

loop_
_atom_site_label
_atom_site_type_symbol
_atom_site_fract_x
_atom_site_fract_y
_atom_site_fract_z
_atom_site_charge
Cd	Cd	0.25889 0.05907 0.92450 1.24900
C 	C 	0.41790 0.89970 0.51540 0.19600
C 	C 	0.48110 0.90830 0.59580 -0.24200
H 	H 	0.47510 0.94180 0.62610 0.12500
C 	C 	0.55300 0.87190 0.63620 0.12500
H 	H 	0.59420 0.88130 0.69200 0.01000
C 	C 	0.56610 0.82230 0.59710 -0.14500
C 	C 	0.50100 0.81260 0.51860 0.09200
H 	H 	0.50710 0.77830 0.49030 0.01900
C 	C 	0.42250 0.84900 0.47280 -0.20900
H 	H 	0.37840 0.83900 0.41860 0.10900
C 	C 	0.64560 0.77640 0.62440 0.32500
C 	C 	0.34470 0.95740 0.37420 0.23600
C 	C 	0.41700 0.94520 0.34070 -0.26600
H 	H 	0.47000 0.92460 0.37440 0.13100
C 	C 	0.41320 0.96360 0.25350 0.15000
H 	H 	0.46540 0.95690 0.23070 -0.00500
C 	C 	0.33710 0.98990 0.20490 -0.17400
C 	C 	0.26430 0.00110 0.23880 0.12100
H 	H 	0.21160 0.02210 0.20550 0.00800
C 	C 	0.26620 0.98190 0.32250 -0.24800
H 	H 	0.21180 0.98610 0.34300 0.13200
C 	C 	0.33520 0.00820 0.11030 0.36400
C 	C 	0.31400 0.98380 0.51680 0.19900
C 	C 	0.26310 0.96350 0.57680 -0.16100
H 	H 	0.24780 0.92500 0.57960 0.09700
C 	C 	0.23580 0.00660 0.63430 0.04300
H 	H 	0.20870 0.99470 0.67900 0.04400
C 	C 	0.24970 0.06440 0.62310 -0.16000
C 	C 	0.29540 0.07710 0.56350 0.14800
H 	H 	0.30740 0.11570 0.55610 0.00200
C 	C 	0.32700 0.03900 0.51160 -0.26900
H 	H 	0.35880 0.05260 0.47120 0.12800
C 	C 	0.21810 0.10220 0.68000 0.31100
C 	C 	0.64440 0.20890 0.83070 0.20000
C 	C 	0.66530 0.18540 0.91790 -0.24400
H 	H 	0.72680 0.18810 0.95780 0.13000
C 	C 	0.59370 0.15930 0.94090 0.17000
H 	H 	0.60630 0.14480 0.99870 -0.00900
C 	C 	0.50350 0.15280 0.88480 -0.20300
C 	C 	0.48370 0.17450 0.79990 0.15100
H 	H 	0.42180 0.17070 0.76100 0.01900
C 	C 	0.55360 0.20170 0.77150 -0.23700
H 	H 	0.54030 0.21530 0.71300 0.12400
C 	C 	0.42660 0.12050 0.91420 0.42100
C 	C 	0.70980 0.28570 0.75440 0.18300
C 	C 	0.63920 0.32650 0.76100 -0.24100
H 	H 	0.59490 0.31750 0.79250 0.12700
C 	C 	0.63610 0.37780 0.72200 0.17100
H 	H 	0.58860 0.40350 0.72710 -0.01300
C 	C 	0.69490 0.39350 0.67790 -0.19400
C 	C 	0.76740 0.35530 0.66960 0.11400
H 	H 	0.81180 0.36730 0.64010 0.01300
C 	C 	0.77470 0.30000 0.70400 -0.20700
H 	H 	0.81960 0.27380 0.69450 0.11200
C 	C 	0.69720 0.45150 0.63870 0.35300
C 	C 	0.81740 0.20490 0.82660 0.19200
C 	C 	0.89700 0.23650 0.86270 -0.21900
H 	H 	0.89220 0.27550 0.87290 0.12000
C 	C 	0.98550 0.20990 0.88410 0.11100
H 	H 	0.04080 0.23210 0.90530 0.02700
C 	C 	0.99600 0.14980 0.87520 -0.14600
C 	C 	0.91110 0.12130 0.83660 0.11100
H 	H 	0.91370 0.08190 0.82930 0.01700
C 	C 	0.82040 0.14840 0.80770 -0.21500
H 	H 	0.76500 0.12850 0.77700 0.11700
C 	C 	0.08990 0.12350 0.89900 0.34300
N 	N 	0.35190 0.94260 0.46510 -0.20400
N 	N 	0.72180 0.23310 0.80180 -0.19500
O 	O 	0.68410 0.78450 0.71500 -0.18800
O 	O 	0.66670 0.74440 0.57760 -0.23600
O 	O 	0.39580 0.98550 0.07740 -0.43900
O 	O 	0.27220 0.04480 0.06680 -0.40900
O 	O 	0.18210 0.08470 0.74210 -0.27300
O 	O 	0.24530 0.15630 0.67540 -0.19000
O 	O 	0.44790 0.09260 0.98390 -0.46700
O 	O 	0.34270 0.12070 0.86570 -0.38800
O 	O 	0.62170 0.48100 0.62850 -0.44500
O 	O 	0.77370 0.46960 0.61920 -0.38900
O 	O 	0.09220 0.06960 0.90000 -0.34300
O 	O 	0.16650 0.15180 0.91400 -0.29500
Cd	Cd	0.74111 0.55907 0.57550 1.24700
C 	C 	0.58210 0.39970 0.98460 0.29400
C 	C 	0.51890 0.40830 0.90420 -0.33700
H 	H 	0.52490 0.44180 0.87390 0.15400
C 	C 	0.44700 0.37190 0.86380 0.21400
H 	H 	0.40580 0.38130 0.80800 -0.02300
C 	C 	0.43390 0.32230 0.90290 -0.23000
C 	C 	0.49900 0.31260 0.98140 0.22900
H 	H 	0.49290 0.27830 0.00970 -0.04000
C 	C 	0.57750 0.34900 0.02720 -0.34400
H 	H 	0.62160 0.33900 0.08140 0.15100
C 	C 	0.35440 0.27640 0.87560 0.35500
C 	C 	0.65530 0.45740 0.12580 0.31700
C 	C 	0.58300 0.44520 0.15930 -0.36600
H 	H 	0.53000 0.42460 0.12560 0.16200
C 	C 	0.58680 0.46360 0.24650 0.26300
H 	H 	0.53460 0.45690 0.26930 -0.04500
C 	C 	0.66290 0.48990 0.29510 -0.30400
C 	C 	0.73570 0.50110 0.26120 0.27400
H 	H 	0.78840 0.52210 0.29450 -0.04000
C 	C 	0.73380 0.48190 0.17750 -0.37800
H 	H 	0.78820 0.48610 0.15700 0.16900
C 	C 	0.66480 0.50820 0.38970 0.43200
C 	C 	0.68600 0.48380 0.98320 0.18800
C 	C 	0.73690 0.46350 0.92320 -0.18300
H 	H 	0.75220 0.42500 0.92040 0.10500
C 	C 	0.76420 0.50660 0.86570 0.08400
H 	H 	0.79130 0.49470 0.82100 0.02100
C 	C 	0.75030 0.56440 0.87690 -0.16000
C 	C 	0.70460 0.57710 0.93650 0.12600
H 	H 	0.69260 0.61570 0.94390 0.01500
C 	C 	0.67300 0.53900 0.98840 -0.21200
H 	H 	0.64120 0.55260 0.02880 0.10100
C 	C 	0.78190 0.60220 0.82000 0.31300
C 	C 	0.35560 0.70890 0.66930 0.20000
C 	C 	0.33470 0.68540 0.58210 -0.24800
H 	H 	0.27320 0.68810 0.54220 0.12700
C 	C 	0.40630 0.65930 0.55910 0.17100
H 	H 	0.39370 0.64480 0.50130 -0.01500
C 	C 	0.49650 0.65280 0.61520 -0.20800
C 	C 	0.51630 0.67450 0.70010 0.15300
H 	H 	0.57820 0.67070 0.73900 0.01900
C 	C 	0.44640 0.70170 0.72850 -0.23900
H 	H 	0.45970 0.71530 0.78700 0.12500
C 	C 	0.57340 0.62050 0.58580 0.42200
C 	C 	0.29020 0.78570 0.74560 0.18100
C 	C 	0.36080 0.82650 0.73900 -0.23700
H 	H 	0.40510 0.81750 0.70750 0.12500
C 	C 	0.36390 0.87780 0.77800 0.16600
H 	H 	0.41140 0.90350 0.77290 -0.00900
C 	C 	0.30510 0.89350 0.82210 -0.18700
C 	C 	0.23260 0.85530 0.83040 0.11100
H 	H 	0.18820 0.86730 0.85990 0.01800
C 	C 	0.22530 0.80000 0.79600 -0.20400
H 	H 	0.18040 0.77380 0.80550 0.11400
C 	C 	0.30280 0.95150 0.86130 0.35000
C 	C 	0.18260 0.70490 0.67340 0.19200
C 	C 	0.10300 0.73650 0.63730 -0.22100
H 	H 	0.10780 0.77550 0.62710 0.12000
C 	C 	0.01450 0.70990 0.61590 0.11300
H 	H 	0.95920 0.73210 0.59470 0.02400
C 	C 	0.00400 0.64980 0.62480 -0.14700
C 	C 	0.08890 0.62130 0.66340 0.11100
H 	H 	0.08630 0.58190 0.67070 0.01900
C 	C 	0.17960 0.64840 0.69230 -0.21400
H 	H 	0.23500 0.62850 0.72300 0.11800
C 	C 	0.91010 0.62350 0.60100 0.34200
N 	N 	0.64810 0.44260 0.03490 -0.24100
N 	N 	0.27820 0.73310 0.69820 -0.19400
O 	O 	0.31590 0.28450 0.78500 -0.19400
O 	O 	0.33330 0.24440 0.92240 -0.24100
O 	O 	0.60420 0.48550 0.42260 -0.46300
O 	O 	0.72780 0.54480 0.43320 -0.41300
O 	O 	0.81790 0.58470 0.75790 -0.26900
O 	O 	0.75470 0.65630 0.82460 -0.18800
O 	O 	0.55210 0.59260 0.51610 -0.47400
O 	O 	0.65730 0.62070 0.63430 -0.38800
O 	O 	0.37830 0.98100 0.87150 -0.43400
O 	O 	0.22630 0.96960 0.88080 -0.37900
O 	O 	0.90780 0.56960 0.60000 -0.34200
O 	O 	0.83350 0.65180 0.58600 -0.29800
Cd	Cd	0.74111 0.94093 0.07550 1.24800
C 	C 	0.58210 0.10030 0.48460 0.20000
C 	C 	0.51890 0.09170 0.40420 -0.24800
H 	H 	0.52490 0.05820 0.37390 0.12000
C 	C 	0.44700 0.12810 0.36380 0.12700
H 	H 	0.40580 0.11870 0.30800 0.00400
C 	C 	0.43390 0.17770 0.40290 -0.15000
C 	C 	0.49900 0.18740 0.48140 0.09500
H 	H 	0.49290 0.22170 0.50970 0.01700
C 	C 	0.57750 0.15100 0.52720 -0.21800
H 	H 	0.62160 0.16100 0.58140 0.11000
C 	C 	0.35440 0.22360 0.37560 0.32600
C 	C 	0.65530 0.04260 0.62580 0.38100
C 	C 	0.58300 0.05480 0.65930 -0.44300
H 	H 	0.53000 0.07540 0.62560 0.19000
C 	C 	0.58680 0.03640 0.74650 0.35000
H 	H 	0.53460 0.04310 0.76930 -0.07700
C 	C 	0.66290 0.01010 0.79510 -0.40800
C 	C 	0.73570 0.99890 0.76120 0.40000
H 	H 	0.78840 0.97790 0.79450 -0.07800
C 	C 	0.73380 0.01810 0.67750 -0.48200
H 	H 	0.78820 0.01390 0.65700 0.20500
C 	C 	0.66480 0.99180 0.88970 0.48600
C 	C 	0.68600 0.01620 0.48320 0.19300
C 	C 	0.73690 0.03650 0.42320 -0.22400
H 	H 	0.75220 0.07500 0.42040 0.11600
C 	C 	0.76420 0.99340 0.36570 0.14700
H 	H 	0.79130 0.00530 0.32100 -0.00900
C 	C 	0.75030 0.93560 0.37690 -0.20100
C 	C 	0.70460 0.92290 0.43650 0.17000
H 	H 	0.69260 0.88430 0.44390 -0.00300
C 	C 	0.67300 0.96100 0.48840 -0.25600
H 	H 	0.64120 0.94740 0.52880 0.13000
C 	C 	0.78190 0.89780 0.32000 0.32900
C 	C 	0.35560 0.79110 0.16930 0.20000
C 	C 	0.33470 0.81460 0.08210 -0.24900
H 	H 	0.27320 0.81190 0.04220 0.12400
C 	C 	0.40630 0.84070 0.05910 0.17200
H 	H 	0.39370 0.85520 0.00130 -0.02000
C 	C 	0.49650 0.84720 0.11520 -0.21100
C 	C 	0.51630 0.82550 0.20010 0.15400
H 	H 	0.57820 0.82930 0.23900 0.01800
C 	C 	0.44640 0.79830 0.22850 -0.24000
H 	H 	0.45970 0.78470 0.28700 0.12500
C 	C 	0.57340 0.87950 0.08580 0.42200
C 	C 	0.29020 0.71430 0.24560 0.18200
C 	C 	0.36080 0.67350 0.23900 -0.24200
H 	H 	0.40510 0.68250 0.20750 0.12600
C 	C 	0.36390 0.62220 0.27800 0.17000
H 	H 	0.41140 0.59650 0.27290 -0.01300
C 	C 	0.30510 0.60650 0.32210 -0.19400
C 	C 	0.23260 0.64470 0.33040 0.11300
H 	H 	0.18820 0.63270 0.35990 0.01300
C 	C 	0.22530 0.70000 0.29600 -0.20800
H 	H 	0.18040 0.72620 0.30550 0.11300
C 	C 	0.30280 0.54850 0.36130 0.35300
C 	C 	0.18260 0.79510 0.17340 0.19000
C 	C 	0.10300 0.76350 0.13730 -0.22200
H 	H 	0.10780 0.72450 0.12710 0.11700
C 	C 	0.01450 0.79010 0.11590 0.11300
H 	H 	0.95920 0.76790 0.09470 0.02000
C 	C 	0.00400 0.85020 0.12480 -0.14600
C 	C 	0.08890 0.87870 0.16340 0.10900
H 	H 	0.08630 0.91810 0.17070 0.02100
C 	C 	0.17960 0.85160 0.19230 -0.21300
H 	H 	0.23500 0.87150 0.22300 0.11700
C 	C 	0.91010 0.87650 0.10100 0.34000
N 	N 	0.64810 0.05740 0.53490 -0.22900
N 	N 	0.27820 0.76690 0.19820 -0.19500
O 	O 	0.31590 0.21550 0.28500 -0.19300
O 	O 	0.33330 0.25560 0.42240 -0.23700
O 	O 	0.60420 0.01450 0.92260 -0.47800
O 	O 	0.72780 0.95520 0.93320 -0.41500
O 	O 	0.81790 0.91530 0.25790 -0.27100
O 	O 	0.75470 0.84370 0.32460 -0.19400
O 	O 	0.55210 0.90740 0.01610 -0.47800
O 	O 	0.65730 0.87930 0.13430 -0.38800
O 	O 	0.37830 0.51900 0.37150 -0.44500
O 	O 	0.22630 0.53040 0.38080 -0.38900
O 	O 	0.90780 0.93040 0.10000 -0.34200
O 	O 	0.83350 0.84820 0.08600 -0.30000
Cd	Cd	0.25889 0.44093 0.42450 1.24800
C 	C 	0.41790 0.60030 0.01540 0.10600
C 	C 	0.48110 0.59170 0.09580 -0.15800
H 	H 	0.47510 0.55820 0.12610 0.09200
C 	C 	0.55300 0.62810 0.13620 0.04100
H 	H 	0.59420 0.61870 0.19200 0.03500
C 	C 	0.56610 0.67770 0.09710 -0.07000
C 	C 	0.50100 0.68740 0.01860 -0.03500
H 	H 	0.50710 0.72170 0.99030 0.07300
C 	C 	0.42250 0.65100 0.97280 -0.09000
H 	H 	0.37840 0.66100 0.91860 0.06900
C 	C 	0.64560 0.72360 0.12440 0.29600
C 	C 	0.34470 0.54260 0.87420 0.31300
C 	C 	0.41700 0.55480 0.84070 -0.35900
H 	H 	0.47000 0.57540 0.87440 0.16400
C 	C 	0.41320 0.53640 0.75350 0.25600
H 	H 	0.46540 0.54310 0.73070 -0.04300
C 	C 	0.33710 0.51010 0.70490 -0.29900
C 	C 	0.26430 0.49890 0.73880 0.27000
H 	H 	0.21160 0.47790 0.70550 -0.03700
C 	C 	0.26620 0.51810 0.82250 -0.37200
H 	H 	0.21180 0.51390 0.84300 0.17400
C 	C 	0.33520 0.49180 0.61030 0.43000
C 	C 	0.31400 0.51620 0.01680 0.20400
C 	C 	0.26310 0.53650 0.07680 -0.20300
H 	H 	0.24780 0.57500 0.07960 0.10800
C 	C 	0.23580 0.49340 0.13430 0.10900
H 	H 	0.20870 0.50530 0.17900 0.01200
C 	C 	0.24970 0.43560 0.12310 -0.20100
C 	C 	0.29540 0.42290 0.06350 0.19300
H 	H 	0.30740 0.38430 0.05610 -0.01600
C 	C 	0.32700 0.46100 0.01160 -0.31200
H 	H 	0.35880 0.44740 0.97120 0.15700
C 	C 	0.21810 0.39780 0.18000 0.32700
C 	C 	0.64440 0.29110 0.33070 0.19900
C 	C 	0.66530 0.31460 0.41790 -0.24700
H 	H 	0.72680 0.31190 0.45780 0.12700
C 	C 	0.59370 0.34070 0.44090 0.17100
H 	H 	0.60630 0.35520 0.49870 -0.01500
C 	C 	0.50350 0.34720 0.38480 -0.20800
C 	C 	0.48370 0.32550 0.29990 0.15300
H 	H 	0.42180 0.32930 0.26100 0.01800
C 	C 	0.55360 0.29830 0.27150 -0.23900
H 	H 	0.54030 0.28470 0.21300 0.12300
C 	C 	0.42660 0.37950 0.41420 0.42200
C 	C 	0.70980 0.21430 0.25440 0.18300
C 	C 	0.63920 0.17350 0.26100 -0.24600
H 	H 	0.59490 0.18250 0.29250 0.12700
C 	C 	0.63610 0.12220 0.22200 0.17500
H 	H 	0.58860 0.09650 0.22710 -0.01700
C 	C 	0.69490 0.10650 0.17790 -0.20100
C 	C 	0.76740 0.14470 0.16960 0.11500
H 	H 	0.81180 0.13270 0.14010 0.00800
C 	C 	0.77470 0.20000 0.20400 -0.21100
H 	H 	0.81960 0.22620 0.19450 0.11100
C 	C 	0.69720 0.04850 0.13870 0.35500
C 	C 	0.81740 0.29510 0.32660 0.19000
C 	C 	0.89700 0.26350 0.36270 -0.21900
H 	H 	0.89220 0.22450 0.37290 0.11700
C 	C 	0.98550 0.29010 0.38410 0.10800
H 	H 	0.04080 0.26790 0.40530 0.02500
C 	C 	0.99600 0.35020 0.37520 -0.14800
C 	C 	0.91110 0.37870 0.33660 0.11000
H 	H 	0.91370 0.41810 0.32930 0.01800
C 	C 	0.82040 0.35160 0.30770 -0.21400
H 	H 	0.76500 0.37150 0.27700 0.11600
C 	C 	0.08990 0.37650 0.39900 0.34300
N 	N 	0.35190 0.55740 0.96510 -0.19500
N 	N 	0.72180 0.26690 0.30180 -0.19500
O 	O 	0.68410 0.71550 0.21500 -0.18700
O 	O 	0.66670 0.75560 0.07760 -0.23300
O 	O 	0.39580 0.51450 0.57740 -0.46200
O 	O 	0.27220 0.45520 0.56680 -0.41200
O 	O 	0.18210 0.41530 0.24210 -0.27500
O 	O 	0.24530 0.34370 0.17540 -0.19600
O 	O 	0.44790 0.40740 0.48390 -0.47400
O 	O 	0.34270 0.37930 0.36570 -0.38800
O 	O 	0.62170 0.01900 0.12850 -0.45500
O 	O 	0.77370 0.03040 0.11920 -0.39900
O 	O 	0.09220 0.43040 0.40000 -0.34300
O 	O 	0.16650 0.34820 0.41400 -0.29800
Cd	Cd	0.50000 0.00000 -0.00000 1.23800
Cd	Cd	0.50000 0.50000 0.50000 1.24800
