data_crystal

_cell_length_a 9.66300
_cell_length_b 9.66300
_cell_length_c 20.22400
_cell_angle_alpha 90.00000
_cell_angle_beta  90.00000
_cell_angle_gamma 120.00000

_symmetry_space_group_name_	'P 1'
_symmetry_space_group_name_H-M	'P 1'

loop_
_symmetry_equiv_pos_as_xyz
  x,y,z

loop_
_atom_site_label
_atom_site_type_symbol
_atom_site_fract_x
_atom_site_fract_y
_atom_site_fract_z
_atom_site_charge
Zn	Zn	0.93547 0.50641 0.41623 1.17800
N 	N 	0.34800 0.83030 0.51356 -0.28100
N 	N 	0.40840 0.81230 0.45320 -0.15300
N 	N 	0.14190 0.68310 0.44900 -0.32100
N 	N 	0.08670 0.74590 0.55670 -0.28200
H 	H 	0.98770 0.65190 0.56240 0.09400
H 	H 	0.11910 0.78900 0.59790 0.10300
N 	N 	0.21650 0.42000 0.28900 -0.32600
N 	N 	0.03010 0.42630 0.35050 -0.27200
N 	N 	0.96060 0.27420 0.32250 -0.14000
N 	N 	0.05950 0.15020 0.25060 -0.25600
H 	H 	0.95510 0.07660 0.23410 0.09200
H 	H 	0.11670 0.16490 0.21260 0.08300
C 	C 	0.19000 0.75160 0.50900 0.16800
C 	C 	0.28240 0.72470 0.41750 0.16600
C 	C 	0.29330 0.67930 0.34680 -0.36200
H 	H 	0.27360 0.74840 0.31670 0.10400
H 	H 	0.40350 0.70120 0.33860 0.09100
C 	C 	0.17990 0.50980 0.33010 0.14800
C 	C 	0.07670 0.27900 0.28640 0.16800
Zn	Zn	0.49359 0.42906 0.74956 1.17900
N 	N 	0.16970 0.51770 0.84689 -0.28200
N 	N 	0.18770 0.59610 0.78653 -0.15400
N 	N 	0.31690 0.45880 0.78233 -0.32100
N 	N 	0.25410 0.34080 0.89003 -0.28200
H 	H 	0.34810 0.33580 0.89573 0.09400
H 	H 	0.21100 0.33010 0.93123 0.10300
N 	N 	0.58000 0.79650 0.62233 -0.32600
N 	N 	0.57370 0.60380 0.68383 -0.27400
N 	N 	0.72580 0.68640 0.65583 -0.13800
N 	N 	0.84980 0.90930 0.58393 -0.25700
H 	H 	0.92340 0.87850 0.56743 0.09400
H 	H 	0.83510 0.95180 0.54593 0.08300
C 	C 	0.24840 0.43840 0.84233 0.16700
C 	C 	0.27530 0.55770 0.75083 0.16600
C 	C 	0.32070 0.61400 0.68013 -0.36100
H 	H 	0.25160 0.52520 0.65003 0.10300
H 	H 	0.29880 0.70230 0.67193 0.09000
C 	C 	0.49020 0.67010 0.66343 0.14700
C 	C 	0.72100 0.79770 0.61973 0.16600
Zn	Zn	0.57094 0.06453 0.08290 1.17800
N 	N 	0.48230 0.65200 0.18023 -0.28100
N 	N 	0.40390 0.59160 0.11987 -0.15300
N 	N 	0.54120 0.85810 0.11567 -0.31900
N 	N 	0.65920 0.91330 0.22337 -0.28000
H 	H 	0.66420 0.01230 0.22907 0.09200
H 	H 	0.66990 0.88090 0.26457 0.10400
N 	N 	0.20350 0.78350 0.95567 -0.32500
N 	N 	0.39620 0.96990 0.01717 -0.26900
N 	N 	0.31360 0.03940 0.98917 -0.13700
N 	N 	0.09070 0.94050 0.91727 -0.25900
H 	H 	0.12150 0.04490 0.90077 0.09600
H 	H 	0.04820 0.88330 0.87927 0.08200
C 	C 	0.56160 0.81000 0.17567 0.16800
C 	C 	0.44230 0.71760 0.08417 0.16400
C 	C 	0.38600 0.70670 0.01347 -0.35100
H 	H 	0.47480 0.72640 0.98337 0.09900
H 	H 	0.29770 0.59650 0.00527 0.08800
C 	C 	0.32990 0.82010 0.99677 0.14000
C 	C 	0.20230 0.92330 0.95307 0.16400
Zn	Zn	0.50641 0.93547 0.58377 1.17800
N 	N 	0.83030 0.34800 0.48644 -0.28100
N 	N 	0.81230 0.40840 0.54680 -0.15300
N 	N 	0.68310 0.14190 0.55100 -0.32100
N 	N 	0.74590 0.08670 0.44330 -0.28200
H 	H 	0.65190 0.98770 0.43760 0.09400
H 	H 	0.78900 0.11910 0.40210 0.10300
N 	N 	0.42000 0.21650 0.71100 -0.32600
N 	N 	0.42630 0.03010 0.64950 -0.27200
N 	N 	0.27420 0.96060 0.67750 -0.14000
N 	N 	0.15020 0.05950 0.74940 -0.25600
H 	H 	0.07660 0.95510 0.76590 0.09200
H 	H 	0.16490 0.11670 0.78740 0.08300
C 	C 	0.75160 0.19000 0.49100 0.16800
C 	C 	0.72470 0.28240 0.58250 0.16600
C 	C 	0.67930 0.29330 0.65320 -0.36200
H 	H 	0.74840 0.27360 0.68330 0.10400
H 	H 	0.70120 0.40350 0.66140 0.09100
C 	C 	0.50980 0.17990 0.66990 0.14800
C 	C 	0.27900 0.07670 0.71360 0.16800
Zn	Zn	0.42906 0.49359 0.25044 1.17900
N 	N 	0.51770 0.16970 0.15311 -0.28200
N 	N 	0.59610 0.18770 0.21347 -0.15400
N 	N 	0.45880 0.31690 0.21767 -0.32100
N 	N 	0.34080 0.25410 0.10997 -0.28200
H 	H 	0.33580 0.34810 0.10427 0.09400
H 	H 	0.33010 0.21100 0.06877 0.10300
N 	N 	0.79650 0.58000 0.37767 -0.32600
N 	N 	0.60380 0.57370 0.31617 -0.27400
N 	N 	0.68640 0.72580 0.34417 -0.13800
N 	N 	0.90930 0.84980 0.41607 -0.25700
H 	H 	0.87850 0.92340 0.43257 0.09400
H 	H 	0.95180 0.83510 0.45407 0.08300
C 	C 	0.43840 0.24840 0.15767 0.16700
C 	C 	0.55770 0.27530 0.24917 0.16600
C 	C 	0.61400 0.32070 0.31987 -0.36100
H 	H 	0.52520 0.25160 0.34997 0.10300
H 	H 	0.70230 0.29880 0.32807 0.09000
C 	C 	0.67010 0.49020 0.33657 0.14700
C 	C 	0.79770 0.72100 0.38027 0.16600
Zn	Zn	0.06453 0.57094 0.91710 1.17800
N 	N 	0.65200 0.48230 0.81977 -0.28100
N 	N 	0.59160 0.40390 0.88013 -0.15300
N 	N 	0.85810 0.54120 0.88433 -0.31900
N 	N 	0.91330 0.65920 0.77663 -0.28000
H 	H 	0.01230 0.66420 0.77093 0.09200
H 	H 	0.88090 0.66990 0.73543 0.10400
N 	N 	0.78350 0.20350 0.04433 -0.32500
N 	N 	0.96990 0.39620 0.98283 -0.26900
N 	N 	0.03940 0.31360 0.01083 -0.13700
N 	N 	0.94050 0.09070 0.08273 -0.25900
H 	H 	0.04490 0.12150 0.09923 0.09600
H 	H 	0.88330 0.04820 0.12073 0.08200
C 	C 	0.81000 0.56160 0.82433 0.16800
C 	C 	0.71760 0.44230 0.91583 0.16400
C 	C 	0.70670 0.38600 0.98653 -0.35100
H 	H 	0.72640 0.47480 0.01663 0.09900
H 	H 	0.59650 0.29770 0.99473 0.08800
C 	C 	0.82010 0.32990 0.00323 0.14000
C 	C 	0.92330 0.20230 0.04693 0.16400
