data_crystal

_cell_length_a 9.67670
_cell_length_b 9.67670
_cell_length_c 20.17200
_cell_angle_alpha 90.00000
_cell_angle_beta  90.00000
_cell_angle_gamma 120.00000

_symmetry_space_group_name_	'P 1'
_symmetry_space_group_name_H-M	'P 1'

loop_
_symmetry_equiv_pos_as_xyz
  x,y,z

loop_
_atom_site_label
_atom_site_type_symbol
_atom_site_fract_x
_atom_site_fract_y
_atom_site_fract_z
_atom_site_charge
Zn	Zn	0.93515 0.50554 0.41626 1.17900
N 	N 	0.34770 0.83110 0.51312 -0.27900
N 	N 	0.40750 0.81440 0.45271 -0.15200
N 	N 	0.14130 0.68250 0.44879 -0.31900
N 	N 	0.08650 0.74560 0.55654 -0.28400
H 	H 	0.98920 0.65080 0.56290 0.09500
H 	H 	0.11960 0.79100 0.59710 0.10300
N 	N 	0.21610 0.42110 0.28851 -0.32700
N 	N 	0.03100 0.42810 0.34960 -0.27400
N 	N 	0.96120 0.27480 0.32264 -0.14200
N 	N 	0.06100 0.15150 0.24920 -0.27100
H 	H 	0.95620 0.06650 0.24640 0.10100
H 	H 	0.09090 0.16370 0.20660 0.09400
C 	C 	0.18870 0.75120 0.50880 0.16700
C 	C 	0.28120 0.72540 0.41720 0.16400
C 	C 	0.29260 0.67950 0.34580 -0.36000
H 	H 	0.27280 0.74830 0.31560 0.10400
H 	H 	0.40280 0.70170 0.33770 0.08900
C 	C 	0.17930 0.50920 0.32891 0.15400
C 	C 	0.07720 0.28000 0.28560 0.16500
Zn	Zn	0.49446 0.42961 0.74959 1.17900
N 	N 	0.16890 0.51660 0.84645 -0.28100
N 	N 	0.18560 0.59310 0.78604 -0.15300
N 	N 	0.31750 0.45880 0.78212 -0.32100
N 	N 	0.25440 0.34090 0.88987 -0.28500
H 	H 	0.34920 0.33840 0.89623 0.09500
H 	H 	0.20900 0.32860 0.93043 0.10300
N 	N 	0.57890 0.79500 0.62184 -0.32700
N 	N 	0.57190 0.60290 0.68293 -0.27500
N 	N 	0.72520 0.68640 0.65597 -0.14000
N 	N 	0.84850 0.90950 0.58253 -0.27300
H 	H 	0.93350 0.88970 0.57973 0.10300
H 	H 	0.83630 0.92720 0.53993 0.09400
C 	C 	0.24880 0.43750 0.84213 0.16700
C 	C 	0.27460 0.55580 0.75053 0.16400
C 	C 	0.32050 0.61310 0.67913 -0.36000
H 	H 	0.25170 0.52450 0.64893 0.10300
H 	H 	0.29830 0.70110 0.67103 0.08800
C 	C 	0.49080 0.67010 0.66224 0.15400
C 	C 	0.72000 0.79720 0.61893 0.16300
Zn	Zn	0.57039 0.06485 0.08293 1.17700
N 	N 	0.48340 0.65230 0.17979 -0.28000
N 	N 	0.40690 0.59250 0.11938 -0.15200
N 	N 	0.54120 0.85870 0.11546 -0.31900
N 	N 	0.65910 0.91350 0.22321 -0.28300
H 	H 	0.66160 0.01080 0.22957 0.09200
H 	H 	0.67140 0.88040 0.26377 0.10300
N 	N 	0.20500 0.78390 0.95518 -0.32600
N 	N 	0.39710 0.96900 0.01627 -0.27000
N 	N 	0.31360 0.03880 0.98931 -0.13900
N 	N 	0.09050 0.93900 0.91587 -0.27400
H 	H 	0.11030 0.04380 0.91307 0.10400
H 	H 	0.07280 0.90910 0.87327 0.09300
C 	C 	0.56250 0.81130 0.17547 0.16800
C 	C 	0.44420 0.71880 0.08387 0.16200
C 	C 	0.38690 0.70740 0.01247 -0.35000
H 	H 	0.47550 0.72720 0.98227 0.09900
H 	H 	0.29890 0.59720 0.00437 0.08600
C 	C 	0.32990 0.82070 0.99558 0.14600
C 	C 	0.20280 0.92280 0.95227 0.16100
Zn	Zn	0.50554 0.93515 0.58374 1.17800
N 	N 	0.83110 0.34770 0.48688 -0.28000
N 	N 	0.81440 0.40750 0.54729 -0.15300
N 	N 	0.68250 0.14130 0.55121 -0.32000
N 	N 	0.74560 0.08650 0.44346 -0.28500
H 	H 	0.65080 0.98920 0.43710 0.09400
H 	H 	0.79100 0.11960 0.40290 0.10300
N 	N 	0.42110 0.21610 0.71149 -0.32700
N 	N 	0.42810 0.03100 0.65040 -0.27400
N 	N 	0.27480 0.96120 0.67736 -0.14200
N 	N 	0.15150 0.06100 0.75080 -0.27100
H 	H 	0.06650 0.95620 0.75360 0.10100
H 	H 	0.16370 0.09090 0.79340 0.09400
C 	C 	0.75120 0.18870 0.49120 0.16700
C 	C 	0.72540 0.28120 0.58280 0.16400
C 	C 	0.67950 0.29260 0.65420 -0.36000
H 	H 	0.74830 0.27280 0.68440 0.10400
H 	H 	0.70170 0.40280 0.66230 0.08900
C 	C 	0.50920 0.17930 0.67109 0.15400
C 	C 	0.28000 0.07720 0.71440 0.16500
Zn	Zn	0.42961 0.49446 0.25041 1.17900
N 	N 	0.51660 0.16890 0.15355 -0.28100
N 	N 	0.59310 0.18560 0.21396 -0.15300
N 	N 	0.45880 0.31750 0.21788 -0.32100
N 	N 	0.34090 0.25440 0.11013 -0.28500
H 	H 	0.33840 0.34920 0.10377 0.09500
H 	H 	0.32860 0.20900 0.06957 0.10300
N 	N 	0.79500 0.57890 0.37816 -0.32700
N 	N 	0.60290 0.57190 0.31707 -0.27500
N 	N 	0.68640 0.72520 0.34403 -0.14000
N 	N 	0.90950 0.84850 0.41747 -0.27300
H 	H 	0.88970 0.93350 0.42027 0.10300
H 	H 	0.92720 0.83630 0.46007 0.09400
C 	C 	0.43750 0.24880 0.15787 0.16700
C 	C 	0.55580 0.27460 0.24947 0.16400
C 	C 	0.61310 0.32050 0.32087 -0.36000
H 	H 	0.52450 0.25170 0.35107 0.10300
H 	H 	0.70110 0.29830 0.32897 0.08800
C 	C 	0.67010 0.49080 0.33776 0.15400
C 	C 	0.79720 0.72000 0.38107 0.16300
Zn	Zn	0.06485 0.57039 0.91707 1.17700
N 	N 	0.65230 0.48340 0.82021 -0.28000
N 	N 	0.59250 0.40690 0.88062 -0.15200
N 	N 	0.85870 0.54120 0.88454 -0.31900
N 	N 	0.91350 0.65910 0.77679 -0.28300
H 	H 	0.01080 0.66160 0.77043 0.09200
H 	H 	0.88040 0.67140 0.73623 0.10300
N 	N 	0.78390 0.20500 0.04482 -0.32600
N 	N 	0.96900 0.39710 0.98373 -0.27000
N 	N 	0.03880 0.31360 0.01069 -0.13900
N 	N 	0.93900 0.09050 0.08413 -0.27400
H 	H 	0.04380 0.11030 0.08693 0.10400
H 	H 	0.90910 0.07280 0.12673 0.09300
C 	C 	0.81130 0.56250 0.82453 0.16800
C 	C 	0.71880 0.44420 0.91613 0.16200
C 	C 	0.70740 0.38690 0.98753 -0.35000
H 	H 	0.72720 0.47550 0.01773 0.09900
H 	H 	0.59720 0.29890 0.99563 0.08600
C 	C 	0.82070 0.32990 0.00442 0.14600
C 	C 	0.92280 0.20280 0.04773 0.16100
