data_crystal

_cell_length_a 9.76820
_cell_length_b 9.76820
_cell_length_c 20.10000
_cell_angle_alpha 90.00000
_cell_angle_beta  90.00000
_cell_angle_gamma 120.00000

_symmetry_space_group_name_	'P 1'
_symmetry_space_group_name_H-M	'P 1'

loop_
_symmetry_equiv_pos_as_xyz
  x,y,z

loop_
_atom_site_label
_atom_site_type_symbol
_atom_site_fract_x
_atom_site_fract_y
_atom_site_fract_z
_atom_site_charge
Zn	Zn	0.95877 0.51032 0.41565 1.17900
N 	N 	0.36130 0.84920 0.51170 -0.28000
N 	N 	0.42640 0.82580 0.45370 -0.15200
N 	N 	0.16150 0.68930 0.44760 -0.32100
N 	N 	0.09890 0.76170 0.55120 -0.28000
H 	H 	0.00090 0.66720 0.55740 0.09200
H 	H 	0.13140 0.80620 0.59210 0.10400
N 	N 	0.24020 0.41770 0.29290 -0.32600
N 	N 	0.05790 0.42730 0.35480 -0.27600
N 	N 	0.98600 0.27570 0.32690 -0.13800
N 	N 	0.08240 0.15110 0.25340 -0.25700
H 	H 	0.99550 0.10450 0.22360 0.09300
H 	H 	0.16540 0.16450 0.22840 0.08600
C 	C 	0.20440 0.76570 0.50600 0.16600
C 	C 	0.30350 0.72960 0.41780 0.16700
C 	C 	0.32030 0.67510 0.35010 -0.36700
H 	H 	0.30920 0.74290 0.31650 0.10400
H 	H 	0.42860 0.69180 0.34600 0.09300
C 	C 	0.20580 0.50680 0.33380 0.15400
C 	C 	0.09990 0.27880 0.29000 0.16400
Zn	Zn	0.48968 0.44845 0.74898 1.17800
N 	N 	0.15080 0.51210 0.84503 -0.28100
N 	N 	0.17420 0.60060 0.78703 -0.15300
N 	N 	0.31070 0.47220 0.78093 -0.32200
N 	N 	0.23830 0.33720 0.88453 -0.28100
H 	H 	0.33280 0.33370 0.89073 0.09100
H 	H 	0.19380 0.32520 0.92543 0.10400
N 	N 	0.58230 0.82250 0.62623 -0.32600
N 	N 	0.57270 0.63060 0.68813 -0.27700
N 	N 	0.72430 0.71030 0.66023 -0.13700
N 	N 	0.84890 0.93130 0.58673 -0.25900
H 	H 	0.89550 0.89100 0.55693 0.09500
H 	H 	0.83550 0.00090 0.56173 0.08800
C 	C 	0.23430 0.43870 0.83933 0.16600
C 	C 	0.27040 0.57390 0.75113 0.16700
C 	C 	0.32490 0.64520 0.68343 -0.36700
H 	H 	0.25710 0.56630 0.64983 0.10300
H 	H 	0.30820 0.73680 0.67933 0.09300
C 	C 	0.49320 0.69900 0.66713 0.15300
C 	C 	0.72120 0.82110 0.62333 0.16300
Zn	Zn	0.55155 0.04123 0.08232 1.17700
N 	N 	0.48790 0.63870 0.17837 -0.28100
N 	N 	0.39940 0.57360 0.12037 -0.15300
N 	N 	0.52780 0.83850 0.11427 -0.32200
N 	N 	0.66280 0.90110 0.21787 -0.28100
H 	H 	0.66630 0.99910 0.22407 0.09200
H 	H 	0.67480 0.86860 0.25877 0.10400
N 	N 	0.17750 0.75980 0.95957 -0.32700
N 	N 	0.36940 0.94210 0.02147 -0.27600
N 	N 	0.28970 0.01400 0.99357 -0.13600
N 	N 	0.06870 0.91760 0.92007 -0.26100
H 	H 	0.10900 0.00450 0.89027 0.09600
H 	H 	0.99910 0.83460 0.89507 0.08900
C 	C 	0.56130 0.79560 0.17267 0.16600
C 	C 	0.42610 0.69650 0.08447 0.16700
C 	C 	0.35480 0.67970 0.01677 -0.36500
H 	H 	0.43370 0.69080 0.98317 0.10200
H 	H 	0.26320 0.57140 0.01267 0.09300
C 	C 	0.30100 0.79420 0.00047 0.15500
C 	C 	0.17890 0.90010 0.95667 0.16100
Zn	Zn	0.51032 0.95877 0.58435 1.17800
N 	N 	0.84920 0.36130 0.48830 -0.28100
N 	N 	0.82580 0.42640 0.54630 -0.15300
N 	N 	0.68930 0.16150 0.55240 -0.32200
N 	N 	0.76170 0.09890 0.44880 -0.28100
H 	H 	0.66720 0.00090 0.44260 0.09100
H 	H 	0.80620 0.13140 0.40790 0.10400
N 	N 	0.41770 0.24020 0.70710 -0.32600
N 	N 	0.42730 0.05790 0.64520 -0.27600
N 	N 	0.27570 0.98600 0.67310 -0.13800
N 	N 	0.15110 0.08240 0.74660 -0.25700
H 	H 	0.10450 0.99550 0.77640 0.09300
H 	H 	0.16450 0.16540 0.77160 0.08600
C 	C 	0.76570 0.20440 0.49400 0.16600
C 	C 	0.72960 0.30350 0.58220 0.16700
C 	C 	0.67510 0.32030 0.64990 -0.36700
H 	H 	0.74290 0.30920 0.68350 0.10400
H 	H 	0.69180 0.42860 0.65400 0.09300
C 	C 	0.50680 0.20580 0.66620 0.15400
C 	C 	0.27880 0.09990 0.71000 0.16400
Zn	Zn	0.44845 0.48968 0.25102 1.17800
N 	N 	0.51210 0.15080 0.15497 -0.28100
N 	N 	0.60060 0.17420 0.21297 -0.15300
N 	N 	0.47220 0.31070 0.21907 -0.32200
N 	N 	0.33720 0.23830 0.11547 -0.28100
H 	H 	0.33370 0.33280 0.10927 0.09100
H 	H 	0.32520 0.19380 0.07457 0.10400
N 	N 	0.82250 0.58230 0.37377 -0.32600
N 	N 	0.63060 0.57270 0.31187 -0.27700
N 	N 	0.71030 0.72430 0.33977 -0.13700
N 	N 	0.93130 0.84890 0.41327 -0.25900
H 	H 	0.89100 0.89550 0.44307 0.09500
H 	H 	0.00090 0.83550 0.43827 0.08800
C 	C 	0.43870 0.23430 0.16067 0.16600
C 	C 	0.57390 0.27040 0.24887 0.16700
C 	C 	0.64520 0.32490 0.31657 -0.36700
H 	H 	0.56630 0.25710 0.35017 0.10300
H 	H 	0.73680 0.30820 0.32067 0.09300
C 	C 	0.69900 0.49320 0.33287 0.15300
C 	C 	0.82110 0.72120 0.37667 0.16300
Zn	Zn	0.04123 0.55155 0.91768 1.17700
N 	N 	0.63870 0.48790 0.82163 -0.28100
N 	N 	0.57360 0.39940 0.87963 -0.15300
N 	N 	0.83850 0.52780 0.88573 -0.32200
N 	N 	0.90110 0.66280 0.78213 -0.28100
H 	H 	0.99910 0.66630 0.77593 0.09200
H 	H 	0.86860 0.67480 0.74123 0.10400
N 	N 	0.75980 0.17750 0.04043 -0.32700
N 	N 	0.94210 0.36940 0.97853 -0.27600
N 	N 	0.01400 0.28970 0.00643 -0.13600
N 	N 	0.91760 0.06870 0.07993 -0.26100
H 	H 	0.00450 0.10900 0.10973 0.09600
H 	H 	0.83460 0.99910 0.10493 0.08900
C 	C 	0.79560 0.56130 0.82733 0.16600
C 	C 	0.69650 0.42610 0.91553 0.16700
C 	C 	0.67970 0.35480 0.98323 -0.36500
H 	H 	0.69080 0.43370 0.01683 0.10200
H 	H 	0.57140 0.26320 0.98733 0.09300
C 	C 	0.79420 0.30100 0.99953 0.15500
C 	C 	0.90010 0.17890 0.04333 0.16100
