data_crystal

_cell_length_a 9.68960
_cell_length_b 9.68960
_cell_length_c 20.15300
_cell_angle_alpha 90.00000
_cell_angle_beta  90.00000
_cell_angle_gamma 120.00000

_symmetry_space_group_name_	'P 1'
_symmetry_space_group_name_H-M	'P 1'

loop_
_symmetry_equiv_pos_as_xyz
  x,y,z

loop_
_atom_site_label
_atom_site_type_symbol
_atom_site_fract_x
_atom_site_fract_y
_atom_site_fract_z
_atom_site_charge
Zn	Zn	0.93674 0.50690 0.41598 1.17700
N 	N 	0.34850 0.83150 0.51349 -0.28100
N 	N 	0.40900 0.81350 0.45329 -0.15500
N 	N 	0.14290 0.68250 0.44901 -0.32300
N 	N 	0.08820 0.74570 0.55686 -0.28300
H 	H 	0.98740 0.65340 0.56130 0.09300
H 	H 	0.12000 0.78470 0.59860 0.10500
N 	N 	0.21680 0.41990 0.28902 -0.32600
N 	N 	0.03150 0.42690 0.35025 -0.27300
N 	N 	0.96290 0.27590 0.32220 -0.13900
N 	N 	0.05930 0.15050 0.24970 -0.25500
H 	H 	0.95810 0.08360 0.22900 0.09100
H 	H 	0.12490 0.16480 0.21470 0.08300
C 	C 	0.19020 0.75120 0.50930 0.16700
C 	C 	0.28290 0.72410 0.41780 0.16800
C 	C 	0.29390 0.67810 0.34710 -0.36500
H 	H 	0.27450 0.74700 0.31680 0.10400
H 	H 	0.40390 0.70010 0.33910 0.09100
C 	C 	0.18100 0.50860 0.33010 0.15200
C 	C 	0.07680 0.27860 0.28610 0.16700
Zn	Zn	0.49310 0.42984 0.74931 1.17800
N 	N 	0.16850 0.51700 0.84682 -0.28000
N 	N 	0.18650 0.59550 0.78662 -0.15400
N 	N 	0.31750 0.46040 0.78234 -0.32200
N 	N 	0.25430 0.34250 0.89019 -0.28300
H 	H 	0.34660 0.33400 0.89463 0.09300
H 	H 	0.21530 0.33530 0.93193 0.10400
N 	N 	0.58010 0.79690 0.62235 -0.32600
N 	N 	0.57310 0.60460 0.68358 -0.27400
N 	N 	0.72410 0.68700 0.65553 -0.13700
N 	N 	0.84950 0.90880 0.58303 -0.25700
H 	H 	0.91640 0.87450 0.56233 0.09300
H 	H 	0.83520 0.96010 0.54803 0.08300
C 	C 	0.24880 0.43900 0.84263 0.16700
C 	C 	0.27590 0.55880 0.75113 0.16800
C 	C 	0.32190 0.61580 0.68043 -0.36500
H 	H 	0.25300 0.52750 0.65013 0.10400
H 	H 	0.29990 0.70380 0.67243 0.09000
C 	C 	0.49140 0.67240 0.66343 0.15100
C 	C 	0.72140 0.79820 0.61943 0.16500
Zn	Zn	0.57016 0.06326 0.08265 1.17700
N 	N 	0.48300 0.65150 0.18016 -0.28000
N 	N 	0.40450 0.59100 0.11996 -0.15300
N 	N 	0.53960 0.85710 0.11568 -0.32000
N 	N 	0.65750 0.91180 0.22353 -0.28100
H 	H 	0.66600 0.01260 0.22797 0.09100
H 	H 	0.66470 0.88000 0.26527 0.10500
N 	N 	0.20310 0.78320 0.95569 -0.32500
N 	N 	0.39540 0.96850 0.01692 -0.26900
N 	N 	0.31300 0.03710 0.98887 -0.13700
N 	N 	0.09120 0.94070 0.91637 -0.25800
H 	H 	0.12550 0.04190 0.89567 0.09400
H 	H 	0.03990 0.87510 0.88137 0.08200
C 	C 	0.56100 0.80980 0.17597 0.16800
C 	C 	0.44120 0.71710 0.08447 0.16600
C 	C 	0.38420 0.70610 0.01377 -0.35400
H 	H 	0.47250 0.72550 0.98347 0.10000
H 	H 	0.29620 0.59610 0.00577 0.08900
C 	C 	0.32760 0.81900 0.99677 0.14400
C 	C 	0.20180 0.92320 0.95277 0.16300
Zn	Zn	0.50690 0.93674 0.58402 1.17800
N 	N 	0.83150 0.34850 0.48651 -0.28000
N 	N 	0.81350 0.40900 0.54671 -0.15400
N 	N 	0.68250 0.14290 0.55099 -0.32200
N 	N 	0.74570 0.08820 0.44314 -0.28300
H 	H 	0.65340 0.98740 0.43870 0.09300
H 	H 	0.78470 0.12000 0.40140 0.10500
N 	N 	0.41990 0.21680 0.71098 -0.32600
N 	N 	0.42690 0.03150 0.64975 -0.27300
N 	N 	0.27590 0.96290 0.67780 -0.13900
N 	N 	0.15050 0.05930 0.75030 -0.25500
H 	H 	0.08360 0.95810 0.77100 0.09100
H 	H 	0.16480 0.12490 0.78530 0.08300
C 	C 	0.75120 0.19020 0.49070 0.16700
C 	C 	0.72410 0.28290 0.58220 0.16800
C 	C 	0.67810 0.29390 0.65290 -0.36500
H 	H 	0.74700 0.27450 0.68320 0.10400
H 	H 	0.70010 0.40390 0.66090 0.09100
C 	C 	0.50860 0.18100 0.66990 0.15200
C 	C 	0.27860 0.07680 0.71390 0.16700
Zn	Zn	0.42984 0.49310 0.25069 1.17800
N 	N 	0.51700 0.16850 0.15318 -0.28000
N 	N 	0.59550 0.18650 0.21338 -0.15400
N 	N 	0.46040 0.31750 0.21766 -0.32200
N 	N 	0.34250 0.25430 0.10981 -0.28300
H 	H 	0.33400 0.34660 0.10537 0.09300
H 	H 	0.33530 0.21530 0.06807 0.10400
N 	N 	0.79690 0.58010 0.37765 -0.32600
N 	N 	0.60460 0.57310 0.31642 -0.27400
N 	N 	0.68700 0.72410 0.34447 -0.13700
N 	N 	0.90880 0.84950 0.41697 -0.25700
H 	H 	0.87450 0.91640 0.43767 0.09300
H 	H 	0.96010 0.83520 0.45197 0.08300
C 	C 	0.43900 0.24880 0.15737 0.16700
C 	C 	0.55880 0.27590 0.24887 0.16800
C 	C 	0.61580 0.32190 0.31957 -0.36500
H 	H 	0.52750 0.25300 0.34987 0.10400
H 	H 	0.70380 0.29990 0.32757 0.09000
C 	C 	0.67240 0.49140 0.33657 0.15100
C 	C 	0.79820 0.72140 0.38057 0.16500
Zn	Zn	0.06326 0.57016 0.91735 1.17700
N 	N 	0.65150 0.48300 0.81984 -0.28000
N 	N 	0.59100 0.40450 0.88004 -0.15300
N 	N 	0.85710 0.53960 0.88432 -0.32000
N 	N 	0.91180 0.65750 0.77647 -0.28100
H 	H 	0.01260 0.66600 0.77203 0.09100
H 	H 	0.88000 0.66470 0.73473 0.10500
N 	N 	0.78320 0.20310 0.04431 -0.32500
N 	N 	0.96850 0.39540 0.98308 -0.26900
N 	N 	0.03710 0.31300 0.01113 -0.13700
N 	N 	0.94070 0.09120 0.08363 -0.25800
H 	H 	0.04190 0.12550 0.10433 0.09400
H 	H 	0.87510 0.03990 0.11863 0.08200
C 	C 	0.80980 0.56100 0.82403 0.16800
C 	C 	0.71710 0.44120 0.91553 0.16600
C 	C 	0.70610 0.38420 0.98623 -0.35400
H 	H 	0.72550 0.47250 0.01653 0.10000
H 	H 	0.59610 0.29620 0.99423 0.08900
C 	C 	0.81900 0.32760 0.00323 0.14400
C 	C 	0.92320 0.20180 0.04723 0.16300
