data_crystal

_cell_length_a 11.47660
_cell_length_b 11.47660
_cell_length_c 30.55540
_cell_angle_alpha 90.00000
_cell_angle_beta  90.00000
_cell_angle_gamma 90.00000

_symmetry_space_group_name_	'P 1'
_symmetry_space_group_name_H-M	'P 1'

loop_
_symmetry_equiv_pos_as_xyz
  x,y,z

loop_
_atom_site_label
_atom_site_type_symbol
_atom_site_fract_x
_atom_site_fract_y
_atom_site_fract_z
_atom_site_charge
C 	C 	0.10070 0.01760 0.32851 -0.12500
H 	H 	0.10090 0.10030 0.32720 0.06200
C 	C 	0.90760 0.97020 0.42760 -0.12800
H 	H 	0.89870 0.88790 0.42680 0.06300
C 	C 	0.84920 0.03440 0.45824 0.06300
H 	H 	0.80100 0.99410 0.47850 -0.01100
N 	N 	0.85580 0.15100 0.46155 -0.23900
C 	C 	0.15730 0.95480 0.29700 0.06400
H 	H 	0.19540 0.99580 0.27410 -0.01700
N 	N 	0.16150 0.83830 0.29695 -0.23700
C 	C 	0.04400 0.84000 0.36162 -0.12600
H 	H 	0.00400 0.79670 0.38340 0.06800
C 	C 	0.92890 0.20210 0.43371 0.07100
H 	H 	0.93950 0.28390 0.43610 -0.01400
C 	C 	0.98980 0.14430 0.40183 -0.13000
H 	H 	0.03900 0.18700 0.38260 0.06900
C 	C 	0.98090 0.02610 0.39719 0.04600
C 	C 	0.10390 0.78290 0.32862 0.06800
H 	H 	0.10390 0.70020 0.32850 -0.01200
C 	C 	0.04280 0.96150 0.36256 0.04200
C 	C 	0.39930 0.48240 0.32851 -0.13100
H 	H 	0.39910 0.39970 0.32720 0.06200
C 	C 	0.59240 0.52980 0.42760 -0.12900
H 	H 	0.60130 0.61210 0.42680 0.06300
C 	C 	0.65080 0.46560 0.45824 0.06500
H 	H 	0.69900 0.50590 0.47850 -0.01200
N 	N 	0.64420 0.34900 0.46155 -0.23900
C 	C 	0.34270 0.54520 0.29700 0.06700
H 	H 	0.30460 0.50420 0.27410 -0.01800
N 	N 	0.33850 0.66170 0.29695 -0.23700
C 	C 	0.45600 0.66000 0.36162 -0.12700
H 	H 	0.49600 0.70330 0.38340 0.06800
C 	C 	0.57110 0.29790 0.43371 0.07000
H 	H 	0.56050 0.21610 0.43610 -0.01400
C 	C 	0.51020 0.35570 0.40183 -0.12800
H 	H 	0.46100 0.31300 0.38260 0.06800
C 	C 	0.51910 0.47390 0.39719 0.04500
C 	C 	0.39610 0.71710 0.32862 0.06900
H 	H 	0.39610 0.79980 0.32850 -0.01200
C 	C 	0.45720 0.53850 0.36256 0.04500
C 	C 	0.51760 0.60070 0.17149 -0.13100
H 	H 	0.60030 0.60090 0.17280 0.06200
C 	C 	0.47020 0.40760 0.07240 -0.13100
H 	H 	0.38790 0.39870 0.07320 0.06200
C 	C 	0.53440 0.34920 0.04176 0.06300
H 	H 	0.49410 0.30100 0.02150 -0.01900
N 	N 	0.65100 0.35580 0.03845 -0.24400
C 	C 	0.45480 0.65730 0.20300 0.06700
H 	H 	0.49580 0.69540 0.22590 -0.01800
N 	N 	0.33830 0.66150 0.20305 -0.23700
C 	C 	0.34000 0.54400 0.13838 -0.12700
H 	H 	0.29670 0.50400 0.11660 0.06800
C 	C 	0.70210 0.42890 0.06629 0.06800
H 	H 	0.78390 0.43950 0.06390 -0.01700
C 	C 	0.64430 0.48980 0.09817 -0.13000
H 	H 	0.68700 0.53900 0.11740 0.06800
C 	C 	0.52610 0.48090 0.10281 0.04500
C 	C 	0.28290 0.60390 0.17138 0.06900
H 	H 	0.20020 0.60390 0.17150 -0.01200
C 	C 	0.46150 0.54280 0.13744 0.04400
C 	C 	0.98240 0.89930 0.17149 -0.13000
H 	H 	0.89970 0.89910 0.17280 0.06200
C 	C 	0.02980 0.09240 0.07240 -0.12500
H 	H 	0.11210 0.10130 0.07320 0.06000
C 	C 	0.96560 0.15080 0.04176 0.05800
H 	H 	0.00590 0.19900 0.02150 -0.01600
N 	N 	0.84900 0.14420 0.03845 -0.24300
C 	C 	0.04520 0.84270 0.20300 0.06600
H 	H 	0.00420 0.80460 0.22590 -0.01800
N 	N 	0.16170 0.83850 0.20305 -0.23700
C 	C 	0.16000 0.95600 0.13838 -0.12700
H 	H 	0.20330 0.99600 0.11660 0.06800
C 	C 	0.79790 0.07110 0.06629 0.06700
H 	H 	0.71610 0.06050 0.06390 -0.01700
C 	C 	0.85570 0.01020 0.09817 -0.12800
H 	H 	0.81300 0.96100 0.11740 0.06700
C 	C 	0.97390 0.01910 0.10281 0.04200
C 	C 	0.21710 0.89610 0.17138 0.06900
H 	H 	0.29980 0.89610 0.17150 -0.01200
C 	C 	0.03850 0.95720 0.13744 0.04400
C 	C 	0.51760 0.89930 0.67149 -0.13100
H 	H 	0.60030 0.89910 0.67280 0.06200
C 	C 	0.47020 0.09240 0.57240 -0.12900
H 	H 	0.38790 0.10130 0.57320 0.06300
C 	C 	0.53440 0.15080 0.54176 0.06500
H 	H 	0.49410 0.19900 0.52150 -0.01200
N 	N 	0.65100 0.14420 0.53845 -0.24000
C 	C 	0.45480 0.84270 0.70300 0.06700
H 	H 	0.49580 0.80460 0.72590 -0.01800
N 	N 	0.33830 0.83850 0.70305 -0.23700
C 	C 	0.34000 0.95600 0.63838 -0.12700
H 	H 	0.29670 0.99600 0.61660 0.06800
C 	C 	0.70210 0.07110 0.56629 0.07000
H 	H 	0.78390 0.06050 0.56390 -0.01400
C 	C 	0.64430 0.01020 0.59817 -0.12900
H 	H 	0.68700 0.96100 0.61740 0.06800
C 	C 	0.52610 0.01910 0.60281 0.04600
C 	C 	0.28290 0.89610 0.67138 0.06900
H 	H 	0.20020 0.89610 0.67150 -0.01200
C 	C 	0.46150 0.95720 0.63744 0.04400
C 	C 	0.98240 0.60070 0.67149 -0.13200
H 	H 	0.89970 0.60090 0.67280 0.06300
C 	C 	0.02980 0.40760 0.57240 -0.12600
H 	H 	0.11210 0.39870 0.57320 0.06200
C 	C 	0.96560 0.34920 0.54176 0.06200
H 	H 	0.00590 0.30100 0.52150 -0.01100
N 	N 	0.84900 0.35580 0.53845 -0.23900
C 	C 	0.04520 0.65730 0.70300 0.06800
H 	H 	0.00420 0.69540 0.72590 -0.01900
N 	N 	0.16170 0.66150 0.70305 -0.23800
C 	C 	0.16000 0.54400 0.63838 -0.12800
H 	H 	0.20330 0.50400 0.61660 0.06900
C 	C 	0.79790 0.42890 0.56629 0.06900
H 	H 	0.71610 0.43950 0.56390 -0.01400
C 	C 	0.85570 0.48980 0.59817 -0.12700
H 	H 	0.81300 0.53900 0.61740 0.06800
C 	C 	0.97390 0.48090 0.60281 0.04300
C 	C 	0.21710 0.60390 0.67138 0.06900
H 	H 	0.29980 0.60390 0.67150 -0.01200
C 	C 	0.03850 0.54280 0.63744 0.04600
C 	C 	0.10070 0.48240 0.82851 -0.13100
H 	H 	0.10090 0.39970 0.82720 0.06300
C 	C 	0.90760 0.52980 0.92760 -0.12600
H 	H 	0.89870 0.61210 0.92680 0.06400
C 	C 	0.84920 0.46560 0.95824 0.06700
H 	H 	0.80100 0.50590 0.97850 -0.00400
N 	N 	0.85580 0.34900 0.96155 -0.23200
C 	C 	0.15730 0.54520 0.79700 0.06700
H 	H 	0.19540 0.50420 0.77410 -0.01800
N 	N 	0.16150 0.66170 0.79695 -0.23800
C 	C 	0.04400 0.66000 0.86162 -0.12700
H 	H 	0.00400 0.70330 0.88340 0.06900
C 	C 	0.92890 0.29790 0.93371 0.07200
H 	H 	0.93950 0.21610 0.93610 -0.01000
C 	C 	0.98980 0.35570 0.90183 -0.12700
H 	H 	0.03900 0.31300 0.88260 0.06900
C 	C 	0.98090 0.47390 0.89719 0.04600
C 	C 	0.10390 0.71710 0.82862 0.06900
H 	H 	0.10390 0.79980 0.82850 -0.01200
C 	C 	0.04280 0.53850 0.86256 0.04500
C 	C 	0.39930 0.01760 0.82851 -0.12900
H 	H 	0.39910 0.10030 0.82720 0.06200
C 	C 	0.59240 0.97020 0.92760 -0.12700
H 	H 	0.60130 0.88790 0.92680 0.06400
C 	C 	0.65080 0.03440 0.95824 0.06600
H 	H 	0.69900 0.99410 0.97850 -0.00400
N 	N 	0.64420 0.15100 0.96155 -0.23200
C 	C 	0.34270 0.95480 0.79700 0.06600
H 	H 	0.30460 0.99580 0.77410 -0.01800
N 	N 	0.33850 0.83830 0.79695 -0.23700
C 	C 	0.45600 0.84000 0.86162 -0.12700
H 	H 	0.49600 0.79670 0.88340 0.06900
C 	C 	0.57110 0.20210 0.93371 0.07200
H 	H 	0.56050 0.28390 0.93610 -0.01000
C 	C 	0.51020 0.14430 0.90183 -0.12600
H 	H 	0.46100 0.18700 0.88260 0.06900
C 	C 	0.51910 0.02610 0.89719 0.04600
C 	C 	0.39610 0.78290 0.82862 0.06800
H 	H 	0.39610 0.70020 0.82850 -0.01200
C 	C 	0.45720 0.96150 0.86256 0.04400
Cu	Cu	0.75000 0.25000 0.50000 0.85300
Cu	Cu	0.75000 0.25000 -0.00000 0.84200
Cu	Cu	0.25000 0.75000 0.25000 0.85000
Cu	Cu	0.25000 0.75000 0.75000 0.85000
C 	C 	0.48240 0.10070 0.32851 -0.13100
H 	H 	0.39970 0.10090 0.32720 0.06200
C 	C 	0.52980 0.90760 0.42760 -0.12900
H 	H 	0.61210 0.89870 0.42680 0.06300
C 	C 	0.46560 0.84920 0.45824 0.06500
H 	H 	0.50590 0.80100 0.47850 -0.01200
N 	N 	0.34900 0.85580 0.46155 -0.24000
C 	C 	0.54520 0.15730 0.29700 0.06700
H 	H 	0.50420 0.19540 0.27410 -0.01800
N 	N 	0.66170 0.16150 0.29695 -0.23700
C 	C 	0.66000 0.04400 0.36162 -0.12700
H 	H 	0.70330 0.00400 0.38340 0.06800
C 	C 	0.29790 0.92890 0.43371 0.07100
H 	H 	0.21610 0.93950 0.43610 -0.01400
C 	C 	0.35570 0.98980 0.40183 -0.12900
H 	H 	0.31300 0.03900 0.38260 0.06900
C 	C 	0.47390 0.98090 0.39719 0.04600
C 	C 	0.71710 0.10390 0.32862 0.06900
H 	H 	0.79980 0.10390 0.32850 -0.01200
C 	C 	0.53850 0.04280 0.36256 0.04500
C 	C 	0.01760 0.39930 0.32851 -0.12900
H 	H 	0.10030 0.39910 0.32720 0.06200
C 	C 	0.97020 0.59240 0.42760 -0.13000
H 	H 	0.88790 0.60130 0.42680 0.06300
C 	C 	0.03440 0.65080 0.45824 0.06500
H 	H 	0.99410 0.69900 0.47850 -0.01200
N 	N 	0.15100 0.64420 0.46155 -0.24000
C 	C 	0.95480 0.34270 0.29700 0.06600
H 	H 	0.99580 0.30460 0.27410 -0.01800
N 	N 	0.83830 0.33850 0.29695 -0.23700
C 	C 	0.84000 0.45600 0.36162 -0.12600
H 	H 	0.79670 0.49600 0.38340 0.06800
C 	C 	0.20210 0.57110 0.43371 0.07000
H 	H 	0.28390 0.56050 0.43610 -0.01400
C 	C 	0.14430 0.51020 0.40183 -0.12900
H 	H 	0.18700 0.46100 0.38260 0.06800
C 	C 	0.02610 0.51910 0.39719 0.04700
C 	C 	0.78290 0.39610 0.32862 0.06800
H 	H 	0.70020 0.39610 0.32850 -0.01200
C 	C 	0.96150 0.45720 0.36256 0.04300
C 	C 	0.89930 0.51760 0.17149 -0.13000
H 	H 	0.89910 0.60030 0.17280 0.06200
C 	C 	0.09240 0.47020 0.07240 -0.13200
H 	H 	0.10130 0.38790 0.07320 0.06200
C 	C 	0.15080 0.53440 0.04176 0.06300
H 	H 	0.19900 0.49410 0.02150 -0.01900
N 	N 	0.14420 0.65100 0.03845 -0.24400
C 	C 	0.84270 0.45480 0.20300 0.06700
H 	H 	0.80460 0.49580 0.22590 -0.01800
N 	N 	0.83850 0.33830 0.20305 -0.23700
C 	C 	0.95600 0.34000 0.13838 -0.12700
H 	H 	0.99600 0.29670 0.11660 0.06800
C 	C 	0.07110 0.70210 0.06629 0.06800
H 	H 	0.06050 0.78390 0.06390 -0.01700
C 	C 	0.01020 0.64430 0.09817 -0.13000
H 	H 	0.96100 0.68700 0.11740 0.06800
C 	C 	0.01910 0.52610 0.10281 0.04600
C 	C 	0.89610 0.28290 0.17138 0.06800
H 	H 	0.89610 0.20020 0.17150 -0.01200
C 	C 	0.95720 0.46150 0.13744 0.04300
C 	C 	0.60070 0.98240 0.17149 -0.13200
H 	H 	0.60090 0.89970 0.17280 0.06300
C 	C 	0.40760 0.02980 0.07240 -0.12700
H 	H 	0.39870 0.11210 0.07320 0.06100
C 	C 	0.34920 0.96560 0.04176 0.05900
H 	H 	0.30100 0.00590 0.02150 -0.01700
N 	N 	0.35580 0.84900 0.03845 -0.24300
C 	C 	0.65730 0.04520 0.20300 0.06800
H 	H 	0.69540 0.00420 0.22590 -0.01900
N 	N 	0.66150 0.16170 0.20305 -0.23800
C 	C 	0.54400 0.16000 0.13838 -0.12800
H 	H 	0.50400 0.20330 0.11660 0.06900
C 	C 	0.42890 0.79790 0.06629 0.06700
H 	H 	0.43950 0.71610 0.06390 -0.01700
C 	C 	0.48980 0.85570 0.09817 -0.12800
H 	H 	0.53900 0.81300 0.11740 0.06700
C 	C 	0.48090 0.97390 0.10281 0.04200
C 	C 	0.60390 0.21710 0.17138 0.06900
H 	H 	0.60390 0.29980 0.17150 -0.01200
C 	C 	0.54280 0.03850 0.13744 0.04600
C 	C 	0.89930 0.98240 0.67149 -0.12900
H 	H 	0.89910 0.89970 0.67280 0.06200
C 	C 	0.09240 0.02980 0.57240 -0.12400
H 	H 	0.10130 0.11210 0.57320 0.06200
C 	C 	0.15080 0.96560 0.54176 0.06000
H 	H 	0.19900 0.00590 0.52150 -0.01000
N 	N 	0.14420 0.84900 0.53845 -0.23900
C 	C 	0.84270 0.04520 0.70300 0.06600
H 	H 	0.80460 0.00420 0.72590 -0.01800
N 	N 	0.83850 0.16170 0.70305 -0.23700
C 	C 	0.95600 0.16000 0.63838 -0.12700
H 	H 	0.99600 0.20330 0.61660 0.06800
C 	C 	0.07110 0.79790 0.56629 0.06900
H 	H 	0.06050 0.71610 0.56390 -0.01400
C 	C 	0.01020 0.85570 0.59817 -0.12700
H 	H 	0.96100 0.81300 0.61740 0.06800
C 	C 	0.01910 0.97390 0.60281 0.04300
C 	C 	0.89610 0.21710 0.67138 0.06800
H 	H 	0.89610 0.29980 0.67150 -0.01200
C 	C 	0.95720 0.03850 0.63744 0.04400
C 	C 	0.60070 0.51760 0.67149 -0.13100
H 	H 	0.60090 0.60030 0.67280 0.06200
C 	C 	0.40760 0.47020 0.57240 -0.12900
H 	H 	0.39870 0.38790 0.57320 0.06300
C 	C 	0.34920 0.53440 0.54176 0.06500
H 	H 	0.30100 0.49410 0.52150 -0.01200
N 	N 	0.35580 0.65100 0.53845 -0.23900
C 	C 	0.65730 0.45480 0.70300 0.06700
H 	H 	0.69540 0.49580 0.72590 -0.01800
N 	N 	0.66150 0.33830 0.70305 -0.23800
C 	C 	0.54400 0.34000 0.63838 -0.12700
H 	H 	0.50400 0.29670 0.61660 0.06800
C 	C 	0.42890 0.70210 0.56629 0.07000
H 	H 	0.43950 0.78390 0.56390 -0.01400
C 	C 	0.48980 0.64430 0.59817 -0.12800
H 	H 	0.53900 0.68700 0.61740 0.06800
C 	C 	0.48090 0.52610 0.60281 0.04500
C 	C 	0.60390 0.28290 0.67138 0.06900
H 	H 	0.60390 0.20020 0.67150 -0.01200
C 	C 	0.54280 0.46150 0.63744 0.04500
C 	C 	0.48240 0.39930 0.82851 -0.13100
H 	H 	0.39970 0.39910 0.82720 0.06300
C 	C 	0.52980 0.59240 0.92760 -0.12600
H 	H 	0.61210 0.60130 0.92680 0.06400
C 	C 	0.46560 0.65080 0.95824 0.06600
H 	H 	0.50590 0.69900 0.97850 -0.00400
N 	N 	0.34900 0.64420 0.96155 -0.23200
C 	C 	0.54520 0.34270 0.79700 0.06800
H 	H 	0.50420 0.30460 0.77410 -0.01800
N 	N 	0.66170 0.33850 0.79695 -0.23800
C 	C 	0.66000 0.45600 0.86162 -0.12700
H 	H 	0.70330 0.49600 0.88340 0.06900
C 	C 	0.29790 0.57110 0.93371 0.07200
H 	H 	0.21610 0.56050 0.93610 -0.01000
C 	C 	0.35570 0.51020 0.90183 -0.12600
H 	H 	0.31300 0.46100 0.88260 0.06800
C 	C 	0.47390 0.51910 0.89719 0.04500
C 	C 	0.71710 0.39610 0.82862 0.06900
H 	H 	0.79980 0.39610 0.82850 -0.01200
C 	C 	0.53850 0.45720 0.86256 0.04500
C 	C 	0.01760 0.10070 0.82851 -0.12700
H 	H 	0.10030 0.10090 0.82720 0.06200
C 	C 	0.97020 0.90760 0.92760 -0.12500
H 	H 	0.88790 0.89870 0.92680 0.06400
C 	C 	0.03440 0.84920 0.95824 0.06400
H 	H 	0.99410 0.80100 0.97850 -0.00400
N 	N 	0.15100 0.85580 0.96155 -0.23200
C 	C 	0.95480 0.15730 0.79700 0.06500
H 	H 	0.99580 0.19540 0.77410 -0.01800
N 	N 	0.83830 0.16150 0.79695 -0.23700
C 	C 	0.84000 0.04400 0.86162 -0.12600
H 	H 	0.79670 0.00400 0.88340 0.06800
C 	C 	0.20210 0.92890 0.93371 0.07200
H 	H 	0.28390 0.93950 0.93610 -0.01000
C 	C 	0.14430 0.98980 0.90183 -0.12800
H 	H 	0.18700 0.03900 0.88260 0.07000
C 	C 	0.02610 0.98090 0.89719 0.04500
C 	C 	0.78290 0.10390 0.82862 0.06800
H 	H 	0.70020 0.10390 0.82850 -0.01200
C 	C 	0.96150 0.04280 0.86256 0.04300
Cu	Cu	0.25000 0.75000 0.50000 0.85300
Cu	Cu	0.25000 0.75000 -0.00000 0.84200
Cu	Cu	0.75000 0.25000 0.25000 0.85000
Cu	Cu	0.75000 0.25000 0.75000 0.85000
