data_crystal

_cell_length_a 11.57840
_cell_length_b 15.30810
_cell_length_c 19.25800
_cell_angle_alpha 70.38800
_cell_angle_beta  76.65900
_cell_angle_gamma 83.04800

_symmetry_space_group_name_	'P 1'
_symmetry_space_group_name_H-M	'P 1'

loop_
_symmetry_equiv_pos_as_xyz
  x,y,z

loop_
_atom_site_label
_atom_site_type_symbol
_atom_site_fract_x
_atom_site_fract_y
_atom_site_fract_z
_atom_site_charge
C 	C 	0.86420 0.69530 0.31180 0.08200
H 	H 	0.79270 0.70160 0.29590 -0.01000
C 	C 	0.94650 0.76520 0.27310 -0.15600
H 	H 	0.92840 0.81650 0.23390 0.07200
C 	C 	0.05420 0.75610 0.29460 0.09000
C 	C 	0.07390 0.67940 0.35490 -0.15000
H 	H 	0.14430 0.67150 0.37210 0.10300
C 	C 	0.98680 0.61400 0.38950 0.07900
H 	H 	0.00260 0.56230 0.42910 0.00900
C 	C 	0.14700 0.82510 0.25590 -0.01300
C 	C 	0.15480 0.87750 0.18040 -0.04100
H 	H 	0.10130 0.87010 0.15370 0.03700
C 	C 	0.24430 0.94160 0.14510 -0.06200
H 	H 	0.25010 0.97590 0.09450 0.04700
C 	C 	0.32260 0.95450 0.18330 0.01900
C 	C 	0.31590 0.90190 0.25730 -0.06000
H 	H 	0.37150 0.90890 0.28280 0.03100
C 	C 	0.22740 0.83800 0.29530 -0.05700
H 	H 	0.22210 0.80460 0.34610 0.06000
C 	C 	0.41650 0.02330 0.14530 0.01900
C 	C 	0.56230 0.91610 0.08560 0.29600
H 	H 	0.61650 0.92820 0.03720 -0.07000
H 	H 	0.49460 0.88600 0.08360 -0.05600
C 	C 	0.62350 0.85220 0.14530 -0.78700
H 	H 	0.68520 0.88410 0.15130 0.25300
H 	H 	0.65750 0.79890 0.13090 0.26100
H 	H 	0.56700 0.83270 0.19200 0.26200
C 	C 	0.58370 0.08340 0.07410 0.08300
H 	H 	0.65810 0.08970 0.04220 -0.02500
C 	C 	0.42060 0.11300 0.14470 0.02300
C 	C 	0.33010 0.16840 0.18100 0.00100
C 	C 	0.29510 0.25730 0.14290 -0.06400
H 	H 	0.32980 0.28410 0.09250 0.04200
C 	C 	0.20800 0.30790 0.17910 -0.03700
H 	H 	0.18460 0.36760 0.15210 0.04700
C 	C 	0.15560 0.27080 0.25460 -0.01700
C 	C 	0.19250 0.18120 0.29350 -0.03900
H 	H 	0.15960 0.15540 0.34430 0.04100
C 	C 	0.27650 0.13010 0.25820 -0.05700
H 	H 	0.29840 0.06990 0.28500 0.04500
C 	C 	0.06720 0.32660 0.29310 0.08700
C 	C 	0.98940 0.39090 0.25690 -0.15300
H 	H 	0.99110 0.40040 0.20640 0.08300
C 	C 	0.90760 0.44210 0.29540 0.07700
H 	H 	0.85850 0.48730 0.26880 0.00100
C 	C 	0.97450 0.36640 0.40490 0.08100
H 	H 	0.97080 0.35780 0.45550 0.00900
C 	C 	0.05940 0.31460 0.36960 -0.14200
H 	H 	0.11080 0.27210 0.39640 0.08300
C 	C 	0.57830 0.31930 0.94820 0.30700
C 	C 	0.53530 0.34280 0.87660 -0.05300
C 	C 	0.60580 0.31640 0.81760 -0.03700
H 	H 	0.67640 0.28130 0.82360 0.06100
C 	C 	0.56870 0.34380 0.74860 -0.01500
H 	H 	0.61670 0.32990 0.70740 0.04200
C 	C 	0.45990 0.39180 0.74220 -0.08200
C 	C 	0.38660 0.41290 0.80360 -0.01200
H 	H 	0.31220 0.44250 0.79960 0.04600
C 	C 	0.42630 0.38920 0.87090 -0.04200
H 	H 	0.37950 0.40460 0.91170 0.06100
C 	C 	0.42170 0.42350 0.66770 0.34500
C 	C 	0.75900 0.44210 0.02230 0.41300
C 	C 	0.88430 0.47270 0.01080 -0.18100
C 	C 	0.97850 0.40680 0.01980 0.06400
H 	H 	0.96370 0.34420 0.03380 0.00900
C 	C 	0.90500 0.56710 0.99160 0.09600
H 	H 	0.84250 0.61160 0.98660 0.01700
C 	C 	0.53180 0.61220 0.82980 0.37000
C 	C 	0.58360 0.59850 0.75350 -0.07100
C 	C 	0.68590 0.54480 0.74290 -0.01200
H 	H 	0.72560 0.51790 0.78240 0.05200
C 	C 	0.73100 0.53000 0.67410 -0.02300
H 	H 	0.80080 0.49400 0.66740 0.05300
C 	C 	0.66980 0.57010 0.61490 -0.06800
C 	C 	0.56550 0.62490 0.62590 -0.02600
H 	H 	0.52420 0.65060 0.58710 0.03600
C 	C 	0.52380 0.64110 0.69300 -0.01800
H 	H 	0.45650 0.67980 0.69910 0.04200
C 	C 	0.71170 0.54830 0.54250 0.31400
C 	C 	0.66360 0.32290 0.51520 0.65700
C 	C 	0.56600 0.25620 0.55390 -1.21200
H 	H 	0.57220 0.21110 0.52840 0.38600
H 	H 	0.49040 0.28960 0.55280 0.39200
H 	H 	0.57310 0.22530 0.60520 0.39000
Co	Co	0.61332 0.27155 0.08228 1.14000
Co	Co	0.76733 0.50800 0.42177 1.16100
N 	N 	0.52120 0.00510 0.09950 -0.17000
N 	N 	0.52620 0.14910 0.10030 -0.24300
N 	N 	0.89670 0.42900 0.36930 -0.23500
N 	N 	0.88230 0.62090 0.36940 -0.23500
O 	O 	0.52280 0.35640 0.99831 -0.46700
O 	O 	0.66460 0.26280 0.96200 -0.33900
O 	O 	0.31160 0.44410 0.66918 -0.43400
O 	O 	0.50260 0.42880 0.60962 -0.43500
O 	O 	0.55450 0.54900 0.88621 -0.42000
O 	O 	0.46820 0.68660 0.82860 -0.44600
O 	O 	0.64440 0.57770 0.49400 -0.50600
O 	O 	0.80670 0.50350 0.52943 -0.38300
O 	O 	0.68030 0.50310 0.00380 -0.44400
O 	O 	0.74870 0.35610 0.05010 -0.47500
O 	O 	0.64070 0.40800 0.47417 -0.60500
O 	O 	0.76650 0.29440 0.52510 -0.38500
C 	C 	0.13580 0.30470 0.68820 0.08500
H 	H 	0.20730 0.29840 0.70410 -0.00900
C 	C 	0.05350 0.23480 0.72690 -0.15300
H 	H 	0.07160 0.18350 0.76610 0.07600
C 	C 	0.94580 0.24390 0.70540 0.09100
C 	C 	0.92610 0.32060 0.64510 -0.15900
H 	H 	0.85570 0.32850 0.62790 0.10600
C 	C 	0.01320 0.38600 0.61050 0.09100
H 	H 	0.99740 0.43770 0.57090 0.00200
C 	C 	0.85300 0.17490 0.74410 -0.01200
C 	C 	0.84520 0.12250 0.81960 -0.03900
H 	H 	0.89870 0.12990 0.84630 0.04500
C 	C 	0.75570 0.05840 0.85490 -0.06000
H 	H 	0.74990 0.02410 0.90550 0.06200
C 	C 	0.67740 0.04550 0.81670 0.01500
C 	C 	0.68410 0.09810 0.74270 -0.05800
H 	H 	0.62850 0.09110 0.71720 0.02900
C 	C 	0.77260 0.16200 0.70470 -0.05900
H 	H 	0.77790 0.19540 0.65390 0.06000
C 	C 	0.58350 0.97670 0.85470 0.03100
C 	C 	0.43770 0.08390 0.91440 0.27400
H 	H 	0.38350 0.07180 0.96280 -0.04200
H 	H 	0.50540 0.11400 0.91640 -0.03800
C 	C 	0.37650 0.14780 0.85470 -0.77200
H 	H 	0.31480 0.11590 0.84870 0.25300
H 	H 	0.34250 0.20110 0.86910 0.26500
H 	H 	0.43300 0.16730 0.80800 0.25700
C 	C 	0.41630 0.91660 0.92590 0.09300
H 	H 	0.34190 0.91030 0.95780 -0.00400
C 	C 	0.57940 0.88700 0.85530 0.02500
C 	C 	0.66990 0.83160 0.81900 0.01300
C 	C 	0.70490 0.74270 0.85710 -0.07200
H 	H 	0.67020 0.71590 0.90750 0.06600
C 	C 	0.79200 0.69210 0.82090 -0.02800
H 	H 	0.81540 0.63240 0.84790 0.05200
C 	C 	0.84440 0.72920 0.74540 -0.02200
C 	C 	0.80750 0.81880 0.70650 -0.03200
H 	H 	0.84040 0.84460 0.65570 0.03900
C 	C 	0.72350 0.86990 0.74180 -0.06300
H 	H 	0.70160 0.93010 0.71500 0.04900
C 	C 	0.93280 0.67340 0.70690 0.08800
C 	C 	0.01060 0.60910 0.74310 -0.15000
H 	H 	0.00890 0.59960 0.79360 0.08800
C 	C 	0.09240 0.55790 0.70460 0.07900
H 	H 	0.14150 0.51270 0.73120 0.00400
C 	C 	0.02550 0.63360 0.59510 0.08700
H 	H 	0.02920 0.64220 0.54450 0.00800
C 	C 	0.94060 0.68540 0.63040 -0.14700
H 	H 	0.88920 0.72790 0.60360 0.08500
C 	C 	0.42170 0.68070 0.05180 0.31400
C 	C 	0.46470 0.65720 0.12340 -0.06800
C 	C 	0.39420 0.68360 0.18240 -0.02900
H 	H 	0.32360 0.71870 0.17640 0.05500
C 	C 	0.43130 0.65620 0.25140 -0.02200
H 	H 	0.38330 0.67010 0.29260 0.04400
C 	C 	0.54010 0.60820 0.25780 -0.07900
C 	C 	0.61340 0.58710 0.19640 -0.01900
H 	H 	0.68780 0.55750 0.20040 0.04400
C 	C 	0.57370 0.61080 0.12910 -0.03600
H 	H 	0.62050 0.59540 0.08830 0.04900
C 	C 	0.57830 0.57650 0.33230 0.34400
C 	C 	0.24100 0.55790 0.97770 0.35500
C 	C 	0.11570 0.52730 0.98920 0.02100
C 	C 	0.02150 0.59320 0.98020 -0.10200
H 	H 	0.03630 0.65580 0.96620 0.07800
C 	C 	0.09500 0.43290 0.00840 -0.14400
H 	H 	0.15750 0.38840 0.01340 0.07400
C 	C 	0.46820 0.38780 0.17020 0.37500
C 	C 	0.41640 0.40150 0.24650 -0.07600
C 	C 	0.31410 0.45520 0.25710 -0.00700
H 	H 	0.27440 0.48210 0.21760 0.04600
C 	C 	0.26900 0.47000 0.32590 -0.02700
H 	H 	0.19920 0.50600 0.33260 0.05400
C 	C 	0.33020 0.42990 0.38510 -0.06500
C 	C 	0.43450 0.37510 0.37410 -0.02900
H 	H 	0.47580 0.34940 0.41290 0.03700
C 	C 	0.47620 0.35890 0.30700 -0.01400
H 	H 	0.54350 0.32020 0.30090 0.04000
C 	C 	0.28830 0.45170 0.45750 0.31300
C 	C 	0.33640 0.67710 0.48480 0.65700
C 	C 	0.43400 0.74380 0.44610 -1.21300
H 	H 	0.42780 0.78890 0.47160 0.38700
H 	H 	0.50960 0.71040 0.44720 0.39200
H 	H 	0.42690 0.77470 0.39480 0.39100
Co	Co	0.38668 0.72845 0.91772 1.15800
Co	Co	0.23267 0.49200 0.57823 1.16100
N 	N 	0.47880 0.99490 0.90050 -0.16100
N 	N 	0.47380 0.85090 0.89970 -0.23300
N 	N 	0.10330 0.57100 0.63070 -0.23600
N 	N 	0.11770 0.37910 0.63060 -0.23700
O 	O 	0.47720 0.64360 0.00169 -0.51400
O 	O 	0.33540 0.73720 0.03800 -0.37900
O 	O 	0.68840 0.55590 0.33082 -0.43400
O 	O 	0.49740 0.57120 0.39038 -0.43500
O 	O 	0.44550 0.45100 0.11379 -0.44000
O 	O 	0.53180 0.31340 0.17140 -0.45200
O 	O 	0.35560 0.42230 0.50600 -0.50600
O 	O 	0.19330 0.49650 0.47057 -0.38200
O 	O 	0.31970 0.49690 0.99620 -0.39100
O 	O 	0.25130 0.64390 0.94990 -0.44100
O 	O 	0.35930 0.59200 0.52583 -0.60500
O 	O 	0.23350 0.70560 0.47490 -0.38400
Co	Co	0.50000 0.50000 -0.00000 1.18000
Co	Co	0.50000 0.50000 0.50000 1.18500
