data_crystal

_cell_length_a 17.39900
_cell_length_b 9.47900
_cell_length_c 7.05500
_cell_angle_alpha 90.00000
_cell_angle_beta  108.02600
_cell_angle_gamma 90.00000

_symmetry_space_group_name_	'P 1'
_symmetry_space_group_name_H-M	'P 1'

loop_
_symmetry_equiv_pos_as_xyz
  x,y,z

loop_
_atom_site_label
_atom_site_type_symbol
_atom_site_fract_x
_atom_site_fract_y
_atom_site_fract_z
_atom_site_charge
P 	P 	0.73643 0.30095 0.68446 0.58100
P 	P 	0.00106 0.20465 0.00007 0.31900
O 	O 	0.73727 0.13740 0.68540 -0.64200
O 	O 	0.99243 0.36270 0.98090 -0.46500
O 	O 	0.82632 0.34470 0.77510 -0.55700
O 	O 	0.70181 0.35410 0.47210 -0.60100
O 	O 	0.04944 0.15650 0.20800 -0.55100
O 	O 	0.68890 0.35150 0.81840 -0.52900
O 	O 	0.03480 0.14660 0.84420 -0.50200
O 	O 	0.91368 0.14450 0.95780 -0.40800
H 	H 	0.88200 0.20900 0.89700 0.25200
P 	P 	0.23643 0.80095 0.68446 0.57600
P 	P 	0.50106 0.70465 0.00007 0.35600
O 	O 	0.23727 0.63740 0.68540 -0.52500
O 	O 	0.49243 0.86270 0.98090 -0.31700
O 	O 	0.32632 0.84470 0.77510 -0.39900
O 	O 	0.20181 0.85410 0.47210 -0.40600
O 	O 	0.54944 0.65650 0.20800 -0.46100
O 	O 	0.18890 0.85150 0.81840 -0.33400
O 	O 	0.53480 0.64660 0.84420 -0.40200
O 	O 	0.41368 0.64450 0.95780 -0.30000
H 	H 	0.38200 0.70900 0.89700 0.25200
P 	P 	0.73643 0.69905 0.68446 0.57500
P 	P 	0.00106 0.79535 0.00007 0.30300
O 	O 	0.73727 0.86260 0.68540 -0.35200
O 	O 	0.99243 0.63730 0.98090 -0.45300
O 	O 	0.82632 0.65530 0.77510 -0.51400
O 	O 	0.70181 0.64590 0.47210 -0.54400
O 	O 	0.04944 0.84350 0.20800 -0.34000
O 	O 	0.68890 0.64850 0.81840 -0.47200
O 	O 	0.03480 0.85340 0.84420 -0.26800
O 	O 	0.91368 0.85550 0.95780 -0.13500
H 	H 	0.88200 0.79100 0.89700 0.21300
P 	P 	0.23643 0.19905 0.68446 0.56100
P 	P 	0.50106 0.29535 0.00007 0.37300
O 	O 	0.23727 0.36260 0.68540 -0.52900
O 	O 	0.49243 0.13730 0.98090 -0.60600
O 	O 	0.32632 0.15530 0.77510 -0.61400
O 	O 	0.20181 0.14590 0.47210 -0.63700
O 	O 	0.54944 0.34350 0.20800 -0.52700
O 	O 	0.18890 0.14850 0.81840 -0.55600
O 	O 	0.53480 0.35340 0.84420 -0.45900
O 	O 	0.41368 0.35550 0.95780 -0.32300
H 	H 	0.38200 0.29100 0.89700 0.23700
V 	V 	0.65030 0.00000 0.56220 1.46300
V 	V 	0.15030 0.50000 0.56220 1.59100
V 	V 	0.90806 0.50000 0.83112 1.69700
V 	V 	0.63215 0.50000 0.31055 1.81700
V 	V 	0.60796 0.50000 0.79382 1.83400
O 	O 	0.66440 0.50000 0.11870 -0.76300
O 	O 	0.57170 0.50000 0.55100 -0.70000
V 	V 	0.40806 0.00000 0.83112 1.55900
V 	V 	0.13215 0.00000 0.31055 1.72200
V 	V 	0.10796 0.00000 0.79382 1.73800
O 	O 	0.16440 0.00000 0.11870 -0.93700
O 	O 	0.07170 0.00000 0.55100 -0.89100
