data_crystal

_cell_length_a 7.02500
_cell_length_b 9.47000
_cell_length_c 16.57000
_cell_angle_alpha 90.00000
_cell_angle_beta  96.03000
_cell_angle_gamma 90.00000

_symmetry_space_group_name_	'P 1'
_symmetry_space_group_name_H-M	'P 1'

loop_
_symmetry_equiv_pos_as_xyz
  x,y,z

loop_
_atom_site_label
_atom_site_type_symbol
_atom_site_fract_x
_atom_site_fract_y
_atom_site_fract_z
_atom_site_charge
P 	P 	0.56130 0.19880 0.51130 0.57400
P 	P 	0.50840 0.29490 0.77580 0.56300
O 	O 	0.56320 0.15410 0.60110 -0.58500
O 	O 	0.52060 0.13550 0.76830 -0.68200
O 	O 	0.56010 0.36210 0.51250 -0.51500
O 	O 	0.34630 0.34270 0.82330 -0.52400
O 	O 	0.73740 0.14540 0.47630 -0.62100
O 	O 	0.69890 0.35040 0.81130 -0.53700
O 	O 	0.37890 0.14770 0.46390 -0.58000
O 	O 	0.46410 0.35330 0.68710 -0.22700
P 	P 	0.06130 0.69880 0.01130 0.58000
P 	P 	0.00840 0.79490 0.27580 0.55200
O 	O 	0.06320 0.65410 0.10110 -0.49000
O 	O 	0.02060 0.63550 0.26830 -0.56000
O 	O 	0.06010 0.86210 0.01250 -0.34400
O 	O 	0.84630 0.84270 0.32330 -0.32700
O 	O 	0.23740 0.64540 0.97630 -0.52500
O 	O 	0.19890 0.85040 0.31130 -0.34100
O 	O 	0.87890 0.64770 0.96390 -0.49300
O 	O 	0.96410 0.85330 0.18710 -0.08500
P 	P 	0.56130 0.80120 0.51130 0.58700
P 	P 	0.50840 0.70510 0.77580 0.55500
O 	O 	0.56320 0.84590 0.60110 -0.35800
O 	O 	0.52060 0.86450 0.76830 -0.37900
O 	O 	0.56010 0.63790 0.51250 -0.51000
O 	O 	0.34630 0.65730 0.82330 -0.45500
O 	O 	0.73740 0.85460 0.47630 -0.38200
O 	O 	0.69890 0.64960 0.81130 -0.48000
O 	O 	0.37890 0.85230 0.46390 -0.34900
O 	O 	0.46410 0.64670 0.68710 -0.19300
P 	P 	0.06130 0.30120 0.01130 0.59300
P 	P 	0.00840 0.20510 0.27580 0.55200
O 	O 	0.06320 0.34590 0.10110 -0.52600
O 	O 	0.02060 0.36450 0.26830 -0.56600
O 	O 	0.06010 0.13790 0.01250 -0.63200
O 	O 	0.84630 0.15730 0.32330 -0.54300
O 	O 	0.23740 0.35460 0.97630 -0.58800
O 	O 	0.19890 0.14960 0.31130 -0.57100
O 	O 	0.87890 0.35230 0.96390 -0.55300
O 	O 	0.96410 0.14670 0.18710 -0.32600
V 	V 	0.58740 0.00000 0.68320 1.56200
V 	V 	0.08740 0.50000 0.18320 1.70300
V 	V 	0.59670 0.50000 0.42540 1.60700
V 	V 	0.32850 0.50000 0.90560 1.82500
V 	V 	0.82240 0.50000 0.88340 1.83000
O 	O 	0.55510 0.50000 0.93600 -0.70300
O 	O 	0.03340 0.50000 0.84910 -0.69400
V 	V 	0.09670 0.00000 0.92540 1.47000
V 	V 	0.82850 0.00000 0.40560 1.72900
V 	V 	0.32240 -0.00000 0.38340 1.73100
O 	O 	0.05510 -0.00000 0.43600 -0.88600
O 	O 	0.53340 0.00000 0.34910 -0.88300
