data_crystal

_cell_length_a 11.59200
_cell_length_b 19.09920
_cell_length_c 38.74810
_cell_angle_alpha 90.00000
_cell_angle_beta  90.00000
_cell_angle_gamma 90.00000

_symmetry_space_group_name_	'P 1'
_symmetry_space_group_name_H-M	'P 1'

loop_
_symmetry_equiv_pos_as_xyz
  x,y,z

loop_
_atom_site_label
_atom_site_type_symbol
_atom_site_fract_x
_atom_site_fract_y
_atom_site_fract_z
_atom_site_charge
Ag	Ag	0.20060 0.53410 0.25660 0.57000
S 	S 	0.35980 0.68020 0.22530 0.29200
F 	F 	0.20420 0.76350 0.24040 -0.53000
F 	F 	0.29550 0.79910 0.20660 -0.64000
F 	F 	0.36220 0.79110 0.26040 -0.59600
O 	O 	0.31660 0.64050 0.25840 -0.22900
O 	O 	0.30340 0.66170 0.19460 -0.16600
O 	O 	0.48020 0.67850 0.21890 -0.18600
N 	N 	0.25380 0.43830 0.28490 -0.19000
N 	N 	0.67050 0.98790 0.70380 -0.19200
N 	N 	0.06410 0.59620 0.28380 -0.20100
N 	N 	0.39260 0.56810 0.32510 -0.20100
C 	C 	0.31060 0.77500 0.23260 1.14600
C 	C 	0.60750 0.06440 0.44400 -0.19200
C 	C 	0.60180 0.07250 0.40910 0.12200
C 	C 	0.54580 0.12830 0.39020 -0.03300
C 	C 	0.49980 0.17870 0.37400 -0.02100
C 	C 	0.44590 0.23270 0.35770 0.09700
C 	C 	0.41420 0.29350 0.37390 -0.11500
C 	C 	0.36560 0.34910 0.35390 0.00100
C 	C 	0.35800 0.33930 0.32000 -0.04600
C 	C 	0.30190 0.39570 0.30320 0.05400
C 	C 	0.38980 0.28080 0.30530 0.02900
C 	C 	0.43530 0.22780 0.32480 -0.12600
C 	C 	0.65640 0.02120 0.38750 -0.16700
C 	C 	0.71610 0.96110 0.40240 0.12000
C 	C 	0.77050 0.91090 0.38230 -0.04900
C 	C 	0.81800 0.86730 0.36640 0.00300
C 	C 	0.86710 0.80760 0.34960 0.05000
C 	C 	0.88100 0.82040 0.31400 -0.07000
C 	C 	0.93340 0.76150 0.29340 -0.01700
C 	C 	0.96490 0.69720 0.31430 -0.02200
C 	C 	0.02650 0.63920 0.29580 0.13400
C 	C 	0.94970 0.69430 0.35010 -0.01300
C 	C 	0.89560 0.74840 0.36650 -0.08400
C 	C 	0.71440 0.95710 0.43840 -0.16400
C 	C 	0.65830 0.01000 0.46000 0.13100
C 	C 	0.66400 0.00490 0.49490 -0.07300
C 	C 	0.66770 0.99950 0.52580 0.01300
C 	C 	0.67180 0.99640 0.56390 0.04600
C 	C 	0.70070 0.93870 0.58010 -0.07400
C 	C 	0.71280 0.93630 0.61560 -0.02700
C 	C 	0.67320 0.99420 0.63450 -0.00800
C 	C 	0.67450 0.99070 0.67570 0.11700
C 	C 	0.63890 0.05230 0.61610 -0.02500
C 	C 	0.63070 0.05420 0.58270 -0.08000
C 	C 	0.03960 0.94500 0.43650 0.15900
C 	C 	0.08770 0.88560 0.41890 -0.06300
C 	C 	0.12740 0.83530 0.40370 0.00600
C 	C 	0.18600 0.78230 0.38810 0.03100
C 	C 	0.22350 0.72540 0.40570 -0.06900
C 	C 	0.28130 0.66400 0.39160 -0.03600
C 	C 	0.29320 0.66680 0.35570 -0.01500
C 	C 	0.34980 0.61340 0.33580 0.10700
C 	C 	0.25980 0.72010 0.33550 -0.04400
C 	C 	0.20310 0.78410 0.35220 -0.05300
C 	C 	0.04190 0.94190 0.47450 -0.18700
C 	C 	0.02400 0.93460 0.65090 -0.06500
C 	C 	0.02300 0.94050 0.61580 -0.02300
H 	H 	0.57410 0.09890 0.45770 0.10500
H 	H 	0.42410 0.29860 0.39750 0.07500
H 	H 	0.34050 0.39030 0.36420 0.02800
H 	H 	0.38160 0.27520 0.28160 0.05700
H 	H 	0.45930 0.18700 0.31380 0.12200
H 	H 	0.65360 0.02630 0.36360 0.10900
H 	H 	0.85910 0.86250 0.30380 0.08500
H 	H 	0.94550 0.76440 0.26970 0.08800
H 	H 	0.97620 0.65600 0.36250 0.04000
H 	H 	0.87800 0.74420 0.38980 0.06600
H 	H 	0.75040 0.91940 0.44910 0.09900
H 	H 	0.71350 0.89820 0.56730 0.06900
H 	H 	0.74580 0.89790 0.62650 0.07100
H 	H 	0.62050 0.09260 0.62840 0.05400
H 	H 	0.59860 0.09260 0.57150 0.06800
H 	H 	0.21100 0.72560 0.42940 0.06000
H 	H 	0.30750 0.62700 0.40510 0.04500
H 	H 	0.27080 0.71820 0.31170 0.10900
H 	H 	0.18090 0.82260 0.33920 0.08400
H 	H 	0.07000 0.90300 0.48620 0.10600
H 	H 	0.03810 0.89410 0.66360 0.08500
H 	H 	0.03970 0.89990 0.60360 0.05500
Ag	Ag	0.79940 0.46590 0.25660 0.57000
S 	S 	0.64020 0.31980 0.22530 0.29200
F 	F 	0.79580 0.23650 0.24040 -0.52900
F 	F 	0.70450 0.20090 0.20660 -0.64100
F 	F 	0.63780 0.20890 0.26040 -0.59600
O 	O 	0.68340 0.35950 0.25840 -0.22900
O 	O 	0.69660 0.33830 0.19460 -0.16500
O 	O 	0.51980 0.32150 0.21890 -0.18700
N 	N 	0.74620 0.56170 0.28490 -0.18900
N 	N 	0.32950 0.01210 0.70380 -0.19500
N 	N 	0.93590 0.40380 0.28380 -0.20400
N 	N 	0.60740 0.43190 0.32510 -0.20100
C 	C 	0.68940 0.22500 0.23260 1.14600
C 	C 	0.39250 0.93560 0.44400 -0.18400
C 	C 	0.39820 0.92750 0.40910 0.11500
C 	C 	0.45420 0.87170 0.39020 -0.02900
C 	C 	0.50020 0.82130 0.37400 -0.02300
C 	C 	0.55410 0.76730 0.35770 0.10000
C 	C 	0.58580 0.70650 0.37390 -0.11700
C 	C 	0.63440 0.65090 0.35390 0.00300
C 	C 	0.64200 0.66070 0.32000 -0.04700
C 	C 	0.69810 0.60430 0.30320 0.05500
C 	C 	0.61020 0.71920 0.30530 0.03200
C 	C 	0.56470 0.77220 0.32480 -0.12900
C 	C 	0.34360 0.97880 0.38750 -0.14900
C 	C 	0.28390 0.03890 0.40240 0.10400
C 	C 	0.22950 0.08910 0.38230 -0.04500
C 	C 	0.18200 0.13270 0.36640 -0.00500
C 	C 	0.13290 0.19240 0.34960 0.05600
C 	C 	0.11900 0.17960 0.31400 -0.07700
C 	C 	0.06660 0.23850 0.29340 -0.01200
C 	C 	0.03510 0.30280 0.31430 -0.03800
C 	C 	0.97350 0.36080 0.29580 0.15000
C 	C 	0.05030 0.30570 0.35010 -0.00400
C 	C 	0.10440 0.25160 0.36650 -0.09400
C 	C 	0.28560 0.04290 0.43840 -0.16800
C 	C 	0.34170 0.99000 0.46000 0.12900
C 	C 	0.33600 0.99510 0.49490 -0.04900
C 	C 	0.33230 0.00050 0.52580 -0.01100
C 	C 	0.32820 0.00360 0.56390 0.04700
C 	C 	0.29930 0.06130 0.58010 -0.08400
C 	C 	0.28720 0.06370 0.61560 -0.01800
C 	C 	0.32680 0.00580 0.63450 -0.02800
C 	C 	0.32550 0.00930 0.67570 0.11600
C 	C 	0.36110 0.94770 0.61610 -0.00300
C 	C 	0.36930 0.94580 0.58270 -0.08200
C 	C 	0.96040 0.05500 0.43650 0.15900
C 	C 	0.91230 0.11440 0.41890 -0.06200
C 	C 	0.87260 0.16470 0.40370 0.00800
C 	C 	0.81400 0.21770 0.38810 0.03200
C 	C 	0.77650 0.27460 0.40570 -0.06800
C 	C 	0.71870 0.33600 0.39160 -0.03500
C 	C 	0.70680 0.33320 0.35570 -0.01500
C 	C 	0.65020 0.38660 0.33580 0.10700
C 	C 	0.74020 0.27990 0.33550 -0.04300
C 	C 	0.79690 0.21590 0.35220 -0.05100
C 	C 	0.95810 0.05810 0.47450 -0.18700
C 	C 	0.97600 0.06540 0.65090 -0.06400
C 	C 	0.97700 0.05950 0.61580 -0.02300
H 	H 	0.42590 0.90110 0.45770 0.10300
H 	H 	0.57590 0.70140 0.39750 0.07700
H 	H 	0.65950 0.60970 0.36420 0.02800
H 	H 	0.61840 0.72480 0.28160 0.05600
H 	H 	0.54070 0.81300 0.31380 0.12400
H 	H 	0.34640 0.97370 0.36360 0.10500
H 	H 	0.14090 0.13750 0.30380 0.08400
H 	H 	0.05450 0.23560 0.26970 0.08200
H 	H 	0.02380 0.34400 0.36250 0.03300
H 	H 	0.12200 0.25580 0.38980 0.06800
H 	H 	0.24960 0.08060 0.44910 0.09700
H 	H 	0.28650 0.10180 0.56730 0.07100
H 	H 	0.25420 0.10210 0.62650 0.06500
H 	H 	0.37950 0.90740 0.62840 0.04800
H 	H 	0.40140 0.90740 0.57150 0.07100
H 	H 	0.78900 0.27440 0.42940 0.06100
H 	H 	0.69250 0.37300 0.40510 0.04600
H 	H 	0.72920 0.28180 0.31170 0.10900
H 	H 	0.81910 0.17740 0.33920 0.08400
H 	H 	0.93000 0.09700 0.48620 0.10700
H 	H 	0.96190 0.10590 0.66360 0.08700
H 	H 	0.96030 0.10010 0.60360 0.05600
Ag	Ag	0.70060 0.96590 0.75660 0.57200
S 	S 	0.85980 0.81980 0.72530 0.29200
F 	F 	0.70420 0.73650 0.74040 -0.53000
F 	F 	0.79550 0.70090 0.70660 -0.64000
F 	F 	0.86220 0.70890 0.76040 -0.59500
O 	O 	0.81660 0.85950 0.75840 -0.22700
O 	O 	0.80340 0.83830 0.69460 -0.16400
O 	O 	0.98020 0.82150 0.71890 -0.18200
N 	N 	0.75380 0.06170 0.78490 -0.19000
N 	N 	0.17050 0.51210 0.20380 -0.19400
N 	N 	0.56410 0.90380 0.78380 -0.20100
N 	N 	0.89260 0.93190 0.82510 -0.19700
C 	C 	0.81060 0.72500 0.73260 1.14600
C 	C 	0.10750 0.43560 0.94400 -0.19500
C 	C 	0.10180 0.42750 0.90910 0.12500
C 	C 	0.04580 0.37170 0.89020 -0.04700
C 	C 	0.99980 0.32130 0.87400 -0.00400
C 	C 	0.94590 0.26730 0.85770 0.08300
C 	C 	0.91420 0.20650 0.87390 -0.10300
C 	C 	0.86560 0.15090 0.85390 -0.00700
C 	C 	0.85800 0.16070 0.82000 -0.03600
C 	C 	0.80190 0.10430 0.80320 0.05200
C 	C 	0.88980 0.21920 0.80530 0.01900
C 	C 	0.93530 0.27220 0.82480 -0.11200
C 	C 	0.15640 0.47880 0.88750 -0.16300
C 	C 	0.21610 0.53890 0.90240 0.11400
C 	C 	0.27050 0.58910 0.88230 -0.04900
C 	C 	0.31800 0.63270 0.86640 -0.00000
C 	C 	0.36710 0.69240 0.84960 0.05200
C 	C 	0.38100 0.67960 0.81400 -0.07300
C 	C 	0.43340 0.73850 0.79340 -0.01500
C 	C 	0.46490 0.80280 0.81430 -0.02900
C 	C 	0.52650 0.86080 0.79580 0.14200
C 	C 	0.44970 0.80570 0.85010 -0.00900
C 	C 	0.39560 0.75160 0.86650 -0.08800
C 	C 	0.21440 0.54290 0.93840 -0.17000
C 	C 	0.15830 0.49000 0.96000 0.13300
C 	C 	0.16400 0.49510 0.99490 -0.06700
C 	C 	0.16770 0.50050 0.02580 0.00300
C 	C 	0.17180 0.50360 0.06390 0.04300
C 	C 	0.20070 0.56130 0.08010 -0.07800
C 	C 	0.21280 0.56370 0.11560 -0.02500
C 	C 	0.17320 0.50580 0.13450 -0.01800
C 	C 	0.17450 0.50930 0.17570 0.11400
C 	C 	0.13890 0.44770 0.11610 -0.01600
C 	C 	0.13070 0.44580 0.08270 -0.07900
C 	C 	0.53960 0.55500 0.93650 0.14700
C 	C 	0.58770 0.61440 0.91890 -0.05800
C 	C 	0.62740 0.66470 0.90370 0.00400
C 	C 	0.68600 0.71770 0.88810 0.03300
C 	C 	0.72350 0.77460 0.90570 -0.06900
C 	C 	0.78130 0.83600 0.89160 -0.03500
C 	C 	0.79320 0.83320 0.85570 -0.01400
C 	C 	0.84980 0.88660 0.83580 0.10900
C 	C 	0.75980 0.77990 0.83550 -0.04200
C 	C 	0.70310 0.71590 0.85220 -0.05200
C 	C 	0.54190 0.55810 0.97450 -0.19100
C 	C 	0.52400 0.56540 0.15090 -0.07300
C 	C 	0.52300 0.55950 0.11580 -0.03100
H 	H 	0.07410 0.40110 0.95770 0.10400
H 	H 	0.92410 0.20140 0.89750 0.07200
H 	H 	0.84050 0.10970 0.86420 0.03200
H 	H 	0.88160 0.22480 0.78160 0.06200
H 	H 	0.95930 0.31300 0.81380 0.11900
H 	H 	0.15360 0.47370 0.86360 0.10800
H 	H 	0.35910 0.63750 0.80380 0.08400
H 	H 	0.44550 0.73560 0.76970 0.08500
H 	H 	0.47620 0.84400 0.86250 0.03700
H 	H 	0.37800 0.75580 0.88980 0.06700
H 	H 	0.25040 0.58060 0.94910 0.09900
H 	H 	0.21350 0.60180 0.06730 0.06900
H 	H 	0.24580 0.60210 0.12650 0.06800
H 	H 	0.12050 0.40740 0.12840 0.05000
H 	H 	0.09860 0.40740 0.07150 0.06700
H 	H 	0.71100 0.77440 0.92940 0.06100
H 	H 	0.80750 0.87300 0.90510 0.04700
H 	H 	0.77080 0.78180 0.81170 0.10900
H 	H 	0.68090 0.67740 0.83920 0.08400
H 	H 	0.57000 0.59700 0.98620 0.10700
H 	H 	0.53810 0.60590 0.16360 0.08800
H 	H 	0.53970 0.60010 0.10360 0.05700
Ag	Ag	0.29940 0.03410 0.75660 0.56800
S 	S 	0.14020 0.18020 0.72530 0.29200
F 	F 	0.29580 0.26350 0.74040 -0.53000
F 	F 	0.20450 0.29910 0.70660 -0.64200
F 	F 	0.13780 0.29110 0.76040 -0.59800
O 	O 	0.18340 0.14050 0.75840 -0.23000
O 	O 	0.19660 0.16170 0.69460 -0.16600
O 	O 	0.01980 0.17850 0.71890 -0.19000
N 	N 	0.24620 0.93830 0.78490 -0.18800
N 	N 	0.82950 0.48790 0.20380 -0.19300
N 	N 	0.43590 0.09620 0.78380 -0.20300
N 	N 	0.10740 0.06810 0.82510 -0.20300
C 	C 	0.18940 0.27500 0.73260 1.14600
C 	C 	0.89250 0.56440 0.94400 -0.18300
C 	C 	0.89820 0.57250 0.90910 0.11300
C 	C 	0.95420 0.62830 0.89020 -0.01600
C 	C 	0.00020 0.67870 0.87400 -0.03900
C 	C 	0.05410 0.73270 0.85770 0.11300
C 	C 	0.08580 0.79350 0.87390 -0.12800
C 	C 	0.13440 0.84910 0.85390 0.01200
C 	C 	0.14200 0.83930 0.82000 -0.05600
C 	C 	0.19810 0.89570 0.80320 0.05800
C 	C 	0.11020 0.78080 0.80530 0.04200
C 	C 	0.06470 0.72780 0.82480 -0.14300
C 	C 	0.84360 0.52120 0.88750 -0.15400
C 	C 	0.78390 0.46110 0.90240 0.11100
C 	C 	0.72950 0.41090 0.88230 -0.04600
C 	C 	0.68200 0.36730 0.86640 -0.00200
C 	C 	0.63290 0.30760 0.84960 0.05300
C 	C 	0.61900 0.32040 0.81400 -0.07400
C 	C 	0.56660 0.26150 0.79340 -0.01400
C 	C 	0.53510 0.19720 0.81430 -0.03000
C 	C 	0.47350 0.13920 0.79580 0.14100
C 	C 	0.55030 0.19430 0.85010 -0.00800
C 	C 	0.60440 0.24840 0.86650 -0.09000
C 	C 	0.78560 0.45710 0.93840 -0.16400
C 	C 	0.84170 0.51000 0.96000 0.12900
C 	C 	0.83600 0.50490 0.99490 -0.06200
C 	C 	0.83230 0.49950 0.02580 0.00300
C 	C 	0.82820 0.49640 0.06390 0.04600
C 	C 	0.79930 0.43870 0.08010 -0.07800
C 	C 	0.78720 0.43630 0.11560 -0.02300
C 	C 	0.82680 0.49420 0.13450 -0.01700
C 	C 	0.82550 0.49070 0.17570 0.11700
C 	C 	0.86110 0.55230 0.11610 -0.01400
C 	C 	0.86930 0.55420 0.08270 -0.07900
C 	C 	0.46040 0.44500 0.93650 0.14700
C 	C 	0.41230 0.38560 0.91890 -0.05800
C 	C 	0.37260 0.33530 0.90370 0.00400
C 	C 	0.31400 0.28230 0.88810 0.03400
C 	C 	0.27650 0.22540 0.90570 -0.07000
C 	C 	0.21870 0.16400 0.89160 -0.03600
C 	C 	0.20680 0.16680 0.85570 -0.01600
C 	C 	0.15020 0.11340 0.83580 0.10500
C 	C 	0.24020 0.22010 0.83550 -0.04300
C 	C 	0.29690 0.28410 0.85220 -0.05400
C 	C 	0.45810 0.44190 0.97450 -0.19100
C 	C 	0.47600 0.43460 0.15090 -0.07300
C 	C 	0.47700 0.44050 0.11580 -0.03000
H 	H 	0.92590 0.59890 0.95770 0.10300
H 	H 	0.07590 0.79860 0.89750 0.07900
H 	H 	0.15950 0.89030 0.86420 0.02600
H 	H 	0.11840 0.77520 0.78160 0.05100
H 	H 	0.04070 0.68700 0.81380 0.12600
H 	H 	0.84640 0.52630 0.86360 0.10600
H 	H 	0.64090 0.36250 0.80380 0.08500
H 	H 	0.55450 0.26440 0.76970 0.08500
H 	H 	0.52380 0.15600 0.86250 0.03600
H 	H 	0.62200 0.24420 0.88980 0.06700
H 	H 	0.74960 0.41940 0.94910 0.09700
H 	H 	0.78650 0.39820 0.06730 0.07000
H 	H 	0.75420 0.39790 0.12650 0.06800
H 	H 	0.87950 0.59260 0.12840 0.05200
H 	H 	0.90140 0.59260 0.07150 0.07000
H 	H 	0.28900 0.22560 0.92940 0.06000
H 	H 	0.19250 0.12700 0.90510 0.04300
H 	H 	0.22920 0.21820 0.81170 0.10800
H 	H 	0.31910 0.32260 0.83920 0.08400
H 	H 	0.43000 0.40300 0.98620 0.10600
H 	H 	0.46190 0.39410 0.16360 0.08800
H 	H 	0.46030 0.39990 0.10360 0.05700
Ag	Ag	0.50000 0.50000 0.29000 0.54200
Ag	Ag	0.00000 0.00000 0.79000 0.53700
N 	N 	-0.00000 0.00000 0.73330 -0.17900
C 	C 	0.00000 0.00000 0.41930 -0.25100
C 	C 	0.00000 0.00000 0.49190 0.12400
C 	C 	0.00000 0.00000 0.52980 -0.06300
C 	C 	0.00000 0.00000 0.59610 -0.00700
C 	C 	0.00000 0.00000 0.56070 0.01500
C 	C 	0.00000 0.00000 0.66410 0.01900
C 	C 	0.00000 0.00000 0.69940 0.05200
H 	H 	0.00000 0.00000 0.39530 0.12800
N 	N 	0.50000 0.50000 0.23330 -0.17500
C 	C 	0.50000 0.50000 0.91930 -0.22700
C 	C 	0.50000 0.50000 0.99190 0.13300
C 	C 	0.50000 0.50000 0.02980 -0.05800
C 	C 	0.50000 0.50000 0.09610 0.00700
C 	C 	0.50000 0.50000 0.06070 0.01400
C 	C 	0.50000 0.50000 0.16410 0.03500
C 	C 	0.50000 0.50000 0.19940 0.05300
H 	H 	0.50000 0.50000 0.89530 0.12400
