data_crystal

_cell_length_a 9.57400
_cell_length_b 14.00000
_cell_length_c 17.43500
_cell_angle_alpha 90.00000
_cell_angle_beta  90.00000
_cell_angle_gamma 90.00000

_symmetry_space_group_name_	'P 1'
_symmetry_space_group_name_H-M	'P 1'

loop_
_symmetry_equiv_pos_as_xyz
  x,y,z

loop_
_atom_site_label
_atom_site_type_symbol
_atom_site_fract_x
_atom_site_fract_y
_atom_site_fract_z
_atom_site_charge
Ga	Ga	0.22463 0.29395 0.69846 2.07700
Ga	Ga	0.45118 0.50175 0.45624 2.07300
Ga	Ga	0.24554 0.20719 0.47185 2.08600
Ga	Ga	0.46107 0.51150 0.92710 2.07400
P 	P 	0.25470 0.34939 0.87405 0.65600
P 	P 	0.22190 0.42018 0.55107 0.65000
P 	P 	0.48320 0.21287 0.61963 0.64900
P 	P 	0.76340 0.52288 0.51133 0.62300
P 	P 	0.00220 0.18191 0.60985 0.60700
O 	O 	0.19030 0.33900 0.79420 -0.61800
O 	O 	0.40120 0.24630 0.69270 -0.60700
O 	O 	0.08960 0.20400 0.68300 -0.60700
O 	O 	0.19610 0.39700 0.63590 -0.61100
O 	O 	0.36700 0.46730 0.54660 -0.63300
O 	O 	0.13740 0.38730 0.92600 -0.61400
O 	O 	0.61840 0.55300 0.48300 -0.60100
O 	O 	0.93370 0.08190 0.62430 -0.60800
O 	O 	0.20890 0.33850 0.49760 -0.70400
O 	O 	0.60290 0.28250 0.60940 -0.52200
O 	O 	0.38600 0.20270 0.55270 -0.67600
O 	O 	0.76900 0.42970 0.55410 -0.55400
O 	O 	0.89250 0.25940 0.60210 -0.54000
O 	O 	0.09500 0.16550 0.54100 -0.67700
O 	O 	0.37490 0.42100 0.86790 -0.64700
O 	O 	0.11130 0.49310 0.52440 -0.62900
O 	O 	0.54110 0.11220 0.63880 -0.62200
O 	O 	0.85700 0.52450 0.43990 -0.62700
O 	O 	0.30780 0.25640 0.90480 -0.22600
O 	O 	0.81210 0.59970 0.56850 -0.19000
Ga	Ga	0.27537 0.70605 0.19846 2.07800
Ga	Ga	0.04882 0.49825 0.95624 2.07200
Ga	Ga	0.25446 0.79281 0.97185 2.08600
Ga	Ga	0.03893 0.48850 0.42710 2.07400
P 	P 	0.24530 0.65061 0.37405 0.65600
P 	P 	0.27810 0.57982 0.05107 0.65300
P 	P 	0.01680 0.78713 0.11963 0.66400
P 	P 	0.73660 0.47712 0.01133 0.61800
P 	P 	0.49780 0.81809 0.10985 0.61900
O 	O 	0.30970 0.66100 0.29420 -0.61600
O 	O 	0.09880 0.75370 0.19270 -0.60600
O 	O 	0.41040 0.79600 0.18300 -0.60400
O 	O 	0.30390 0.60300 0.13590 -0.61100
O 	O 	0.13300 0.53270 0.04660 -0.62900
O 	O 	0.36260 0.61270 0.42600 -0.61000
O 	O 	0.88160 0.44700 0.98300 -0.59500
O 	O 	0.56630 0.91810 0.12430 -0.61700
O 	O 	0.29110 0.66150 0.99760 -0.70700
O 	O 	0.89710 0.71750 0.10940 -0.53000
O 	O 	0.11400 0.79730 0.05270 -0.67300
O 	O 	0.73100 0.57030 0.05410 -0.55600
O 	O 	0.60750 0.74060 0.10210 -0.54600
O 	O 	0.40500 0.83450 0.04100 -0.67500
O 	O 	0.12510 0.57900 0.36790 -0.64600
O 	O 	0.38870 0.50690 0.02440 -0.62700
O 	O 	0.95890 0.88780 0.13880 -0.63200
O 	O 	0.64300 0.47550 0.93990 -0.62400
O 	O 	0.19220 0.74360 0.40480 -0.22300
O 	O 	0.68790 0.40030 0.06850 -0.19000
Ga	Ga	0.77537 0.79395 0.80154 2.07800
Ga	Ga	0.54882 0.00175 0.04376 2.07400
Ga	Ga	0.75446 0.70719 0.02815 2.08600
Ga	Ga	0.53893 0.01150 0.57290 2.07400
P 	P 	0.74530 0.84939 0.62595 0.65600
P 	P 	0.77810 0.92018 0.94893 0.65600
P 	P 	0.51680 0.71287 0.88037 0.64900
P 	P 	0.23660 0.02288 0.98867 0.60300
P 	P 	0.99780 0.68191 0.89015 0.62500
O 	O 	0.80970 0.83900 0.70580 -0.61600
O 	O 	0.59880 0.74630 0.80730 -0.60600
O 	O 	0.91040 0.70400 0.81700 -0.60400
O 	O 	0.80390 0.89700 0.86410 -0.61000
O 	O 	0.63300 0.96730 0.95340 -0.63100
O 	O 	0.86260 0.88730 0.57400 -0.61100
O 	O 	0.38160 0.05300 0.01700 -0.59300
O 	O 	0.06630 0.58190 0.87570 -0.62100
O 	O 	0.79110 0.83850 0.00240 -0.71100
O 	O 	0.39710 0.78250 0.89060 -0.52100
O 	O 	0.61400 0.70270 0.94730 -0.67400
O 	O 	0.23100 0.92970 0.94590 -0.54700
O 	O 	0.10750 0.75940 0.89790 -0.54900
O 	O 	0.90500 0.66550 0.95900 -0.67300
O 	O 	0.62510 0.92100 0.63210 -0.64600
O 	O 	0.88870 0.99310 0.97560 -0.62400
O 	O 	0.45890 0.61220 0.86120 -0.62200
O 	O 	0.14300 0.02450 0.06010 -0.61800
O 	O 	0.69220 0.75640 0.59520 -0.22400
O 	O 	0.18790 0.09970 0.93150 -0.19400
Ga	Ga	0.72463 0.20605 0.30154 2.07800
Ga	Ga	0.95118 0.99825 0.54376 2.07200
Ga	Ga	0.74554 0.29281 0.52815 2.08700
Ga	Ga	0.96107 0.98850 0.07290 2.07100
P 	P 	0.75470 0.15061 0.12595 0.65600
P 	P 	0.72190 0.07982 0.44893 0.65100
P 	P 	0.98320 0.28713 0.38037 0.65200
P 	P 	0.26340 0.97712 0.48867 0.62700
P 	P 	0.50220 0.31809 0.39015 0.61900
O 	O 	0.69030 0.16100 0.20580 -0.61500
O 	O 	0.90120 0.25370 0.30730 -0.60700
O 	O 	0.58960 0.29600 0.31700 -0.60500
O 	O 	0.69610 0.10300 0.36410 -0.61000
O 	O 	0.86700 0.03270 0.45340 -0.63000
O 	O 	0.63740 0.11270 0.07400 -0.60900
O 	O 	0.11840 0.94700 0.51700 -0.59800
O 	O 	0.43370 0.41810 0.37570 -0.61600
O 	O 	0.70890 0.16150 0.50240 -0.70300
O 	O 	0.10290 0.21750 0.39060 -0.52400
O 	O 	0.88600 0.29730 0.44730 -0.67500
O 	O 	0.26900 0.07030 0.44590 -0.55800
O 	O 	0.39250 0.24060 0.39790 -0.54600
O 	O 	0.59500 0.33450 0.45900 -0.67500
O 	O 	0.87490 0.07900 0.13210 -0.64400
O 	O 	0.61130 0.00690 0.47560 -0.62800
O 	O 	0.04110 0.38780 0.36120 -0.62200
O 	O 	0.35700 0.97550 0.56010 -0.62500
O 	O 	0.80780 0.24360 0.09520 -0.22400
O 	O 	0.31210 0.90030 0.43150 -0.19000
