data_crystal

_cell_length_a 7.89200
_cell_length_b 9.27200
_cell_length_c 11.94200
_cell_angle_alpha 104.75000
_cell_angle_beta  101.69000
_cell_angle_gamma 107.92000

_symmetry_space_group_name_	'P 1'
_symmetry_space_group_name_H-M	'P 1'

loop_
_symmetry_equiv_pos_as_xyz
  x,y,z

loop_
_atom_site_label
_atom_site_type_symbol
_atom_site_fract_x
_atom_site_fract_y
_atom_site_fract_z
_atom_site_charge
Li	Li	0.43510 0.93510 0.60220 0.55400
Li	Li	0.47390 0.92800 0.10300 0.55600
Li	Li	0.56490 0.06490 0.39780 0.55400
Li	Li	0.52610 0.07200 0.89700 0.55600
Fe	Fe	0.79114 0.58605 0.77376 1.24400
Fe	Fe	0.20886 0.41395 0.22624 1.24400
C 	C 	0.54440 0.27040 0.71380 0.24100
C 	C 	0.70600 0.25600 0.66400 0.22600
C 	C 	0.16240 0.80020 0.89870 0.25400
C 	C 	0.09180 0.72680 0.99060 0.22000
C 	C 	0.61500 0.80220 0.75080 0.25900
C 	C 	0.62150 0.72200 0.62260 0.22200
C 	C 	0.45560 0.72960 0.28620 0.24100
C 	C 	0.29400 0.74400 0.33600 0.22600
C 	C 	0.83760 0.19980 0.10130 0.25400
C 	C 	0.90820 0.27320 0.00940 0.22000
C 	C 	0.38500 0.19780 0.24920 0.25900
C 	C 	0.37850 0.27800 0.37740 0.22200
O 	O 	0.56070 0.41320 0.76780 -0.34000
O 	O 	0.84260 0.39040 0.69040 -0.32300
O 	O 	0.41450 0.14540 0.69910 -0.28800
O 	O 	0.69330 0.12180 0.60350 -0.28800
O 	O 	0.04780 0.74070 0.79090 -0.34400
O 	O 	0.92040 0.62650 0.94840 -0.32500
O 	O 	0.31800 0.90740 0.93330 -0.33600
O 	O 	0.19790 0.76750 0.09280 -0.25200
O 	O 	0.68920 0.75610 0.83340 -0.34900
O 	O 	0.70130 0.61970 0.61660 -0.32600
O 	O 	0.54260 0.90270 0.76410 -0.34800
O 	O 	0.55380 0.76070 0.53880 -0.25700
O 	O 	0.43930 0.58680 0.23220 -0.34000
O 	O 	0.15740 0.60960 0.30960 -0.32300
O 	O 	0.58550 0.85460 0.30090 -0.28800
O 	O 	0.30670 0.87820 0.39650 -0.28800
O 	O 	0.95220 0.25930 0.20910 -0.34400
O 	O 	0.07960 0.37350 0.05160 -0.32500
O 	O 	0.68200 0.09260 0.06670 -0.33600
O 	O 	0.80210 0.23250 0.90720 -0.25200
O 	O 	0.31080 0.24390 0.16660 -0.34900
O 	O 	0.29870 0.38030 0.38340 -0.32600
O 	O 	0.45740 0.09730 0.23590 -0.34800
O 	O 	0.44620 0.23930 0.46120 -0.25700
