data_crystal

_cell_length_a 14.12370
_cell_length_b 14.12370
_cell_length_c 19.85720
_cell_angle_alpha 90.00000
_cell_angle_beta  90.00000
_cell_angle_gamma 90.00000

_symmetry_space_group_name_	'P 1'
_symmetry_space_group_name_H-M	'P 1'

loop_
_symmetry_equiv_pos_as_xyz
  x,y,z

loop_
_atom_site_label
_atom_site_type_symbol
_atom_site_fract_x
_atom_site_fract_y
_atom_site_fract_z
_atom_site_charge
N 	N 	0.39580 0.67010 0.56810 -0.15400
C 	C 	0.38300 0.72720 0.62240 -0.14100
H 	H 	0.42120 0.77840 0.63380 0.13500
O 	O 	0.40910 0.70010 0.57280 -0.32000
C 	C 	0.34160 0.77690 0.69030 0.40500
H 	H 	0.39120 0.80910 0.66970 -0.15700
N 	N 	0.89580 0.17010 0.06810 -0.14900
C 	C 	0.88300 0.22720 0.12240 -0.15100
H 	H 	0.92120 0.27840 0.13380 0.14200
O 	O 	0.90910 0.20010 0.07280 -0.33400
C 	C 	0.84160 0.27690 0.19030 0.42200
H 	H 	0.89120 0.30910 0.16970 -0.16900
N 	N 	0.60420 0.32990 0.56810 -0.16300
C 	C 	0.61700 0.27280 0.62240 -0.14600
H 	H 	0.57880 0.22160 0.63380 0.13200
O 	O 	0.59090 0.29990 0.57280 -0.31400
C 	C 	0.65840 0.22310 0.69030 0.40500
H 	H 	0.60880 0.19090 0.66970 -0.16400
N 	N 	0.10420 0.82990 0.06810 -0.19100
C 	C 	0.11700 0.77280 0.12240 -0.16800
H 	H 	0.07880 0.72160 0.13380 0.12700
O 	O 	0.09090 0.79990 0.07280 -0.30400
C 	C 	0.15840 0.72310 0.19030 0.42300
H 	H 	0.10880 0.69090 0.16970 -0.17800
N 	N 	0.32990 0.39580 0.56810 -0.16200
C 	C 	0.27280 0.38300 0.62240 -0.14900
H 	H 	0.22160 0.42120 0.63380 0.13300
O 	O 	0.29990 0.40910 0.57280 -0.31700
C 	C 	0.22310 0.34160 0.69030 0.40500
H 	H 	0.19090 0.39120 0.66970 -0.16500
N 	N 	0.82990 0.89580 0.06810 -0.16100
C 	C 	0.77280 0.88300 0.12240 -0.14900
H 	H 	0.72160 0.92120 0.13380 0.14100
O 	O 	0.79990 0.90910 0.07280 -0.31000
C 	C 	0.72310 0.84160 0.19030 0.42200
H 	H 	0.69090 0.89120 0.16970 -0.16700
N 	N 	0.67010 0.60420 0.56810 -0.15600
C 	C 	0.72720 0.61700 0.62240 -0.13800
H 	H 	0.77840 0.57880 0.63380 0.13400
O 	O 	0.70010 0.59090 0.57280 -0.31700
C 	C 	0.77690 0.65840 0.69030 0.40600
H 	H 	0.80910 0.60880 0.66970 -0.15600
N 	N 	0.17010 0.10420 0.06810 -0.17900
C 	C 	0.22720 0.11700 0.12240 -0.16900
H 	H 	0.27840 0.07880 0.13380 0.12800
O 	O 	0.20010 0.09090 0.07280 -0.32700
C 	C 	0.27690 0.15840 0.19030 0.42300
H 	H 	0.30910 0.10880 0.16970 -0.17900
N 	N 	0.60420 0.67010 0.43190 -0.15600
C 	C 	0.61700 0.72720 0.37760 -0.13600
H 	H 	0.57880 0.77840 0.36620 0.13300
O 	O 	0.59090 0.70010 0.42720 -0.32000
C 	C 	0.65840 0.77690 0.30970 0.41500
H 	H 	0.60880 0.80910 0.33030 -0.16100
N 	N 	0.10420 0.17010 0.93190 -0.13900
C 	C 	0.11700 0.22720 0.87760 -0.14100
H 	H 	0.07880 0.27840 0.86620 0.13000
O 	O 	0.09090 0.20010 0.92720 -0.29600
C 	C 	0.15840 0.27690 0.80970 0.39600
H 	H 	0.10880 0.30910 0.83030 -0.15800
N 	N 	0.39580 0.32990 0.43190 -0.16200
C 	C 	0.38300 0.27280 0.37760 -0.14700
H 	H 	0.42120 0.22160 0.36620 0.13200
O 	O 	0.40910 0.29990 0.42720 -0.31900
C 	C 	0.34160 0.22310 0.30970 0.41500
H 	H 	0.39120 0.19090 0.33030 -0.17100
N 	N 	0.89580 0.82990 0.93190 -0.12300
C 	C 	0.88300 0.77280 0.87760 -0.12300
H 	H 	0.92120 0.72160 0.86620 0.14200
O 	O 	0.90910 0.79990 0.92720 -0.28100
C 	C 	0.84160 0.72310 0.80970 0.39700
H 	H 	0.89120 0.69090 0.83030 -0.14700
N 	N 	0.67010 0.39580 0.43190 -0.15500
C 	C 	0.72720 0.38300 0.37760 -0.14000
H 	H 	0.77840 0.42120 0.36620 0.13400
O 	O 	0.70010 0.40910 0.42720 -0.32300
C 	C 	0.77690 0.34160 0.30970 0.41500
H 	H 	0.80910 0.39120 0.33030 -0.16300
N 	N 	0.17010 0.89580 0.93190 -0.11100
C 	C 	0.22720 0.88300 0.87760 -0.12400
H 	H 	0.27840 0.92120 0.86620 0.14300
O 	O 	0.20010 0.90910 0.92720 -0.30300
C 	C 	0.27690 0.84160 0.80970 0.39600
H 	H 	0.30910 0.89120 0.83030 -0.14800
N 	N 	0.32990 0.60420 0.43190 -0.16300
C 	C 	0.27280 0.61700 0.37760 -0.14400
H 	H 	0.22160 0.57880 0.36620 0.13100
O 	O 	0.29990 0.59090 0.42720 -0.31600
C 	C 	0.22310 0.65840 0.30970 0.41500
H 	H 	0.19090 0.60880 0.33030 -0.16900
N 	N 	0.82990 0.10420 0.93190 -0.15100
C 	C 	0.77280 0.11700 0.87760 -0.14000
H 	H 	0.72160 0.07880 0.86620 0.12900
O 	O 	0.79990 0.09090 0.92720 -0.27500
C 	C 	0.72310 0.15840 0.80970 0.39700
H 	H 	0.69090 0.10880 0.83030 -0.15700
N 	N 	0.60420 0.32990 0.43190 -0.16300
C 	C 	0.61700 0.27280 0.37760 -0.14400
H 	H 	0.57880 0.22160 0.36620 0.13100
O 	O 	0.59090 0.29990 0.42720 -0.31600
C 	C 	0.65840 0.22310 0.30970 0.41500
H 	H 	0.60880 0.19090 0.33030 -0.16900
N 	N 	0.10420 0.82990 0.93190 -0.15100
C 	C 	0.11700 0.77280 0.87760 -0.14000
H 	H 	0.07880 0.72160 0.86620 0.12900
O 	O 	0.09090 0.79990 0.92720 -0.27500
C 	C 	0.15840 0.72310 0.80970 0.39700
H 	H 	0.10880 0.69090 0.83030 -0.15700
N 	N 	0.39580 0.67010 0.43190 -0.15500
C 	C 	0.38300 0.72720 0.37760 -0.14000
H 	H 	0.42120 0.77840 0.36620 0.13400
O 	O 	0.40910 0.70010 0.42720 -0.32300
C 	C 	0.34160 0.77690 0.30970 0.41500
H 	H 	0.39120 0.80910 0.33030 -0.16300
N 	N 	0.89580 0.17010 0.93190 -0.11100
C 	C 	0.88300 0.22720 0.87760 -0.12400
H 	H 	0.92120 0.27840 0.86620 0.14300
O 	O 	0.90910 0.20010 0.92720 -0.30300
C 	C 	0.84160 0.27690 0.80970 0.39600
H 	H 	0.89120 0.30910 0.83030 -0.14800
N 	N 	0.67010 0.60420 0.43190 -0.15600
C 	C 	0.72720 0.61700 0.37760 -0.13600
H 	H 	0.77840 0.57880 0.36620 0.13300
O 	O 	0.70010 0.59090 0.42720 -0.32000
C 	C 	0.77690 0.65840 0.30970 0.41500
H 	H 	0.80910 0.60880 0.33030 -0.16100
N 	N 	0.17010 0.10420 0.93190 -0.13900
C 	C 	0.22720 0.11700 0.87760 -0.14100
H 	H 	0.27840 0.07880 0.86620 0.13000
O 	O 	0.20010 0.09090 0.92720 -0.29600
C 	C 	0.27690 0.15840 0.80970 0.39600
H 	H 	0.30910 0.10880 0.83030 -0.15800
N 	N 	0.32990 0.39580 0.43190 -0.16200
C 	C 	0.27280 0.38300 0.37760 -0.14700
H 	H 	0.22160 0.42120 0.36620 0.13200
O 	O 	0.29990 0.40910 0.42720 -0.31900
C 	C 	0.22310 0.34160 0.30970 0.41500
H 	H 	0.19090 0.39120 0.33030 -0.17100
N 	N 	0.82990 0.89580 0.93190 -0.12300
C 	C 	0.77280 0.88300 0.87760 -0.12300
H 	H 	0.72160 0.92120 0.86620 0.14200
O 	O 	0.79990 0.90910 0.92720 -0.28100
C 	C 	0.72310 0.84160 0.80970 0.39700
H 	H 	0.69090 0.89120 0.83030 -0.14700
N 	N 	0.39580 0.32990 0.56810 -0.16200
C 	C 	0.38300 0.27280 0.62240 -0.14900
H 	H 	0.42120 0.22160 0.63380 0.13300
O 	O 	0.40910 0.29990 0.57280 -0.31700
C 	C 	0.34160 0.22310 0.69030 0.40500
H 	H 	0.39120 0.19090 0.66970 -0.16500
N 	N 	0.89580 0.82990 0.06810 -0.16100
C 	C 	0.88300 0.77280 0.12240 -0.14900
H 	H 	0.92120 0.72160 0.13380 0.14100
O 	O 	0.90910 0.79990 0.07280 -0.31000
C 	C 	0.84160 0.72310 0.19030 0.42200
H 	H 	0.89120 0.69090 0.16970 -0.16700
N 	N 	0.60420 0.67010 0.56810 -0.15600
C 	C 	0.61700 0.72720 0.62240 -0.13800
H 	H 	0.57880 0.77840 0.63380 0.13400
O 	O 	0.59090 0.70010 0.57280 -0.31700
C 	C 	0.65840 0.77690 0.69030 0.40600
H 	H 	0.60880 0.80910 0.66970 -0.15600
N 	N 	0.10420 0.17010 0.06810 -0.17900
C 	C 	0.11700 0.22720 0.12240 -0.16900
H 	H 	0.07880 0.27840 0.13380 0.12800
O 	O 	0.09090 0.20010 0.07280 -0.32700
C 	C 	0.15840 0.27690 0.19030 0.42300
H 	H 	0.10880 0.30910 0.16970 -0.17900
N 	N 	0.32990 0.60420 0.56810 -0.16300
C 	C 	0.27280 0.61700 0.62240 -0.14600
H 	H 	0.22160 0.57880 0.63380 0.13200
O 	O 	0.29990 0.59090 0.57280 -0.31400
C 	C 	0.22310 0.65840 0.69030 0.40500
H 	H 	0.19090 0.60880 0.66970 -0.16400
N 	N 	0.82990 0.10420 0.06810 -0.19100
C 	C 	0.77280 0.11700 0.12240 -0.16800
H 	H 	0.72160 0.07880 0.13380 0.12700
O 	O 	0.79990 0.09090 0.07280 -0.30400
C 	C 	0.72310 0.15840 0.19030 0.42300
H 	H 	0.69090 0.10880 0.16970 -0.17800
N 	N 	0.67010 0.39580 0.56810 -0.15500
C 	C 	0.72720 0.38300 0.62240 -0.14200
H 	H 	0.77840 0.42120 0.63380 0.13500
O 	O 	0.70010 0.40910 0.57280 -0.32000
C 	C 	0.77690 0.34160 0.69030 0.40500
H 	H 	0.80910 0.39120 0.66970 -0.15700
N 	N 	0.17010 0.89580 0.06810 -0.14900
C 	C 	0.22720 0.88300 0.12240 -0.15100
H 	H 	0.27840 0.92120 0.13380 0.14200
O 	O 	0.20010 0.90910 0.07280 -0.33400
C 	C 	0.27690 0.84160 0.19030 0.42200
H 	H 	0.30910 0.89120 0.16970 -0.16900
Cu	Cu	0.50000 0.67915 0.50000 0.95300
Cu	Cu	-0.00000 0.17915 -0.00000 0.89500
Cu	Cu	0.50000 0.32085 0.50000 0.95000
Cu	Cu	-0.00000 0.82085 -0.00000 0.89800
Cu	Cu	0.32085 0.50000 0.50000 0.95000
Cu	Cu	0.82085 0.00000 -0.00000 0.89800
Cu	Cu	0.67915 0.50000 0.50000 0.95300
Cu	Cu	0.17915 0.00000 -0.00000 0.89500
Cl	Cl	0.50000 0.50000 0.50000 -0.65200
Cl	Cl	-0.00000 0.00000 -0.00000 -0.78100
C 	C 	0.30300 0.69700 0.65880 -0.51900
C 	C 	0.26700 0.73300 0.71930 0.32000
C 	C 	0.34020 0.65980 0.59560 0.80700
C 	C 	0.80300 0.19700 0.15880 -0.53700
C 	C 	0.76700 0.23300 0.21930 0.32300
C 	C 	0.84020 0.15980 0.09560 0.82900
C 	C 	0.69700 0.30300 0.65880 -0.51900
C 	C 	0.73300 0.26700 0.71930 0.32000
C 	C 	0.65980 0.34020 0.59560 0.80700
C 	C 	0.19700 0.80300 0.15880 -0.53700
C 	C 	0.23300 0.76700 0.21930 0.32300
C 	C 	0.15980 0.84020 0.09560 0.82900
C 	C 	0.30300 0.30300 0.65880 -0.52000
C 	C 	0.26700 0.26700 0.71930 0.31600
C 	C 	0.34020 0.34020 0.59560 0.81200
C 	C 	0.80300 0.80300 0.15880 -0.53000
C 	C 	0.76700 0.76700 0.21930 0.32600
C 	C 	0.84020 0.84020 0.09560 0.81200
C 	C 	0.69700 0.69700 0.65880 -0.51700
C 	C 	0.73300 0.73300 0.71930 0.32400
C 	C 	0.65980 0.65980 0.59560 0.80300
C 	C 	0.19700 0.19700 0.15880 -0.54400
C 	C 	0.23300 0.23300 0.21930 0.32100
C 	C 	0.15980 0.15980 0.09560 0.84300
C 	C 	0.69700 0.69700 0.34120 -0.53500
C 	C 	0.73300 0.73300 0.28070 0.33800
C 	C 	0.65980 0.65980 0.40440 0.80700
C 	C 	0.19700 0.19700 0.84120 -0.50600
C 	C 	0.23300 0.23300 0.78070 0.32200
C 	C 	0.15980 0.15980 0.90440 0.78200
C 	C 	0.30300 0.30300 0.34120 -0.53800
C 	C 	0.26700 0.26700 0.28070 0.33100
C 	C 	0.34020 0.34020 0.40440 0.81700
C 	C 	0.80300 0.80300 0.84120 -0.49500
C 	C 	0.76700 0.76700 0.78070 0.32700
C 	C 	0.84020 0.84020 0.90440 0.75500
C 	C 	0.69700 0.30300 0.34120 -0.53700
C 	C 	0.73300 0.26700 0.28070 0.33500
C 	C 	0.65980 0.34020 0.40440 0.81200
C 	C 	0.19700 0.80300 0.84120 -0.50100
C 	C 	0.23300 0.76700 0.78070 0.32500
C 	C 	0.15980 0.84020 0.90440 0.76900
C 	C 	0.30300 0.69700 0.34120 -0.53700
C 	C 	0.26700 0.73300 0.28070 0.33500
C 	C 	0.34020 0.65980 0.40440 0.81200
C 	C 	0.80300 0.19700 0.84120 -0.50100
C 	C 	0.76700 0.23300 0.78070 0.32500
C 	C 	0.84020 0.15980 0.90440 0.76900
C 	C 	0.30800 0.80800 0.75000 -0.77900
H 	H 	0.35450 0.85450 0.75000 0.27800
C 	C 	0.69200 0.19200 0.75000 -0.78000
H 	H 	0.64550 0.14550 0.75000 0.26700
C 	C 	0.19200 0.30800 0.75000 -0.78100
H 	H 	0.14550 0.35450 0.75000 0.26600
C 	C 	0.80800 0.69200 0.75000 -0.77800
H 	H 	0.85450 0.64550 0.75000 0.27900
C 	C 	0.69200 0.80800 0.25000 -0.80800
H 	H 	0.64550 0.85450 0.25000 0.28300
C 	C 	0.30800 0.19200 0.25000 -0.81300
H 	H 	0.35450 0.14550 0.25000 0.26900
C 	C 	0.80800 0.30800 0.25000 -0.81000
H 	H 	0.85450 0.35450 0.25000 0.28200
C 	C 	0.19200 0.69200 0.25000 -0.81200
H 	H 	0.14550 0.64550 0.25000 0.27000
C 	C 	0.69200 0.19200 0.25000 -0.81200
H 	H 	0.64550 0.14550 0.25000 0.27000
C 	C 	0.30800 0.80800 0.25000 -0.81000
H 	H 	0.35450 0.85450 0.25000 0.28200
C 	C 	0.80800 0.69200 0.25000 -0.80800
H 	H 	0.85450 0.64550 0.25000 0.28300
C 	C 	0.19200 0.30800 0.25000 -0.81300
H 	H 	0.14550 0.35450 0.25000 0.26900
C 	C 	0.30800 0.19200 0.75000 -0.78100
H 	H 	0.35450 0.14550 0.75000 0.26600
C 	C 	0.69200 0.80800 0.75000 -0.77800
H 	H 	0.64550 0.85450 0.75000 0.27900
C 	C 	0.19200 0.69200 0.75000 -0.78000
H 	H 	0.14550 0.64550 0.75000 0.26700
C 	C 	0.80800 0.30800 0.75000 -0.77900
H 	H 	0.85450 0.35450 0.75000 0.27800
