data_crystal

_cell_length_a 14.02410
_cell_length_b 14.02410
_cell_length_c 19.93730
_cell_angle_alpha 90.00000
_cell_angle_beta  90.00000
_cell_angle_gamma 90.00000

_symmetry_space_group_name_	'P 1'
_symmetry_space_group_name_H-M	'P 1'

loop_
_symmetry_equiv_pos_as_xyz
  x,y,z

loop_
_atom_site_label
_atom_site_type_symbol
_atom_site_fract_x
_atom_site_fract_y
_atom_site_fract_z
_atom_site_charge
N 	N 	0.17370 0.89410 0.93190 -0.14400
C 	C 	0.22210 0.88560 0.87620 -0.16800
H 	H 	0.26880 0.93000 0.86160 0.11700
C 	C 	0.28240 0.83380 0.81200 0.21100
H 	H 	0.32320 0.87410 0.83740 -0.04900
O 	O 	0.20230 0.90990 0.92650 -0.21800
N 	N 	0.67370 0.39410 0.43190 -0.19300
C 	C 	0.72210 0.38560 0.37620 -0.18100
H 	H 	0.76880 0.43000 0.36160 0.10500
C 	C 	0.78240 0.33380 0.31200 0.23300
H 	H 	0.82320 0.37410 0.33740 -0.06500
O 	O 	0.70230 0.40990 0.42650 -0.22700
N 	N 	0.82630 0.10590 0.93190 -0.18500
C 	C 	0.77790 0.11440 0.87620 -0.18100
H 	H 	0.73120 0.07000 0.86160 0.10000
C 	C 	0.71760 0.16620 0.81200 0.21400
H 	H 	0.67680 0.12590 0.83740 -0.05700
O 	O 	0.79770 0.09010 0.92650 -0.18500
N 	N 	0.32630 0.60590 0.43190 -0.20000
C 	C 	0.27790 0.61440 0.37620 -0.18400
H 	H 	0.23120 0.57000 0.36160 0.10300
C 	C 	0.21760 0.66620 0.31200 0.23700
H 	H 	0.17680 0.62590 0.33740 -0.07400
O 	O 	0.29770 0.59010 0.42650 -0.22100
N 	N 	0.10590 0.17370 0.93190 -0.17200
C 	C 	0.11440 0.22210 0.87620 -0.18300
H 	H 	0.07000 0.26880 0.86160 0.10100
C 	C 	0.16620 0.28240 0.81200 0.21900
H 	H 	0.12590 0.32320 0.83740 -0.06000
O 	O 	0.09010 0.20230 0.92650 -0.20700
N 	N 	0.60590 0.67370 0.43190 -0.19100
C 	C 	0.61440 0.72210 0.37620 -0.17800
H 	H 	0.57000 0.76880 0.36160 0.10500
C 	C 	0.66620 0.78240 0.31200 0.23600
H 	H 	0.62590 0.82320 0.33740 -0.06300
O 	O 	0.59010 0.70230 0.42650 -0.22600
N 	N 	0.89410 0.82630 0.93190 -0.15600
C 	C 	0.88560 0.77790 0.87620 -0.16400
H 	H 	0.93000 0.73120 0.86160 0.11800
C 	C 	0.83380 0.71760 0.81200 0.20600
H 	H 	0.87410 0.67680 0.83740 -0.04600
O 	O 	0.90990 0.79770 0.92650 -0.19400
N 	N 	0.39410 0.32630 0.43190 -0.20000
C 	C 	0.38560 0.27790 0.37620 -0.18600
H 	H 	0.43000 0.23120 0.36160 0.10400
C 	C 	0.33380 0.21760 0.31200 0.23500
H 	H 	0.37410 0.17680 0.33740 -0.07600
O 	O 	0.40990 0.29770 0.42650 -0.22200
N 	N 	0.82630 0.89410 0.06810 -0.20100
C 	C 	0.77790 0.88560 0.12380 -0.18600
H 	H 	0.73120 0.93000 0.13840 0.11600
C 	C 	0.71760 0.83380 0.18800 0.22700
H 	H 	0.67680 0.87410 0.16260 -0.06900
O 	O 	0.79770 0.90990 0.07350 -0.21000
N 	N 	0.32630 0.39410 0.56810 -0.20100
C 	C 	0.27790 0.38560 0.62380 -0.18900
H 	H 	0.23120 0.43000 0.63840 0.10700
C 	C 	0.21760 0.33380 0.68800 0.21600
H 	H 	0.17680 0.37410 0.66260 -0.06800
O 	O 	0.29770 0.40990 0.57350 -0.21900
N 	N 	0.17370 0.10590 0.06810 -0.21900
C 	C 	0.22210 0.11440 0.12380 -0.20500
H 	H 	0.26880 0.07000 0.13840 0.09800
C 	C 	0.28240 0.16620 0.18800 0.24200
H 	H 	0.32320 0.12590 0.16260 -0.08400
O 	O 	0.20230 0.09010 0.07350 -0.22500
N 	N 	0.67370 0.60590 0.56810 -0.19200
C 	C 	0.72210 0.61440 0.62380 -0.18000
H 	H 	0.76880 0.57000 0.63840 0.10800
C 	C 	0.78240 0.66620 0.68800 0.21800
H 	H 	0.82320 0.62590 0.66260 -0.05600
O 	O 	0.70230 0.59010 0.57350 -0.22200
N 	N 	0.89410 0.17370 0.06810 -0.18800
C 	C 	0.88560 0.22210 0.12380 -0.18900
H 	H 	0.93000 0.26880 0.13840 0.11600
C 	C 	0.83380 0.28240 0.18800 0.23400
H 	H 	0.87410 0.32320 0.16260 -0.07200
O 	O 	0.90990 0.20230 0.07350 -0.23500
N 	N 	0.39410 0.67370 0.56810 -0.19200
C 	C 	0.38560 0.72210 0.62380 -0.18300
H 	H 	0.43000 0.76880 0.63840 0.10900
C 	C 	0.33380 0.78240 0.68800 0.21600
H 	H 	0.37410 0.82320 0.66260 -0.05800
O 	O 	0.40990 0.70230 0.57350 -0.22400
N 	N 	0.10590 0.82630 0.06810 -0.23300
C 	C 	0.11440 0.77790 0.12380 -0.20300
H 	H 	0.07000 0.73120 0.13840 0.09700
C 	C 	0.16620 0.71760 0.18800 0.23600
H 	H 	0.12590 0.67680 0.16260 -0.08200
O 	O 	0.09010 0.79770 0.07350 -0.20100
N 	N 	0.60590 0.32630 0.56810 -0.20000
C 	C 	0.61440 0.27790 0.62380 -0.18700
H 	H 	0.57000 0.23120 0.63840 0.10600
C 	C 	0.66620 0.21760 0.68800 0.21800
H 	H 	0.62590 0.17680 0.66260 -0.06700
O 	O 	0.59010 0.29770 0.57350 -0.21700
N 	N 	0.82630 0.10590 0.06810 -0.23300
C 	C 	0.77790 0.11440 0.12380 -0.20300
H 	H 	0.73120 0.07000 0.13840 0.09700
C 	C 	0.71760 0.16620 0.18800 0.23600
H 	H 	0.67680 0.12590 0.16260 -0.08200
O 	O 	0.79770 0.09010 0.07350 -0.20100
N 	N 	0.32630 0.60590 0.56810 -0.20000
C 	C 	0.27790 0.61440 0.62380 -0.18700
H 	H 	0.23120 0.57000 0.63840 0.10600
C 	C 	0.21760 0.66620 0.68800 0.21800
H 	H 	0.17680 0.62590 0.66260 -0.06700
O 	O 	0.29770 0.59010 0.57350 -0.21700
N 	N 	0.17370 0.89410 0.06810 -0.18800
C 	C 	0.22210 0.88560 0.12380 -0.18900
H 	H 	0.26880 0.93000 0.13840 0.11600
C 	C 	0.28240 0.83380 0.18800 0.23400
H 	H 	0.32320 0.87410 0.16260 -0.07200
O 	O 	0.20230 0.90990 0.07350 -0.23500
N 	N 	0.67370 0.39410 0.56810 -0.19200
C 	C 	0.72210 0.38560 0.62380 -0.18300
H 	H 	0.76880 0.43000 0.63840 0.10900
C 	C 	0.78240 0.33380 0.68800 0.21600
H 	H 	0.82320 0.37410 0.66260 -0.05800
O 	O 	0.70230 0.40990 0.57350 -0.22400
N 	N 	0.89410 0.82630 0.06810 -0.20100
C 	C 	0.88560 0.77790 0.12380 -0.18600
H 	H 	0.93000 0.73120 0.13840 0.11600
C 	C 	0.83380 0.71760 0.18800 0.22700
H 	H 	0.87410 0.67680 0.16260 -0.06900
O 	O 	0.90990 0.79770 0.07350 -0.21000
N 	N 	0.39410 0.32630 0.56810 -0.20100
C 	C 	0.38560 0.27790 0.62380 -0.18900
H 	H 	0.43000 0.23120 0.63840 0.10700
C 	C 	0.33380 0.21760 0.68800 0.21600
H 	H 	0.37410 0.17680 0.66260 -0.06800
O 	O 	0.40990 0.29770 0.57350 -0.21900
N 	N 	0.10590 0.17370 0.06810 -0.21900
C 	C 	0.11440 0.22210 0.12380 -0.20500
H 	H 	0.07000 0.26880 0.13840 0.09800
C 	C 	0.16620 0.28240 0.18800 0.24200
H 	H 	0.12590 0.32320 0.16260 -0.08400
O 	O 	0.09010 0.20230 0.07350 -0.22500
N 	N 	0.60590 0.67370 0.56810 -0.19200
C 	C 	0.61440 0.72210 0.62380 -0.18000
H 	H 	0.57000 0.76880 0.63840 0.10800
C 	C 	0.66620 0.78240 0.68800 0.21800
H 	H 	0.62590 0.82320 0.66260 -0.05600
O 	O 	0.59010 0.70230 0.57350 -0.22200
N 	N 	0.17370 0.10590 0.93190 -0.17200
C 	C 	0.22210 0.11440 0.87620 -0.18300
H 	H 	0.26880 0.07000 0.86160 0.10100
C 	C 	0.28240 0.16620 0.81200 0.21900
H 	H 	0.32320 0.12590 0.83740 -0.06000
O 	O 	0.20230 0.09010 0.92650 -0.20700
N 	N 	0.67370 0.60590 0.43190 -0.19100
C 	C 	0.72210 0.61440 0.37620 -0.17800
H 	H 	0.76880 0.57000 0.36160 0.10500
C 	C 	0.78240 0.66620 0.31200 0.23600
H 	H 	0.82320 0.62590 0.33740 -0.06300
O 	O 	0.70230 0.59010 0.42650 -0.22600
N 	N 	0.82630 0.89410 0.93190 -0.15600
C 	C 	0.77790 0.88560 0.87620 -0.16400
H 	H 	0.73120 0.93000 0.86160 0.11800
C 	C 	0.71760 0.83380 0.81200 0.20600
H 	H 	0.67680 0.87410 0.83740 -0.04600
O 	O 	0.79770 0.90990 0.92650 -0.19400
N 	N 	0.32630 0.39410 0.43190 -0.20000
C 	C 	0.27790 0.38560 0.37620 -0.18600
H 	H 	0.23120 0.43000 0.36160 0.10400
C 	C 	0.21760 0.33380 0.31200 0.23500
H 	H 	0.17680 0.37410 0.33740 -0.07600
O 	O 	0.29770 0.40990 0.42650 -0.22200
N 	N 	0.10590 0.82630 0.93190 -0.18500
C 	C 	0.11440 0.77790 0.87620 -0.18100
H 	H 	0.07000 0.73120 0.86160 0.10000
C 	C 	0.16620 0.71760 0.81200 0.21400
H 	H 	0.12590 0.67680 0.83740 -0.05700
O 	O 	0.09010 0.79770 0.92650 -0.18500
N 	N 	0.60590 0.32630 0.43190 -0.20000
C 	C 	0.61440 0.27790 0.37620 -0.18400
H 	H 	0.57000 0.23120 0.36160 0.10300
C 	C 	0.66620 0.21760 0.31200 0.23700
H 	H 	0.62590 0.17680 0.33740 -0.07400
O 	O 	0.59010 0.29770 0.42650 -0.22100
N 	N 	0.89410 0.17370 0.93190 -0.14300
C 	C 	0.88560 0.22210 0.87620 -0.16700
H 	H 	0.93000 0.26880 0.86160 0.11800
C 	C 	0.83380 0.28240 0.81200 0.21200
H 	H 	0.87410 0.32320 0.83740 -0.04800
O 	O 	0.90990 0.20230 0.92650 -0.21700
N 	N 	0.39410 0.67370 0.43190 -0.19200
C 	C 	0.38560 0.72210 0.37620 -0.18000
H 	H 	0.43000 0.76880 0.36160 0.10600
C 	C 	0.33380 0.78240 0.31200 0.23400
H 	H 	0.37410 0.82320 0.33740 -0.06500
O 	O 	0.40990 0.70230 0.42650 -0.22700
Cu	Cu	0.18067 0.00000 -0.00000 0.88100
Cu	Cu	0.68067 0.50000 0.50000 0.93800
Cu	Cu	0.81933 0.00000 -0.00000 0.88400
Cu	Cu	0.31933 0.50000 0.50000 0.93500
Cu	Cu	-0.00000 0.18067 -0.00000 0.88100
Cu	Cu	0.50000 0.68067 0.50000 0.93800
Cu	Cu	-0.00000 0.81933 -0.00000 0.88400
Cu	Cu	0.50000 0.31933 0.50000 0.93500
Cl	Cl	-0.00000 0.00000 -0.00000 -0.77400
Cl	Cl	0.50000 0.50000 0.50000 -0.64900
C 	C 	0.19700 0.80300 0.84060 -0.33600
C 	C 	0.22410 0.77590 0.77820 0.21800
C 	C 	0.16370 0.83630 0.90320 0.71100
C 	C 	0.69700 0.30300 0.34060 -0.37500
C 	C 	0.72410 0.27590 0.27820 0.22700
C 	C 	0.66370 0.33630 0.40320 0.75100
C 	C 	0.80300 0.19700 0.84060 -0.33600
C 	C 	0.77590 0.22410 0.77820 0.21800
C 	C 	0.83630 0.16370 0.90320 0.71100
C 	C 	0.30300 0.69700 0.34060 -0.37500
C 	C 	0.27590 0.72410 0.27820 0.22700
C 	C 	0.33630 0.66370 0.40320 0.75100
C 	C 	0.19700 0.19700 0.84060 -0.34400
C 	C 	0.22410 0.22410 0.77820 0.21000
C 	C 	0.16370 0.16370 0.90320 0.72500
C 	C 	0.69700 0.69700 0.34060 -0.37000
C 	C 	0.72410 0.72410 0.27820 0.22400
C 	C 	0.66370 0.66370 0.40320 0.74600
C 	C 	0.80300 0.80300 0.84060 -0.32700
C 	C 	0.77590 0.77590 0.77820 0.22700
C 	C 	0.83630 0.83630 0.90320 0.69500
C 	C 	0.30300 0.30300 0.34060 -0.37900
C 	C 	0.27590 0.27590 0.27820 0.23100
C 	C 	0.33630 0.33630 0.40320 0.75700
C 	C 	0.80300 0.80300 0.15940 -0.36600
C 	C 	0.77590 0.77590 0.22180 0.23900
C 	C 	0.83630 0.83630 0.09680 0.74800
C 	C 	0.30300 0.30300 0.65940 -0.35800
C 	C 	0.27590 0.27590 0.72180 0.22700
C 	C 	0.33630 0.33630 0.59680 0.75200
C 	C 	0.19700 0.19700 0.15940 -0.38600
C 	C 	0.22410 0.22410 0.22180 0.22200
C 	C 	0.16370 0.16370 0.09680 0.78200
C 	C 	0.69700 0.69700 0.65940 -0.35000
C 	C 	0.72410 0.72410 0.72180 0.22100
C 	C 	0.66370 0.66370 0.59680 0.74100
C 	C 	0.80300 0.19700 0.15940 -0.37600
C 	C 	0.77590 0.22410 0.22180 0.23000
C 	C 	0.83630 0.16370 0.09680 0.76600
C 	C 	0.30300 0.69700 0.65940 -0.35400
C 	C 	0.27590 0.72410 0.72180 0.22400
C 	C 	0.33630 0.66370 0.59680 0.74700
C 	C 	0.19700 0.80300 0.15940 -0.37600
C 	C 	0.22410 0.77590 0.22180 0.23000
C 	C 	0.16370 0.83630 0.09680 0.76600
C 	C 	0.69700 0.30300 0.65940 -0.35400
C 	C 	0.72410 0.27590 0.72180 0.22400
C 	C 	0.66370 0.33630 0.59680 0.74700
C 	C 	0.30850 0.80850 0.75000 -0.47800
H 	H 	0.35640 0.85640 0.75000 0.17500
C 	C 	0.69150 0.19150 0.75000 -0.48100
H 	H 	0.64360 0.14360 0.75000 0.16400
C 	C 	0.19150 0.30850 0.75000 -0.48400
H 	H 	0.14360 0.35640 0.75000 0.16400
C 	C 	0.80850 0.69150 0.75000 -0.47400
H 	H 	0.85640 0.64360 0.75000 0.17500
C 	C 	0.30850 0.19150 0.25000 -0.51800
H 	H 	0.35640 0.14360 0.25000 0.16800
C 	C 	0.69150 0.80850 0.25000 -0.50600
H 	H 	0.64360 0.85640 0.25000 0.17900
C 	C 	0.80850 0.30850 0.25000 -0.51100
H 	H 	0.85640 0.35640 0.25000 0.17900
C 	C 	0.19150 0.69150 0.25000 -0.51400
H 	H 	0.14360 0.64360 0.25000 0.16900
C 	C 	0.69150 0.19150 0.25000 -0.51400
H 	H 	0.64360 0.14360 0.25000 0.16900
C 	C 	0.30850 0.80850 0.25000 -0.51100
H 	H 	0.35640 0.85640 0.25000 0.17900
C 	C 	0.80850 0.69150 0.25000 -0.50600
H 	H 	0.85640 0.64360 0.25000 0.17900
C 	C 	0.19150 0.30850 0.25000 -0.51800
H 	H 	0.14360 0.35640 0.25000 0.16800
C 	C 	0.30850 0.19150 0.75000 -0.48400
H 	H 	0.35640 0.14360 0.75000 0.16400
C 	C 	0.69150 0.80850 0.75000 -0.47400
H 	H 	0.64360 0.85640 0.75000 0.17500
C 	C 	0.19150 0.69150 0.75000 -0.48100
H 	H 	0.14360 0.64360 0.75000 0.16400
C 	C 	0.80850 0.30850 0.75000 -0.47800
H 	H 	0.85640 0.35640 0.75000 0.17500
