data_crystal

_cell_length_a 14.20660
_cell_length_b 14.20660
_cell_length_c 19.81370
_cell_angle_alpha 90.00000
_cell_angle_beta  90.00000
_cell_angle_gamma 90.00000

_symmetry_space_group_name_	'P 1'
_symmetry_space_group_name_H-M	'P 1'

loop_
_symmetry_equiv_pos_as_xyz
  x,y,z

loop_
_atom_site_label
_atom_site_type_symbol
_atom_site_fract_x
_atom_site_fract_y
_atom_site_fract_z
_atom_site_charge
N 	N 	0.17310 0.10500 0.06810 -0.15800
C 	C 	0.22710 0.11960 0.12200 -0.17800
H 	H 	0.27890 0.08280 0.13330 0.14500
C 	C 	0.27090 0.15530 0.19220 0.46500
H 	H 	0.29690 0.10040 0.17470 -0.20100
O 	O 	0.19870 0.08880 0.07420 -0.33400
N 	N 	0.67310 0.60500 0.56810 -0.14100
C 	C 	0.72710 0.61960 0.62200 -0.15300
H 	H 	0.77890 0.58280 0.63330 0.15200
C 	C 	0.77090 0.65530 0.69220 0.45300
H 	H 	0.79690 0.60040 0.67470 -0.18200
O 	O 	0.69870 0.58880 0.57420 -0.32200
N 	N 	0.82690 0.89500 0.06810 -0.14000
C 	C 	0.77290 0.88040 0.12200 -0.15200
H 	H 	0.72110 0.91720 0.13330 0.15100
C 	C 	0.72910 0.84470 0.19220 0.45900
H 	H 	0.70310 0.89960 0.17470 -0.18400
O 	O 	0.80130 0.91120 0.07420 -0.32000
N 	N 	0.32690 0.39500 0.56810 -0.14500
C 	C 	0.27290 0.38040 0.62200 -0.16100
H 	H 	0.22110 0.41720 0.63330 0.14800
C 	C 	0.22910 0.34470 0.69220 0.45000
H 	H 	0.20310 0.39960 0.67470 -0.18700
O 	O 	0.30130 0.41120 0.57420 -0.32300
N 	N 	0.89500 0.17310 0.06810 -0.13000
C 	C 	0.88040 0.22710 0.12200 -0.15900
H 	H 	0.91720 0.27890 0.13330 0.15500
C 	C 	0.84470 0.27090 0.19220 0.46100
H 	H 	0.89960 0.29690 0.17470 -0.18800
O 	O 	0.91120 0.19870 0.07420 -0.34100
N 	N 	0.39500 0.67310 0.56810 -0.14000
C 	C 	0.38040 0.72710 0.62200 -0.15600
H 	H 	0.41720 0.77890 0.63330 0.15200
C 	C 	0.34470 0.77090 0.69220 0.45300
H 	H 	0.39960 0.79690 0.67470 -0.18300
O 	O 	0.41120 0.69870 0.57420 -0.32500
N 	N 	0.10500 0.82690 0.06810 -0.16900
C 	C 	0.11960 0.77290 0.12200 -0.17300
H 	H 	0.08280 0.72110 0.13330 0.14100
C 	C 	0.15530 0.72910 0.19220 0.46200
H 	H 	0.10040 0.70310 0.17470 -0.19800
O 	O 	0.08880 0.80130 0.07420 -0.31400
N 	N 	0.60500 0.32690 0.56810 -0.14600
C 	C 	0.61960 0.27290 0.62200 -0.15800
H 	H 	0.58280 0.22110 0.63330 0.14800
C 	C 	0.65530 0.22910 0.69220 0.45100
H 	H 	0.60040 0.20310 0.67470 -0.18700
O 	O 	0.58880 0.30130 0.57420 -0.32000
N 	N 	0.82690 0.10500 0.93190 -0.13500
C 	C 	0.77290 0.11960 0.87800 -0.15500
H 	H 	0.72110 0.08280 0.86670 0.14900
C 	C 	0.72910 0.15530 0.80780 0.44400
H 	H 	0.70310 0.10040 0.82530 -0.18500
O 	O 	0.80130 0.08880 0.92580 -0.28200
N 	N 	0.32690 0.60500 0.43190 -0.14700
C 	C 	0.27290 0.61960 0.37800 -0.15700
H 	H 	0.22110 0.58280 0.36670 0.14800
C 	C 	0.22910 0.65530 0.30780 0.45700
H 	H 	0.20310 0.60040 0.32530 -0.19200
O 	O 	0.30130 0.58880 0.42580 -0.32200
N 	N 	0.17310 0.89500 0.93190 -0.09900
C 	C 	0.22710 0.88040 0.87800 -0.14100
H 	H 	0.27890 0.91720 0.86670 0.16200
C 	C 	0.27090 0.84470 0.80780 0.44400
H 	H 	0.29690 0.89960 0.82530 -0.17500
O 	O 	0.19870 0.91120 0.92580 -0.30700
N 	N 	0.67310 0.39500 0.43190 -0.14000
C 	C 	0.72710 0.38040 0.37800 -0.15500
H 	H 	0.77890 0.41720 0.36670 0.15200
C 	C 	0.77090 0.34470 0.30780 0.45900
H 	H 	0.79690 0.39960 0.32530 -0.18800
O 	O 	0.69870 0.41120 0.42580 -0.32600
N 	N 	0.10500 0.17310 0.93190 -0.12500
C 	C 	0.11960 0.22710 0.87800 -0.16000
H 	H 	0.08280 0.27890 0.86670 0.15200
C 	C 	0.15530 0.27090 0.80780 0.44600
H 	H 	0.10040 0.29690 0.82530 -0.18700
O 	O 	0.08880 0.19870 0.92580 -0.30100
N 	N 	0.60500 0.67310 0.43190 -0.14200
C 	C 	0.61960 0.72710 0.37800 -0.15200
H 	H 	0.58280 0.77890 0.36670 0.15200
C 	C 	0.65530 0.77090 0.30780 0.45900
H 	H 	0.60040 0.79690 0.32530 -0.18700
O 	O 	0.58880 0.69870 0.42580 -0.32400
N 	N 	0.89500 0.82690 0.93190 -0.10800
C 	C 	0.88040 0.77290 0.87800 -0.13500
H 	H 	0.91720 0.72110 0.86670 0.15900
C 	C 	0.84470 0.72910 0.80780 0.44200
H 	H 	0.89960 0.70310 0.82530 -0.17200
O 	O 	0.91120 0.80130 0.92580 -0.28900
N 	N 	0.39500 0.32690 0.43190 -0.14600
C 	C 	0.38040 0.27290 0.37800 -0.16100
H 	H 	0.41720 0.22110 0.36670 0.14800
C 	C 	0.34470 0.22910 0.30780 0.45600
H 	H 	0.39960 0.20310 0.32530 -0.19300
O 	O 	0.41120 0.30130 0.42580 -0.32400
N 	N 	0.82690 0.89500 0.93190 -0.10800
C 	C 	0.77290 0.88040 0.87800 -0.13500
H 	H 	0.72110 0.91720 0.86670 0.15900
C 	C 	0.72910 0.84470 0.80780 0.44200
H 	H 	0.70310 0.89960 0.82530 -0.17200
O 	O 	0.80130 0.91120 0.92580 -0.28900
N 	N 	0.32690 0.39500 0.43190 -0.14600
C 	C 	0.27290 0.38040 0.37800 -0.16100
H 	H 	0.22110 0.41720 0.36670 0.14800
C 	C 	0.22910 0.34470 0.30780 0.45600
H 	H 	0.20310 0.39960 0.32530 -0.19300
O 	O 	0.30130 0.41120 0.42580 -0.32400
N 	N 	0.17310 0.10500 0.93190 -0.12500
C 	C 	0.22710 0.11960 0.87800 -0.16000
H 	H 	0.27890 0.08280 0.86670 0.15200
C 	C 	0.27090 0.15530 0.80780 0.44600
H 	H 	0.29690 0.10040 0.82530 -0.18700
O 	O 	0.19870 0.08880 0.92580 -0.30100
N 	N 	0.67310 0.60500 0.43190 -0.14200
C 	C 	0.72710 0.61960 0.37800 -0.15200
H 	H 	0.77890 0.58280 0.36670 0.15200
C 	C 	0.77090 0.65530 0.30780 0.45900
H 	H 	0.79690 0.60040 0.32530 -0.18700
O 	O 	0.69870 0.58880 0.42580 -0.32400
N 	N 	0.10500 0.82690 0.93190 -0.13500
C 	C 	0.11960 0.77290 0.87800 -0.15500
H 	H 	0.08280 0.72110 0.86670 0.14900
C 	C 	0.15530 0.72910 0.80780 0.44400
H 	H 	0.10040 0.70310 0.82530 -0.18500
O 	O 	0.08880 0.80130 0.92580 -0.28200
N 	N 	0.60500 0.32690 0.43190 -0.14700
C 	C 	0.61960 0.27290 0.37800 -0.15700
H 	H 	0.58280 0.22110 0.36670 0.14800
C 	C 	0.65530 0.22910 0.30780 0.45700
H 	H 	0.60040 0.20310 0.32530 -0.19200
O 	O 	0.58880 0.30130 0.42580 -0.32200
N 	N 	0.89500 0.17310 0.93190 -0.09900
C 	C 	0.88040 0.22710 0.87800 -0.14100
H 	H 	0.91720 0.27890 0.86670 0.16200
C 	C 	0.84470 0.27090 0.80780 0.44400
H 	H 	0.89960 0.29690 0.82530 -0.17500
O 	O 	0.91120 0.19870 0.92580 -0.30700
N 	N 	0.39500 0.67310 0.43190 -0.14000
C 	C 	0.38040 0.72710 0.37800 -0.15500
H 	H 	0.41720 0.77890 0.36670 0.15200
C 	C 	0.34470 0.77090 0.30780 0.45900
H 	H 	0.39960 0.79690 0.32530 -0.18800
O 	O 	0.41120 0.69870 0.42580 -0.32600
N 	N 	0.17310 0.89500 0.06810 -0.13000
C 	C 	0.22710 0.88040 0.12200 -0.15900
H 	H 	0.27890 0.91720 0.13330 0.15500
C 	C 	0.27090 0.84470 0.19220 0.46100
H 	H 	0.29690 0.89960 0.17470 -0.18800
O 	O 	0.19870 0.91120 0.07420 -0.34100
N 	N 	0.67310 0.39500 0.56810 -0.14000
C 	C 	0.72710 0.38040 0.62200 -0.15600
H 	H 	0.77890 0.41720 0.63330 0.15200
C 	C 	0.77090 0.34470 0.69220 0.45300
H 	H 	0.79690 0.39960 0.67470 -0.18300
O 	O 	0.69870 0.41120 0.57420 -0.32500
N 	N 	0.82690 0.10500 0.06810 -0.16900
C 	C 	0.77290 0.11960 0.12200 -0.17300
H 	H 	0.72110 0.08280 0.13330 0.14100
C 	C 	0.72910 0.15530 0.19220 0.46200
H 	H 	0.70310 0.10040 0.17470 -0.19800
O 	O 	0.80130 0.08880 0.07420 -0.31400
N 	N 	0.32690 0.60500 0.56810 -0.14600
C 	C 	0.27290 0.61960 0.62200 -0.15800
H 	H 	0.22110 0.58280 0.63330 0.14800
C 	C 	0.22910 0.65530 0.69220 0.45100
H 	H 	0.20310 0.60040 0.67470 -0.18700
O 	O 	0.30130 0.58880 0.57420 -0.32000
N 	N 	0.89500 0.82690 0.06810 -0.14000
C 	C 	0.88040 0.77290 0.12200 -0.15200
H 	H 	0.91720 0.72110 0.13330 0.15100
C 	C 	0.84470 0.72910 0.19220 0.45900
H 	H 	0.89960 0.70310 0.17470 -0.18400
O 	O 	0.91120 0.80130 0.07420 -0.32000
N 	N 	0.39500 0.32690 0.56810 -0.14500
C 	C 	0.38040 0.27290 0.62200 -0.16100
H 	H 	0.41720 0.22110 0.63330 0.14800
C 	C 	0.34470 0.22910 0.69220 0.45000
H 	H 	0.39960 0.20310 0.67470 -0.18700
O 	O 	0.41120 0.30130 0.57420 -0.32300
N 	N 	0.10500 0.17310 0.06810 -0.15900
C 	C 	0.11960 0.22710 0.12200 -0.17900
H 	H 	0.08280 0.27890 0.13330 0.14400
C 	C 	0.15530 0.27090 0.19220 0.46400
H 	H 	0.10040 0.29690 0.17470 -0.20100
O 	O 	0.08880 0.19870 0.07420 -0.33400
N 	N 	0.60500 0.67310 0.56810 -0.14100
C 	C 	0.61960 0.72710 0.62200 -0.15300
H 	H 	0.58280 0.77890 0.63330 0.15200
C 	C 	0.65530 0.77090 0.69220 0.45300
H 	H 	0.60040 0.79690 0.67470 -0.18200
O 	O 	0.58880 0.69870 0.57420 -0.32200
Cu	Cu	0.17997 0.00000 -0.00000 0.88900
Cu	Cu	0.67997 0.50000 0.50000 0.94700
Cu	Cu	0.82003 0.00000 -0.00000 0.89300
Cu	Cu	0.32003 0.50000 0.50000 0.94400
Cu	Cu	-0.00000 0.17997 -0.00000 0.88900
Cu	Cu	0.50000 0.67997 0.50000 0.94700
Cu	Cu	-0.00000 0.82003 -0.00000 0.89300
Cu	Cu	0.50000 0.32003 0.50000 0.94400
Cl	Cl	-0.00000 0.00000 -0.00000 -0.78500
Cl	Cl	0.50000 0.50000 0.50000 -0.65900
C 	C 	0.19660 0.19660 0.15930 -0.58500
C 	C 	0.23360 0.23360 0.21860 0.32300
C 	C 	0.15800 0.15800 0.09780 0.83400
C 	C 	0.69660 0.69660 0.65930 -0.56300
C 	C 	0.73360 0.73360 0.71860 0.32700
C 	C 	0.65800 0.65800 0.59780 0.80100
C 	C 	0.80340 0.80340 0.15930 -0.57400
C 	C 	0.76640 0.76640 0.21860 0.33200
C 	C 	0.84200 0.84200 0.09780 0.79900
C 	C 	0.30340 0.30340 0.65930 -0.56500
C 	C 	0.26640 0.26640 0.71860 0.32100
C 	C 	0.34200 0.34200 0.59780 0.80800
C 	C 	0.80340 0.19660 0.15930 -0.58000
C 	C 	0.76640 0.23360 0.21860 0.32700
C 	C 	0.84200 0.15800 0.09780 0.81700
C 	C 	0.30340 0.69660 0.65930 -0.56400
C 	C 	0.26640 0.73360 0.71860 0.32400
C 	C 	0.34200 0.65800 0.59780 0.80500
C 	C 	0.19660 0.80340 0.15930 -0.58000
C 	C 	0.23360 0.76640 0.21860 0.32700
C 	C 	0.15800 0.84200 0.09780 0.81700
C 	C 	0.69660 0.30340 0.65930 -0.56400
C 	C 	0.73360 0.26640 0.71860 0.32400
C 	C 	0.65800 0.34200 0.59780 0.80500
C 	C 	0.80340 0.19660 0.84070 -0.54600
C 	C 	0.76640 0.23360 0.78140 0.32800
C 	C 	0.84200 0.15800 0.90220 0.77200
C 	C 	0.30340 0.69660 0.34070 -0.57700
C 	C 	0.26640 0.73360 0.28140 0.33400
C 	C 	0.34200 0.65800 0.40220 0.80800
C 	C 	0.19660 0.80340 0.84070 -0.54600
C 	C 	0.23360 0.76640 0.78140 0.32800
C 	C 	0.15800 0.84200 0.90220 0.77200
C 	C 	0.69660 0.30340 0.34070 -0.57700
C 	C 	0.73360 0.26640 0.28140 0.33400
C 	C 	0.65800 0.34200 0.40220 0.80800
C 	C 	0.19660 0.19660 0.84070 -0.55000
C 	C 	0.23360 0.23360 0.78140 0.32300
C 	C 	0.15800 0.15800 0.90220 0.78700
C 	C 	0.69660 0.69660 0.34070 -0.57500
C 	C 	0.73360 0.73360 0.28140 0.33700
C 	C 	0.65800 0.65800 0.40220 0.80500
C 	C 	0.80340 0.80340 0.84070 -0.54100
C 	C 	0.76640 0.76640 0.78140 0.33300
C 	C 	0.84200 0.84200 0.90220 0.75600
C 	C 	0.30340 0.30340 0.34070 -0.57900
C 	C 	0.26640 0.26640 0.28140 0.33200
C 	C 	0.34200 0.34200 0.40220 0.81200
C 	C 	0.30740 0.19260 0.25000 -0.84000
H 	H 	0.35370 0.14630 0.25000 0.27700
C 	C 	0.69260 0.80740 0.25000 -0.83600
H 	H 	0.64630 0.85370 0.25000 0.29100
C 	C 	0.80740 0.30740 0.25000 -0.83800
H 	H 	0.85370 0.35370 0.25000 0.29000
C 	C 	0.19260 0.69260 0.25000 -0.83900
H 	H 	0.14630 0.64630 0.25000 0.27800
C 	C 	0.69260 0.19260 0.75000 -0.81500
H 	H 	0.64630 0.14630 0.75000 0.27800
C 	C 	0.30740 0.80740 0.75000 -0.81400
H 	H 	0.35370 0.85370 0.75000 0.28900
C 	C 	0.19260 0.30740 0.75000 -0.81600
H 	H 	0.14630 0.35370 0.75000 0.27700
C 	C 	0.80740 0.69260 0.75000 -0.81300
H 	H 	0.85370 0.64630 0.75000 0.29000
C 	C 	0.69260 0.80740 0.75000 -0.81300
H 	H 	0.64630 0.85370 0.75000 0.29000
C 	C 	0.19260 0.30740 0.25000 -0.84000
H 	H 	0.14630 0.35370 0.25000 0.27700
C 	C 	0.30740 0.19260 0.75000 -0.81600
H 	H 	0.35370 0.14630 0.75000 0.27700
C 	C 	0.19260 0.69260 0.75000 -0.81500
H 	H 	0.14630 0.64630 0.75000 0.27800
C 	C 	0.80740 0.30740 0.75000 -0.81400
H 	H 	0.85370 0.35370 0.75000 0.28900
C 	C 	0.30740 0.80740 0.25000 -0.83800
H 	H 	0.35370 0.85370 0.25000 0.29000
C 	C 	0.69260 0.19260 0.25000 -0.83900
H 	H 	0.64630 0.14630 0.25000 0.27800
C 	C 	0.80740 0.69260 0.25000 -0.83600
H 	H 	0.85370 0.64630 0.25000 0.29100
