data_crystal

_cell_length_a 14.12450
_cell_length_b 14.12450
_cell_length_c 19.90490
_cell_angle_alpha 90.00000
_cell_angle_beta  90.00000
_cell_angle_gamma 90.00000

_symmetry_space_group_name_	'P 1'
_symmetry_space_group_name_H-M	'P 1'

loop_
_symmetry_equiv_pos_as_xyz
  x,y,z

loop_
_atom_site_label
_atom_site_type_symbol
_atom_site_fract_x
_atom_site_fract_y
_atom_site_fract_z
_atom_site_charge
N 	N 	0.17110 0.89560 0.93010 -0.11900
C 	C 	0.22190 0.88660 0.87550 -0.10400
H 	H 	0.26850 0.92890 0.86170 0.11500
C 	C 	0.27740 0.83980 0.81100 0.35200
H 	H 	0.31210 0.88640 0.83300 -0.11500
O 	O 	0.20200 0.90990 0.92730 -0.27500
N 	N 	0.67110 0.39560 0.43010 -0.17200
C 	C 	0.72190 0.38660 0.37550 -0.12100
H 	H 	0.76850 0.42890 0.36170 0.10800
C 	C 	0.77740 0.33980 0.31100 0.38000
H 	H 	0.81210 0.38640 0.33300 -0.13400
O 	O 	0.70200 0.40990 0.42730 -0.28400
N 	N 	0.82890 0.10440 0.93010 -0.17000
C 	C 	0.77810 0.11340 0.87550 -0.11900
H 	H 	0.73150 0.07110 0.86170 0.09900
C 	C 	0.72260 0.16020 0.81100 0.35500
H 	H 	0.68790 0.11360 0.83300 -0.12400
O 	O 	0.79800 0.09010 0.92730 -0.23400
N 	N 	0.32890 0.60440 0.43010 -0.18200
C 	C 	0.27810 0.61340 0.37550 -0.12600
H 	H 	0.23150 0.57110 0.36170 0.10500
C 	C 	0.22260 0.66020 0.31100 0.38200
H 	H 	0.18790 0.61360 0.33300 -0.14200
O 	O 	0.29800 0.59010 0.42730 -0.27500
N 	N 	0.10440 0.17110 0.93010 -0.15100
C 	C 	0.11340 0.22190 0.87550 -0.11900
H 	H 	0.07110 0.26850 0.86170 0.10000
C 	C 	0.16020 0.27740 0.81100 0.35700
H 	H 	0.11360 0.31210 0.83300 -0.12600
O 	O 	0.09010 0.20200 0.92730 -0.26200
N 	N 	0.60440 0.67110 0.43010 -0.17300
C 	C 	0.61340 0.72190 0.37550 -0.11700
H 	H 	0.57110 0.76850 0.36170 0.10600
C 	C 	0.66020 0.77740 0.31100 0.38200
H 	H 	0.61360 0.81210 0.33300 -0.13300
O 	O 	0.59010 0.70200 0.42730 -0.28100
N 	N 	0.89560 0.82890 0.93010 -0.13700
C 	C 	0.88660 0.77810 0.87550 -0.10200
H 	H 	0.92890 0.73150 0.86170 0.11600
C 	C 	0.83980 0.72260 0.81100 0.35000
H 	H 	0.88640 0.68790 0.83300 -0.11400
O 	O 	0.90990 0.79800 0.92730 -0.24600
N 	N 	0.39560 0.32890 0.43010 -0.18200
C 	C 	0.38660 0.27810 0.37550 -0.12900
H 	H 	0.42890 0.23150 0.36170 0.10700
C 	C 	0.33980 0.22260 0.31100 0.38000
H 	H 	0.38640 0.18790 0.33300 -0.14300
O 	O 	0.40990 0.29800 0.42730 -0.27800
N 	N 	0.82890 0.89560 0.06990 -0.18500
C 	C 	0.77810 0.88660 0.12450 -0.13500
H 	H 	0.73150 0.92890 0.13830 0.12000
C 	C 	0.72260 0.83980 0.18900 0.38100
H 	H 	0.68790 0.88640 0.16700 -0.13900
O 	O 	0.79800 0.90990 0.07270 -0.26300
N 	N 	0.32890 0.39560 0.56990 -0.18200
C 	C 	0.27810 0.38660 0.62450 -0.13400
H 	H 	0.23150 0.42890 0.63830 0.10900
C 	C 	0.22260 0.33980 0.68900 0.36100
H 	H 	0.18790 0.38640 0.66700 -0.13500
O 	O 	0.29800 0.40990 0.57270 -0.27300
N 	N 	0.17110 0.10440 0.06990 -0.20200
C 	C 	0.22190 0.11340 0.12450 -0.15300
H 	H 	0.26850 0.07110 0.13830 0.10300
C 	C 	0.27740 0.16020 0.18900 0.38900
H 	H 	0.31210 0.11360 0.16700 -0.15300
O 	O 	0.20200 0.09010 0.07270 -0.28100
N 	N 	0.67110 0.60440 0.56990 -0.17300
C 	C 	0.72190 0.61340 0.62450 -0.12100
H 	H 	0.76850 0.57110 0.63830 0.10800
C 	C 	0.77740 0.66020 0.68900 0.36300
H 	H 	0.81210 0.61360 0.66700 -0.12500
O 	O 	0.70200 0.59010 0.57270 -0.27700
N 	N 	0.89560 0.17110 0.06990 -0.16700
C 	C 	0.88660 0.22190 0.12450 -0.13600
H 	H 	0.92890 0.26850 0.13830 0.12000
C 	C 	0.83980 0.27740 0.18900 0.38400
H 	H 	0.88640 0.31210 0.16700 -0.14100
O 	O 	0.90990 0.20200 0.07270 -0.29400
N 	N 	0.39560 0.67110 0.56990 -0.17300
C 	C 	0.38660 0.72190 0.62450 -0.12500
H 	H 	0.42890 0.76850 0.63830 0.11000
C 	C 	0.33980 0.77740 0.68900 0.36100
H 	H 	0.38640 0.81210 0.66700 -0.12600
O 	O 	0.40990 0.70200 0.57270 -0.27900
N 	N 	0.10440 0.82890 0.06990 -0.22100
C 	C 	0.11340 0.77810 0.12450 -0.15300
H 	H 	0.07110 0.73150 0.13830 0.10200
C 	C 	0.16020 0.72260 0.18900 0.38600
H 	H 	0.11360 0.68790 0.16700 -0.15100
O 	O 	0.09010 0.79800 0.07270 -0.25100
N 	N 	0.60440 0.32890 0.56990 -0.18300
C 	C 	0.61340 0.27810 0.62450 -0.13000
H 	H 	0.57110 0.23150 0.63830 0.10800
C 	C 	0.66020 0.22260 0.68900 0.36300
H 	H 	0.61360 0.18790 0.66700 -0.13400
O 	O 	0.59010 0.29800 0.57270 -0.27000
N 	N 	0.82890 0.10440 0.06990 -0.22100
C 	C 	0.77810 0.11340 0.12450 -0.15300
H 	H 	0.73150 0.07110 0.13830 0.10200
C 	C 	0.72260 0.16020 0.18900 0.38600
H 	H 	0.68790 0.11360 0.16700 -0.15100
O 	O 	0.79800 0.09010 0.07270 -0.25100
N 	N 	0.32890 0.60440 0.56990 -0.18300
C 	C 	0.27810 0.61340 0.62450 -0.13000
H 	H 	0.23150 0.57110 0.63830 0.10800
C 	C 	0.22260 0.66020 0.68900 0.36300
H 	H 	0.18790 0.61360 0.66700 -0.13400
O 	O 	0.29800 0.59010 0.57270 -0.27000
N 	N 	0.17110 0.89560 0.06990 -0.16700
C 	C 	0.22190 0.88660 0.12450 -0.13600
H 	H 	0.26850 0.92890 0.13830 0.12000
C 	C 	0.27740 0.83980 0.18900 0.38400
H 	H 	0.31210 0.88640 0.16700 -0.14100
O 	O 	0.20200 0.90990 0.07270 -0.29400
N 	N 	0.67110 0.39560 0.56990 -0.17300
C 	C 	0.72190 0.38660 0.62450 -0.12500
H 	H 	0.76850 0.42890 0.63830 0.11000
C 	C 	0.77740 0.33980 0.68900 0.36100
H 	H 	0.81210 0.38640 0.66700 -0.12600
O 	O 	0.70200 0.40990 0.57270 -0.27900
N 	N 	0.89560 0.82890 0.06990 -0.18500
C 	C 	0.88660 0.77810 0.12450 -0.13500
H 	H 	0.92890 0.73150 0.13830 0.12000
C 	C 	0.83980 0.72260 0.18900 0.38100
H 	H 	0.88640 0.68790 0.16700 -0.13900
O 	O 	0.90990 0.79800 0.07270 -0.26300
N 	N 	0.39560 0.32890 0.56990 -0.18200
C 	C 	0.38660 0.27810 0.62450 -0.13400
H 	H 	0.42890 0.23150 0.63830 0.10900
C 	C 	0.33980 0.22260 0.68900 0.36100
H 	H 	0.38640 0.18790 0.66700 -0.13500
O 	O 	0.40990 0.29800 0.57270 -0.27300
N 	N 	0.10440 0.17110 0.06990 -0.20200
C 	C 	0.11340 0.22190 0.12450 -0.15300
H 	H 	0.07110 0.26850 0.13830 0.10300
C 	C 	0.16020 0.27740 0.18900 0.38900
H 	H 	0.11360 0.31210 0.16700 -0.15300
O 	O 	0.09010 0.20200 0.07270 -0.28100
N 	N 	0.60440 0.67110 0.56990 -0.17300
C 	C 	0.61340 0.72190 0.62450 -0.12100
H 	H 	0.57110 0.76850 0.63830 0.10800
C 	C 	0.66020 0.77740 0.68900 0.36300
H 	H 	0.61360 0.81210 0.66700 -0.12500
O 	O 	0.59010 0.70200 0.57270 -0.27700
N 	N 	0.17110 0.10440 0.93010 -0.15100
C 	C 	0.22190 0.11340 0.87550 -0.11900
H 	H 	0.26850 0.07110 0.86170 0.10000
C 	C 	0.27740 0.16020 0.81100 0.35700
H 	H 	0.31210 0.11360 0.83300 -0.12600
O 	O 	0.20200 0.09010 0.92730 -0.26200
N 	N 	0.67110 0.60440 0.43010 -0.17300
C 	C 	0.72190 0.61340 0.37550 -0.11700
H 	H 	0.76850 0.57110 0.36170 0.10600
C 	C 	0.77740 0.66020 0.31100 0.38200
H 	H 	0.81210 0.61360 0.33300 -0.13300
O 	O 	0.70200 0.59010 0.42730 -0.28100
N 	N 	0.82890 0.89560 0.93010 -0.13700
C 	C 	0.77810 0.88660 0.87550 -0.10200
H 	H 	0.73150 0.92890 0.86170 0.11600
C 	C 	0.72260 0.83980 0.81100 0.35000
H 	H 	0.68790 0.88640 0.83300 -0.11400
O 	O 	0.79800 0.90990 0.92730 -0.24600
N 	N 	0.32890 0.39560 0.43010 -0.18200
C 	C 	0.27810 0.38660 0.37550 -0.12900
H 	H 	0.23150 0.42890 0.36170 0.10700
C 	C 	0.22260 0.33980 0.31100 0.38000
H 	H 	0.18790 0.38640 0.33300 -0.14300
O 	O 	0.29800 0.40990 0.42730 -0.27800
N 	N 	0.10440 0.82890 0.93010 -0.17000
C 	C 	0.11340 0.77810 0.87550 -0.11900
H 	H 	0.07110 0.73150 0.86170 0.09900
C 	C 	0.16020 0.72260 0.81100 0.35500
H 	H 	0.11360 0.68790 0.83300 -0.12400
O 	O 	0.09010 0.79800 0.92730 -0.23400
N 	N 	0.60440 0.32890 0.43010 -0.18200
C 	C 	0.61340 0.27810 0.37550 -0.12600
H 	H 	0.57110 0.23150 0.36170 0.10500
C 	C 	0.66020 0.22260 0.31100 0.38200
H 	H 	0.61360 0.18790 0.33300 -0.14200
O 	O 	0.59010 0.29800 0.42730 -0.27500
N 	N 	0.89560 0.17110 0.93010 -0.11800
C 	C 	0.88660 0.22190 0.87550 -0.10300
H 	H 	0.92890 0.26850 0.86170 0.11600
C 	C 	0.83980 0.27740 0.81100 0.35300
H 	H 	0.88640 0.31210 0.83300 -0.11500
O 	O 	0.90990 0.20200 0.92730 -0.27500
N 	N 	0.39560 0.67110 0.43010 -0.17200
C 	C 	0.38660 0.72190 0.37550 -0.12100
H 	H 	0.42890 0.76850 0.36170 0.10800
C 	C 	0.33980 0.77740 0.31100 0.38000
H 	H 	0.38640 0.81210 0.33300 -0.13400
O 	O 	0.40990 0.70200 0.42730 -0.28400
Cu	Cu	0.17954 0.00000 -0.00000 0.88900
Cu	Cu	0.67954 0.50000 0.50000 0.94700
Cu	Cu	0.82046 0.00000 -0.00000 0.89200
Cu	Cu	0.32046 0.50000 0.50000 0.94300
Cu	Cu	-0.00000 0.17954 -0.00000 0.88900
Cu	Cu	0.50000 0.67954 0.50000 0.94700
Cu	Cu	-0.00000 0.82046 -0.00000 0.89200
Cu	Cu	0.50000 0.32046 0.50000 0.94300
Cl	Cl	-0.00000 0.00000 -0.00000 -0.77600
Cl	Cl	0.50000 0.50000 0.50000 -0.64900
C 	C 	0.19590 0.80410 0.84050 -0.51000
C 	C 	0.22710 0.77290 0.77750 0.35700
C 	C 	0.16180 0.83820 0.90330 0.72800
C 	C 	0.69590 0.30410 0.34050 -0.55400
C 	C 	0.72710 0.27290 0.27750 0.37100
C 	C 	0.66180 0.33820 0.40330 0.77800
C 	C 	0.80410 0.19590 0.84050 -0.51000
C 	C 	0.77290 0.22710 0.77750 0.35700
C 	C 	0.83820 0.16180 0.90330 0.72800
C 	C 	0.30410 0.69590 0.34050 -0.55400
C 	C 	0.27290 0.72710 0.27750 0.37100
C 	C 	0.33820 0.66180 0.40330 0.77800
C 	C 	0.19590 0.19590 0.84050 -0.51700
C 	C 	0.22710 0.22710 0.77750 0.35000
C 	C 	0.16180 0.16180 0.90330 0.74100
C 	C 	0.69590 0.69590 0.34050 -0.55100
C 	C 	0.72710 0.72710 0.27750 0.37000
C 	C 	0.66180 0.66180 0.40330 0.77100
C 	C 	0.80410 0.80410 0.84050 -0.50200
C 	C 	0.77290 0.77290 0.77750 0.36400
C 	C 	0.83820 0.83820 0.90330 0.71500
C 	C 	0.30410 0.30410 0.34050 -0.55700
C 	C 	0.27290 0.27290 0.27750 0.37200
C 	C 	0.33820 0.33820 0.40330 0.78500
C 	C 	0.80410 0.80410 0.15950 -0.54600
C 	C 	0.77290 0.77290 0.22250 0.37500
C 	C 	0.83820 0.83820 0.09670 0.78600
C 	C 	0.30410 0.30410 0.65950 -0.53100
C 	C 	0.27290 0.27290 0.72250 0.35800
C 	C 	0.33820 0.33820 0.59670 0.78000
C 	C 	0.19590 0.19590 0.15950 -0.56400
C 	C 	0.22710 0.22710 0.22250 0.36100
C 	C 	0.16180 0.16180 0.09670 0.81700
C 	C 	0.69590 0.69590 0.65950 -0.52600
C 	C 	0.72710 0.72710 0.72250 0.35600
C 	C 	0.66180 0.66180 0.59670 0.76600
C 	C 	0.80410 0.19590 0.15950 -0.55500
C 	C 	0.77290 0.22710 0.22250 0.36800
C 	C 	0.83820 0.16180 0.09670 0.80200
C 	C 	0.30410 0.69590 0.65950 -0.52900
C 	C 	0.27290 0.72710 0.72250 0.35700
C 	C 	0.33820 0.66180 0.59670 0.77300
C 	C 	0.19590 0.80410 0.15950 -0.55500
C 	C 	0.22710 0.77290 0.22250 0.36800
C 	C 	0.16180 0.83820 0.09670 0.80200
C 	C 	0.69590 0.30410 0.65950 -0.52900
C 	C 	0.72710 0.27290 0.72250 0.35700
C 	C 	0.66180 0.33820 0.59670 0.77300
C 	C 	0.30710 0.80710 0.75000 -0.77000
H 	H 	0.35360 0.85360 0.75000 0.27700
C 	C 	0.69290 0.19290 0.75000 -0.77300
H 	H 	0.64640 0.14640 0.75000 0.26600
C 	C 	0.19290 0.30710 0.75000 -0.77400
H 	H 	0.14640 0.35360 0.75000 0.26600
C 	C 	0.80710 0.69290 0.75000 -0.76800
H 	H 	0.85360 0.64640 0.75000 0.27800
C 	C 	0.30710 0.19290 0.25000 -0.81800
H 	H 	0.35360 0.14640 0.25000 0.27300
C 	C 	0.69290 0.80710 0.25000 -0.81100
H 	H 	0.64640 0.85360 0.25000 0.28500
C 	C 	0.80710 0.30710 0.25000 -0.81300
H 	H 	0.85360 0.35360 0.25000 0.28400
C 	C 	0.19290 0.69290 0.25000 -0.81600
H 	H 	0.14640 0.64640 0.25000 0.27300
C 	C 	0.69290 0.19290 0.25000 -0.81600
H 	H 	0.64640 0.14640 0.25000 0.27300
C 	C 	0.30710 0.80710 0.25000 -0.81300
H 	H 	0.35360 0.85360 0.25000 0.28400
C 	C 	0.80710 0.69290 0.25000 -0.81100
H 	H 	0.85360 0.64640 0.25000 0.28500
C 	C 	0.19290 0.30710 0.25000 -0.81800
H 	H 	0.14640 0.35360 0.25000 0.27300
C 	C 	0.30710 0.19290 0.75000 -0.77400
H 	H 	0.35360 0.14640 0.75000 0.26600
C 	C 	0.69290 0.80710 0.75000 -0.76800
H 	H 	0.64640 0.85360 0.75000 0.27800
C 	C 	0.19290 0.69290 0.75000 -0.77300
H 	H 	0.14640 0.64640 0.75000 0.26600
C 	C 	0.80710 0.30710 0.75000 -0.77000
H 	H 	0.85360 0.35360 0.75000 0.27700
