data_crystal

_cell_length_a 18.53530
_cell_length_b 18.53530
_cell_length_c 18.53530
_cell_angle_alpha 90.00000
_cell_angle_beta  90.00000
_cell_angle_gamma 90.00000

_symmetry_space_group_name_	'P 1'
_symmetry_space_group_name_H-M	'P 1'

loop_
_symmetry_equiv_pos_as_xyz
  x,y,z

loop_
_atom_site_label
_atom_site_type_symbol
_atom_site_fract_x
_atom_site_fract_y
_atom_site_fract_z
_atom_site_charge
Y 	Y 	0.98683 0.48770 0.85358 2.40400
O 	O 	0.06740 0.55550 0.92040 -0.82900
O 	O 	0.97610 0.29110 0.90560 -0.53100
O 	O 	0.78970 0.51000 0.90440 -0.53300
O 	O 	0.86910 0.49320 0.81140 -0.53200
O 	O 	0.97580 0.37000 0.81120 -0.54300
C 	C 	0.97660 0.30900 0.83800 0.45200
C 	C 	0.74460 0.50140 0.78550 -0.14000
H 	H 	0.69760 0.50140 0.80290 0.10600
C 	C 	0.97500 0.24570 0.78530 -0.13700
H 	H 	0.97390 0.19910 0.80380 0.10500
C 	C 	0.80620 0.50130 0.83870 0.44500
Y 	Y 	0.51317 0.01230 0.85358 2.40400
O 	O 	0.43260 0.94450 0.92040 -0.82400
O 	O 	0.52390 0.20890 0.90560 -0.53100
O 	O 	0.71030 0.99000 0.90440 -0.53100
O 	O 	0.63090 0.00680 0.81140 -0.53600
O 	O 	0.52420 0.13000 0.81120 -0.54400
C 	C 	0.52340 0.19100 0.83800 0.45300
C 	C 	0.75540 0.99860 0.78550 -0.13900
H 	H 	0.80240 0.99860 0.80290 0.11000
C 	C 	0.52500 0.25430 0.78530 -0.13700
H 	H 	0.52610 0.30090 0.80380 0.10600
C 	C 	0.69380 0.99870 0.83870 0.45200
Y 	Y 	0.51317 0.48770 0.64642 2.40400
O 	O 	0.43260 0.55550 0.57960 -0.82600
O 	O 	0.52390 0.29110 0.59440 -0.53100
O 	O 	0.71030 0.51000 0.59560 -0.53400
O 	O 	0.63090 0.49320 0.68860 -0.53100
O 	O 	0.52420 0.37000 0.68880 -0.54300
C 	C 	0.52340 0.30900 0.66200 0.45300
C 	C 	0.75540 0.50140 0.71450 -0.14000
H 	H 	0.80240 0.50140 0.69710 0.10700
C 	C 	0.52500 0.24570 0.71470 -0.13700
H 	H 	0.52610 0.19910 0.69620 0.10600
C 	C 	0.69380 0.50130 0.66130 0.44600
Y 	Y 	0.98683 0.01230 0.64642 2.40400
O 	O 	0.06740 0.94450 0.57960 -0.82800
O 	O 	0.97610 0.20890 0.59440 -0.53100
O 	O 	0.78970 0.99000 0.59560 -0.53400
O 	O 	0.86910 0.00680 0.68860 -0.53700
O 	O 	0.97580 0.13000 0.68880 -0.54400
C 	C 	0.97660 0.19100 0.66200 0.45400
C 	C 	0.74460 0.99860 0.71450 -0.14000
H 	H 	0.69760 0.99860 0.69710 0.10900
C 	C 	0.97500 0.25430 0.71470 -0.13700
H 	H 	0.97390 0.30090 0.69620 0.10600
C 	C 	0.80620 0.99870 0.66130 0.45300
Y 	Y 	0.85358 0.98683 0.48770 2.40500
O 	O 	0.92040 0.06740 0.55550 -0.82800
O 	O 	0.90560 0.97610 0.29110 -0.53000
O 	O 	0.90440 0.78970 0.51000 -0.53200
O 	O 	0.81140 0.86910 0.49320 -0.53100
O 	O 	0.81120 0.97580 0.37000 -0.54200
C 	C 	0.83800 0.97660 0.30900 0.45300
C 	C 	0.78550 0.74460 0.50140 -0.13900
H 	H 	0.80290 0.69760 0.50140 0.10700
C 	C 	0.78530 0.97500 0.24570 -0.13600
H 	H 	0.80380 0.97390 0.19910 0.10600
C 	C 	0.83870 0.80620 0.50130 0.44600
Y 	Y 	0.85358 0.51317 0.01230 2.40400
O 	O 	0.92040 0.43260 0.94450 -0.82400
O 	O 	0.90560 0.52390 0.20890 -0.53100
O 	O 	0.90440 0.71030 0.99000 -0.53100
O 	O 	0.81140 0.63090 0.00680 -0.53600
O 	O 	0.81120 0.52420 0.13000 -0.54400
C 	C 	0.83800 0.52340 0.19100 0.45300
C 	C 	0.78550 0.75540 0.99860 -0.13900
H 	H 	0.80290 0.80240 0.99860 0.11000
C 	C 	0.78530 0.52500 0.25430 -0.13700
H 	H 	0.80380 0.52610 0.30090 0.10600
C 	C 	0.83870 0.69380 0.99870 0.45200
Y 	Y 	0.64642 0.51317 0.48770 2.40400
O 	O 	0.57960 0.43260 0.55550 -0.82600
O 	O 	0.59440 0.52390 0.29110 -0.53100
O 	O 	0.59560 0.71030 0.51000 -0.53400
O 	O 	0.68860 0.63090 0.49320 -0.53100
O 	O 	0.68880 0.52420 0.37000 -0.54300
C 	C 	0.66200 0.52340 0.30900 0.45300
C 	C 	0.71450 0.75540 0.50140 -0.14000
H 	H 	0.69710 0.80240 0.50140 0.10700
C 	C 	0.71470 0.52500 0.24570 -0.13700
H 	H 	0.69620 0.52610 0.19910 0.10600
C 	C 	0.66130 0.69380 0.50130 0.44600
Y 	Y 	0.64642 0.98683 0.01230 2.40400
O 	O 	0.57960 0.06740 0.94450 -0.82800
O 	O 	0.59440 0.97610 0.20890 -0.53100
O 	O 	0.59560 0.78970 0.99000 -0.53400
O 	O 	0.68860 0.86910 0.00680 -0.53700
O 	O 	0.68880 0.97580 0.13000 -0.54400
C 	C 	0.66200 0.97660 0.19100 0.45400
C 	C 	0.71450 0.74460 0.99860 -0.14000
H 	H 	0.69710 0.69760 0.99860 0.10900
C 	C 	0.71470 0.97500 0.25430 -0.13700
H 	H 	0.69620 0.97390 0.30090 0.10600
C 	C 	0.66130 0.80620 0.99870 0.45300
Y 	Y 	0.48770 0.85358 0.98683 2.40500
O 	O 	0.55550 0.92040 0.06740 -0.82800
O 	O 	0.29110 0.90560 0.97610 -0.53000
O 	O 	0.51000 0.90440 0.78970 -0.53200
O 	O 	0.49320 0.81140 0.86910 -0.53100
O 	O 	0.37000 0.81120 0.97580 -0.54200
C 	C 	0.30900 0.83800 0.97660 0.45300
C 	C 	0.50140 0.78550 0.74460 -0.13900
H 	H 	0.50140 0.80290 0.69760 0.10700
C 	C 	0.24570 0.78530 0.97500 -0.13600
H 	H 	0.19910 0.80380 0.97390 0.10600
C 	C 	0.50130 0.83870 0.80620 0.44600
Y 	Y 	0.01230 0.85358 0.51317 2.40400
O 	O 	0.94450 0.92040 0.43260 -0.82400
O 	O 	0.20890 0.90560 0.52390 -0.53100
O 	O 	0.99000 0.90440 0.71030 -0.53100
O 	O 	0.00680 0.81140 0.63090 -0.53600
O 	O 	0.13000 0.81120 0.52420 -0.54400
C 	C 	0.19100 0.83800 0.52340 0.45300
C 	C 	0.99860 0.78550 0.75540 -0.13900
H 	H 	0.99860 0.80290 0.80240 0.11000
C 	C 	0.25430 0.78530 0.52500 -0.13700
H 	H 	0.30090 0.80380 0.52610 0.10600
C 	C 	0.99870 0.83870 0.69380 0.45200
Y 	Y 	0.48770 0.64642 0.51317 2.40400
O 	O 	0.55550 0.57960 0.43260 -0.82600
O 	O 	0.29110 0.59440 0.52390 -0.53100
O 	O 	0.51000 0.59560 0.71030 -0.53400
O 	O 	0.49320 0.68860 0.63090 -0.53100
O 	O 	0.37000 0.68880 0.52420 -0.54300
C 	C 	0.30900 0.66200 0.52340 0.45300
C 	C 	0.50140 0.71450 0.75540 -0.14000
H 	H 	0.50140 0.69710 0.80240 0.10700
C 	C 	0.24570 0.71470 0.52500 -0.13700
H 	H 	0.19910 0.69620 0.52610 0.10600
C 	C 	0.50130 0.66130 0.69380 0.44600
Y 	Y 	0.01230 0.64642 0.98683 2.40400
O 	O 	0.94450 0.57960 0.06740 -0.82800
O 	O 	0.20890 0.59440 0.97610 -0.53100
O 	O 	0.99000 0.59560 0.78970 -0.53400
O 	O 	0.00680 0.68860 0.86910 -0.53700
O 	O 	0.13000 0.68880 0.97580 -0.54400
C 	C 	0.19100 0.66200 0.97660 0.45400
C 	C 	0.99860 0.71450 0.74460 -0.14000
H 	H 	0.99860 0.69710 0.69760 0.10900
C 	C 	0.25430 0.71470 0.97500 -0.13700
H 	H 	0.30090 0.69620 0.97390 0.10600
C 	C 	0.99870 0.66130 0.80620 0.45300
Y 	Y 	0.01317 0.51230 0.14642 2.40500
O 	O 	0.93260 0.44450 0.07960 -0.82800
O 	O 	0.02390 0.70890 0.09440 -0.53000
O 	O 	0.21030 0.49000 0.09560 -0.53200
O 	O 	0.13090 0.50680 0.18860 -0.53100
O 	O 	0.02420 0.63000 0.18880 -0.54200
C 	C 	0.02340 0.69100 0.16200 0.45300
C 	C 	0.25540 0.49860 0.21450 -0.13900
H 	H 	0.30240 0.49860 0.19710 0.10700
C 	C 	0.02500 0.75430 0.21470 -0.13600
H 	H 	0.02610 0.80090 0.19620 0.10600
C 	C 	0.19380 0.49870 0.16130 0.44600
Y 	Y 	0.48683 0.98770 0.14642 2.40400
O 	O 	0.56740 0.05550 0.07960 -0.82400
O 	O 	0.47610 0.79110 0.09440 -0.53100
O 	O 	0.28970 0.01000 0.09560 -0.53100
O 	O 	0.36910 0.99320 0.18860 -0.53600
O 	O 	0.47580 0.87000 0.18880 -0.54400
C 	C 	0.47660 0.80900 0.16200 0.45300
C 	C 	0.24460 0.00140 0.21450 -0.13900
H 	H 	0.19760 0.00140 0.19710 0.11000
C 	C 	0.47500 0.74570 0.21470 -0.13700
H 	H 	0.47390 0.69910 0.19620 0.10600
C 	C 	0.30620 0.00130 0.16130 0.45200
Y 	Y 	0.48683 0.51230 0.35358 2.40400
O 	O 	0.56740 0.44450 0.42040 -0.82600
O 	O 	0.47610 0.70890 0.40560 -0.53100
O 	O 	0.28970 0.49000 0.40440 -0.53400
O 	O 	0.36910 0.50680 0.31140 -0.53100
O 	O 	0.47580 0.63000 0.31120 -0.54300
C 	C 	0.47660 0.69100 0.33800 0.45300
C 	C 	0.24460 0.49860 0.28550 -0.14000
H 	H 	0.19760 0.49860 0.30290 0.10700
C 	C 	0.47500 0.75430 0.28530 -0.13700
H 	H 	0.47390 0.80090 0.30380 0.10600
C 	C 	0.30620 0.49870 0.33870 0.44600
Y 	Y 	0.01317 0.98770 0.35358 2.40400
O 	O 	0.93260 0.05550 0.42040 -0.82800
O 	O 	0.02390 0.79110 0.40560 -0.53100
O 	O 	0.21030 0.01000 0.40440 -0.53400
O 	O 	0.13090 0.99320 0.31140 -0.53700
O 	O 	0.02420 0.87000 0.31120 -0.54400
C 	C 	0.02340 0.80900 0.33800 0.45400
C 	C 	0.25540 0.00140 0.28550 -0.14000
H 	H 	0.30240 0.00140 0.30290 0.10900
C 	C 	0.02500 0.74570 0.28530 -0.13700
H 	H 	0.02610 0.69910 0.30380 0.10600
C 	C 	0.19380 0.00130 0.33870 0.45300
Y 	Y 	0.14642 0.01317 0.51230 2.40500
O 	O 	0.07960 0.93260 0.44450 -0.82800
O 	O 	0.09440 0.02390 0.70890 -0.53000
O 	O 	0.09560 0.21030 0.49000 -0.53200
O 	O 	0.18860 0.13090 0.50680 -0.53100
O 	O 	0.18880 0.02420 0.63000 -0.54200
C 	C 	0.16200 0.02340 0.69100 0.45300
C 	C 	0.21450 0.25540 0.49860 -0.13900
H 	H 	0.19710 0.30240 0.49860 0.10700
C 	C 	0.21470 0.02500 0.75430 -0.13600
H 	H 	0.19620 0.02610 0.80090 0.10600
C 	C 	0.16130 0.19380 0.49870 0.44600
Y 	Y 	0.14642 0.48683 0.98770 2.40400
O 	O 	0.07960 0.56740 0.05550 -0.82400
O 	O 	0.09440 0.47610 0.79110 -0.53100
O 	O 	0.09560 0.28970 0.01000 -0.53100
O 	O 	0.18860 0.36910 0.99320 -0.53600
O 	O 	0.18880 0.47580 0.87000 -0.54400
C 	C 	0.16200 0.47660 0.80900 0.45300
C 	C 	0.21450 0.24460 0.00140 -0.13900
H 	H 	0.19710 0.19760 0.00140 0.11000
C 	C 	0.21470 0.47500 0.74570 -0.13700
H 	H 	0.19620 0.47390 0.69910 0.10600
C 	C 	0.16130 0.30620 0.00130 0.45200
Y 	Y 	0.35358 0.48683 0.51230 2.40400
O 	O 	0.42040 0.56740 0.44450 -0.82600
O 	O 	0.40560 0.47610 0.70890 -0.53100
O 	O 	0.40440 0.28970 0.49000 -0.53400
O 	O 	0.31140 0.36910 0.50680 -0.53100
O 	O 	0.31120 0.47580 0.63000 -0.54300
C 	C 	0.33800 0.47660 0.69100 0.45300
C 	C 	0.28550 0.24460 0.49860 -0.14000
H 	H 	0.30290 0.19760 0.49860 0.10700
C 	C 	0.28530 0.47500 0.75430 -0.13700
H 	H 	0.30380 0.47390 0.80090 0.10600
C 	C 	0.33870 0.30620 0.49870 0.44600
Y 	Y 	0.35358 0.01317 0.98770 2.40400
O 	O 	0.42040 0.93260 0.05550 -0.82800
O 	O 	0.40560 0.02390 0.79110 -0.53100
O 	O 	0.40440 0.21030 0.01000 -0.53400
O 	O 	0.31140 0.13090 0.99320 -0.53700
O 	O 	0.31120 0.02420 0.87000 -0.54400
C 	C 	0.33800 0.02340 0.80900 0.45400
C 	C 	0.28550 0.25540 0.00140 -0.14000
H 	H 	0.30290 0.30240 0.00140 0.10900
C 	C 	0.28530 0.02500 0.74570 -0.13700
H 	H 	0.30380 0.02610 0.69910 0.10600
C 	C 	0.33870 0.19380 0.00130 0.45300
Y 	Y 	0.51230 0.14642 0.01317 2.40500
O 	O 	0.44450 0.07960 0.93260 -0.82800
O 	O 	0.70890 0.09440 0.02390 -0.53000
O 	O 	0.49000 0.09560 0.21030 -0.53200
O 	O 	0.50680 0.18860 0.13090 -0.53100
O 	O 	0.63000 0.18880 0.02420 -0.54200
C 	C 	0.69100 0.16200 0.02340 0.45300
C 	C 	0.49860 0.21450 0.25540 -0.13900
H 	H 	0.49860 0.19710 0.30240 0.10700
C 	C 	0.75430 0.21470 0.02500 -0.13600
H 	H 	0.80090 0.19620 0.02610 0.10600
C 	C 	0.49870 0.16130 0.19380 0.44600
Y 	Y 	0.98770 0.14642 0.48683 2.40400
O 	O 	0.05550 0.07960 0.56740 -0.82400
O 	O 	0.79110 0.09440 0.47610 -0.53100
O 	O 	0.01000 0.09560 0.28970 -0.53100
O 	O 	0.99320 0.18860 0.36910 -0.53600
O 	O 	0.87000 0.18880 0.47580 -0.54400
C 	C 	0.80900 0.16200 0.47660 0.45300
C 	C 	0.00140 0.21450 0.24460 -0.13900
H 	H 	0.00140 0.19710 0.19760 0.11000
C 	C 	0.74570 0.21470 0.47500 -0.13700
H 	H 	0.69910 0.19620 0.47390 0.10600
C 	C 	0.00130 0.16130 0.30620 0.45200
Y 	Y 	0.51230 0.35358 0.48683 2.40400
O 	O 	0.44450 0.42040 0.56740 -0.82600
O 	O 	0.70890 0.40560 0.47610 -0.53100
O 	O 	0.49000 0.40440 0.28970 -0.53400
O 	O 	0.50680 0.31140 0.36910 -0.53100
O 	O 	0.63000 0.31120 0.47580 -0.54300
C 	C 	0.69100 0.33800 0.47660 0.45300
C 	C 	0.49860 0.28550 0.24460 -0.14000
H 	H 	0.49860 0.30290 0.19760 0.10700
C 	C 	0.75430 0.28530 0.47500 -0.13700
H 	H 	0.80090 0.30380 0.47390 0.10600
C 	C 	0.49870 0.33870 0.30620 0.44600
Y 	Y 	0.98770 0.35358 0.01317 2.40400
O 	O 	0.05550 0.42040 0.93260 -0.82800
O 	O 	0.79110 0.40560 0.02390 -0.53100
O 	O 	0.01000 0.40440 0.21030 -0.53400
O 	O 	0.99320 0.31140 0.13090 -0.53700
O 	O 	0.87000 0.31120 0.02420 -0.54400
C 	C 	0.80900 0.33800 0.02340 0.45400
C 	C 	0.00140 0.28550 0.25540 -0.14000
H 	H 	0.00140 0.30290 0.30240 0.10900
C 	C 	0.74570 0.28530 0.02500 -0.13700
H 	H 	0.69910 0.30380 0.02610 0.10600
C 	C 	0.00130 0.33870 0.19380 0.45300
O 	O 	0.93290 0.56710 0.93290 -0.83100
O 	O 	0.56710 0.93290 0.93290 -0.83100
O 	O 	0.56710 0.56710 0.56710 -0.83400
O 	O 	0.93290 0.93290 0.56710 -0.83100
O 	O 	0.06710 0.43290 0.06710 -0.83100
O 	O 	0.43290 0.06710 0.06710 -0.83100
O 	O 	0.43290 0.43290 0.43290 -0.83400
O 	O 	0.06710 0.06710 0.43290 -0.83100
