data_crystal

_cell_length_a 8.15840
_cell_length_b 8.15840
_cell_length_c 12.13990
_cell_angle_alpha 90.00000
_cell_angle_beta  90.00000
_cell_angle_gamma 120.00000

_symmetry_space_group_name_	'P 1'
_symmetry_space_group_name_H-M	'P 1'

loop_
_symmetry_equiv_pos_as_xyz
  x,y,z

loop_
_atom_site_label
_atom_site_type_symbol
_atom_site_fract_x
_atom_site_fract_y
_atom_site_fract_z
_atom_site_charge
O 	O 	0.29340 0.76150 0.56851 -0.80800
O 	O 	0.16210 0.49420 0.47464 -0.90700
C 	C 	0.26210 0.59470 0.55308 0.74900
C 	C 	0.34490 0.51200 0.63040 -0.98900
H 	H 	0.35400 0.41020 0.59310 0.22700
H 	H 	0.26350 0.46080 0.69540 0.20400
H 	H 	0.47150 0.61080 0.65320 0.26500
O 	O 	0.23850 0.53190 0.23518 -0.94300
O 	O 	0.50580 0.66790 0.14131 -0.87000
C 	C 	0.40530 0.66740 0.21975 0.87100
C 	C 	0.48800 0.83290 0.29707 -1.21600
H 	H 	0.58980 0.94380 0.25977 0.39700
H 	H 	0.53920 0.80270 0.36207 0.35900
H 	H 	0.38920 0.86070 0.31987 0.33600
O 	O 	0.46810 0.70660 0.90184 -0.67600
O 	O 	0.33210 0.83790 0.80797 -0.69500
C 	C 	0.33260 0.73790 0.88641 0.55100
C 	C 	0.16710 0.65510 0.96373 -0.24800
H 	H 	0.05620 0.64600 0.92643 0.01200
H 	H 	0.19730 0.73650 0.02873 -0.07000
H 	H 	0.13930 0.52850 0.98653 0.02300
O 	O 	0.76150 0.29340 0.43149 -0.80700
O 	O 	0.49420 0.16210 0.52536 -0.90500
C 	C 	0.59470 0.26210 0.44692 0.74200
C 	C 	0.51200 0.34490 0.36960 -0.96700
H 	H 	0.41020 0.35400 0.40690 0.21800
H 	H 	0.46080 0.26350 0.30460 0.18700
H 	H 	0.61080 0.47150 0.34680 0.25500
O 	O 	0.53190 0.23850 0.76482 -0.91000
O 	O 	0.66790 0.50580 0.85869 -0.76900
C 	C 	0.66740 0.40530 0.78025 0.85100
C 	C 	0.83290 0.48800 0.70293 -1.19500
H 	H 	0.94380 0.58980 0.74023 0.40600
H 	H 	0.80270 0.53920 0.63793 0.35400
H 	H 	0.86070 0.38920 0.68013 0.33200
O 	O 	0.70660 0.46810 0.09816 -0.86900
O 	O 	0.83790 0.33210 0.19203 -0.82400
C 	C 	0.73790 0.33260 0.11359 0.86800
C 	C 	0.65510 0.16710 0.03627 -1.43500
H 	H 	0.64600 0.05620 0.07357 0.28700
H 	H 	0.73650 0.19730 0.97127 0.48100
H 	H 	0.52850 0.13930 0.01347 0.25800
Sc	Sc	0.41648 0.00000 0.66667 2.28500
Sc	Sc	-0.00000 0.41648 0.33333 2.28700
Sc	Sc	0.58352 0.58352 -0.00000 2.29800
