data_crystal

_cell_length_a 15.65000
_cell_length_b 15.65000
_cell_length_c 8.34800
_cell_angle_alpha 90.00000
_cell_angle_beta  90.00000
_cell_angle_gamma 90.00000

_symmetry_space_group_name_	'P 1'
_symmetry_space_group_name_H-M	'P 1'

loop_
_symmetry_equiv_pos_as_xyz
  x,y,z

loop_
_atom_site_label
_atom_site_type_symbol
_atom_site_fract_x
_atom_site_fract_y
_atom_site_fract_z
_atom_site_charge
Cu	Cu	0.50000 0.50000 -0.00000 0.85200
C 	C 	0.31380 0.31380 0.86900 -0.05300
H 	H 	0.29210 0.29210 0.77320 -0.00300
C 	C 	0.37630 0.37630 0.86640 0.00600
H 	H 	0.39600 0.39600 0.76810 -0.01400
C 	C 	0.11240 0.11240 0.93370 -0.35300
C 	C 	0.17900 0.17900 0.90500 0.48500
H 	H 	0.19320 0.19320 0.80010 0.08200
O 	O 	0.07810 0.07810 0.81410 -0.38000
O 	O 	0.09330 0.09330 0.07660 0.26000
C 	C 	0.31850 0.31850 0.15300 -0.03700
H 	H 	0.30010 0.30010 0.25260 0.05500
C 	C 	0.38080 0.38080 0.14060 0.03100
H 	H 	0.40370 0.40370 0.23400 0.00200
C 	C 	0.28370 0.28370 0.01400 0.06300
C 	C 	0.21740 0.21740 0.02300 -0.06700
H 	H 	0.20090 0.20090 0.12540 -0.33800
C 	C 	0.68620 0.68620 0.86900 -0.05200
H 	H 	0.70790 0.70790 0.77320 0.00100
C 	C 	0.62370 0.62370 0.86640 0.00800
H 	H 	0.60400 0.60400 0.76810 -0.01300
C 	C 	0.88760 0.88760 0.93370 -0.33100
C 	C 	0.82100 0.82100 0.90500 0.54400
H 	H 	0.80680 0.80680 0.80010 0.11300
O 	O 	0.92190 0.92190 0.81410 -0.35100
O 	O 	0.90670 0.90670 0.07660 0.23800
C 	C 	0.68150 0.68150 0.15300 -0.03500
H 	H 	0.69990 0.69990 0.25260 0.05800
C 	C 	0.61920 0.61920 0.14060 0.03300
H 	H 	0.59630 0.59630 0.23400 0.00300
C 	C 	0.71630 0.71630 0.01400 0.06700
C 	C 	0.78260 0.78260 0.02300 -0.06000
H 	H 	0.79910 0.79910 0.12540 -0.40000
C 	C 	0.68620 0.31380 0.86900 -0.05300
H 	H 	0.70790 0.29210 0.77320 -0.00100
C 	C 	0.62370 0.37630 0.86640 0.00700
H 	H 	0.60400 0.39600 0.76810 -0.01300
C 	C 	0.88760 0.11240 0.93370 -0.34200
C 	C 	0.82100 0.17900 0.90500 0.51400
H 	H 	0.80680 0.19320 0.80010 0.09700
O 	O 	0.92190 0.07810 0.81410 -0.36700
O 	O 	0.90670 0.09330 0.07660 0.24900
C 	C 	0.68150 0.31850 0.15300 -0.03600
H 	H 	0.69990 0.30010 0.25260 0.05600
C 	C 	0.61920 0.38080 0.14060 0.03200
H 	H 	0.59630 0.40370 0.23400 0.00300
C 	C 	0.71630 0.28370 0.01400 0.06500
C 	C 	0.78260 0.21740 0.02300 -0.06400
H 	H 	0.79910 0.20090 0.12540 -0.36800
C 	C 	0.31380 0.68620 0.86900 -0.05300
H 	H 	0.29210 0.70790 0.77320 -0.00100
C 	C 	0.37630 0.62370 0.86640 0.00700
H 	H 	0.39600 0.60400 0.76810 -0.01300
C 	C 	0.11240 0.88760 0.93370 -0.34200
C 	C 	0.17900 0.82100 0.90500 0.51400
H 	H 	0.19320 0.80680 0.80010 0.09700
O 	O 	0.07810 0.92190 0.81410 -0.36700
O 	O 	0.09330 0.90670 0.07660 0.24900
C 	C 	0.31850 0.68150 0.15300 -0.03600
H 	H 	0.30010 0.69990 0.25260 0.05600
C 	C 	0.38080 0.61920 0.14060 0.03200
H 	H 	0.40370 0.59630 0.23400 0.00300
C 	C 	0.28370 0.71630 0.01400 0.06500
C 	C 	0.21740 0.78260 0.02300 -0.06400
H 	H 	0.20090 0.79910 0.12540 -0.36800
C 	C 	0.68620 0.31380 0.13100 -0.05500
H 	H 	0.70790 0.29210 0.22680 0.00000
C 	C 	0.62370 0.37630 0.13360 0.00500
H 	H 	0.60400 0.39600 0.23190 -0.01400
C 	C 	0.88760 0.11240 0.06630 -0.34200
C 	C 	0.82100 0.17900 0.09500 0.51200
H 	H 	0.80680 0.19320 0.19990 0.10300
O 	O 	0.92190 0.07810 0.18590 -0.36400
O 	O 	0.90670 0.09330 0.92340 0.26100
C 	C 	0.68150 0.31850 0.84700 -0.02800
H 	H 	0.69990 0.30010 0.74740 0.05600
C 	C 	0.61920 0.38080 0.85940 0.03300
H 	H 	0.59630 0.40370 0.76600 0.00200
C 	C 	0.71630 0.28370 0.98600 0.03200
C 	C 	0.78260 0.21740 0.97700 -0.09200
H 	H 	0.79910 0.20090 0.87460 -0.35500
C 	C 	0.31380 0.68620 0.13100 -0.05500
H 	H 	0.29210 0.70790 0.22680 0.00000
C 	C 	0.37630 0.62370 0.13360 0.00500
H 	H 	0.39600 0.60400 0.23190 -0.01400
C 	C 	0.11240 0.88760 0.06630 -0.34200
C 	C 	0.17900 0.82100 0.09500 0.51200
H 	H 	0.19320 0.80680 0.19990 0.10300
O 	O 	0.07810 0.92190 0.18590 -0.36400
O 	O 	0.09330 0.90670 0.92340 0.26100
C 	C 	0.31850 0.68150 0.84700 -0.02800
H 	H 	0.30010 0.69990 0.74740 0.05600
C 	C 	0.38080 0.61920 0.85940 0.03300
H 	H 	0.40370 0.59630 0.76600 0.00200
C 	C 	0.28370 0.71630 0.98600 0.03200
C 	C 	0.21740 0.78260 0.97700 -0.09200
H 	H 	0.20090 0.79910 0.87460 -0.35500
C 	C 	0.31380 0.31380 0.13100 -0.05600
H 	H 	0.29210 0.29210 0.22680 -0.00200
C 	C 	0.37630 0.37630 0.13360 0.00400
H 	H 	0.39600 0.39600 0.23190 -0.01500
C 	C 	0.11240 0.11240 0.06630 -0.35300
C 	C 	0.17900 0.17900 0.09500 0.48400
H 	H 	0.19320 0.19320 0.19990 0.08800
O 	O 	0.07810 0.07810 0.18590 -0.37700
O 	O 	0.09330 0.09330 0.92340 0.27100
C 	C 	0.31850 0.31850 0.84700 -0.02900
H 	H 	0.30010 0.30010 0.74740 0.05500
C 	C 	0.38080 0.38080 0.85940 0.03200
H 	H 	0.40370 0.40370 0.76600 0.00200
C 	C 	0.28370 0.28370 0.98600 0.03000
C 	C 	0.21740 0.21740 0.97700 -0.09500
H 	H 	0.20090 0.20090 0.87460 -0.32500
C 	C 	0.68620 0.68620 0.13100 -0.05400
H 	H 	0.70790 0.70790 0.22680 0.00300
C 	C 	0.62370 0.62370 0.13360 0.00600
H 	H 	0.60400 0.60400 0.23190 -0.01300
C 	C 	0.88760 0.88760 0.06630 -0.33100
C 	C 	0.82100 0.82100 0.09500 0.54200
H 	H 	0.80680 0.80680 0.19990 0.11900
O 	O 	0.92190 0.92190 0.18590 -0.34800
O 	O 	0.90670 0.90670 0.92340 0.24900
C 	C 	0.68150 0.68150 0.84700 -0.02700
H 	H 	0.69990 0.69990 0.74740 0.05700
C 	C 	0.61920 0.61920 0.85940 0.03400
H 	H 	0.59630 0.59630 0.76600 0.00300
C 	C 	0.71630 0.71630 0.98600 0.03400
C 	C 	0.78260 0.78260 0.97700 -0.08800
H 	H 	0.79910 0.79910 0.87460 -0.38700
N 	N 	0.40910 0.40910 -0.00000 -0.22900
N 	N 	0.59090 0.59090 -0.00000 -0.22800
N 	N 	0.59090 0.40910 -0.00000 -0.22900
N 	N 	0.40910 0.59090 -0.00000 -0.22900
Cu	Cu	0.01790 0.00000 0.15050 0.15900
Cu	Cu	0.98210 0.00000 0.15050 0.32100
Cu	Cu	0.00000 0.01790 0.15050 0.15900
Cu	Cu	-0.00000 0.98210 0.15050 0.32100
Cu	Cu	0.98210 0.00000 0.84950 0.32200
Cu	Cu	0.01790 0.00000 0.84950 0.15900
Cu	Cu	0.00000 0.01790 0.84950 0.15900
Cu	Cu	-0.00000 0.98210 0.84950 0.32200
