data_crystal

_cell_length_a 26.18900
_cell_length_b 26.22300
_cell_length_c 21.11700
_cell_angle_alpha 90.00000
_cell_angle_beta  127.23200
_cell_angle_gamma 90.00000

_symmetry_space_group_name_	'P 1'
_symmetry_space_group_name_H-M	'P 1'

loop_
_symmetry_equiv_pos_as_xyz
  x,y,z

loop_
_atom_site_label
_atom_site_type_symbol
_atom_site_fract_x
_atom_site_fract_y
_atom_site_fract_z
_atom_site_charge
Cu	Cu	0.53706 0.28239 0.32825 0.90300
O 	O 	0.53300 0.20715 0.31950 -0.40000
O 	O 	0.39100 0.28300 0.17620 -0.40500
O 	O 	0.45530 0.28150 0.31140 -0.42200
O 	O 	0.53180 0.35440 0.32010 -0.37400
N 	N 	0.07310 0.28020 0.24330 -0.23900
C 	C 	0.34480 0.28320 0.24340 -0.08800
C 	C 	0.28280 0.28480 0.17070 0.01500
H 	H 	0.27740 0.28400 0.12200 0.04100
C 	C 	0.35010 0.27490 0.31110 0.02100
H 	H 	0.39070 0.26570 0.35850 0.03600
C 	C 	0.23610 0.28320 0.24110 0.01800
C 	C 	0.18100 0.28350 0.24400 0.06000
C 	C 	0.46550 0.51580 0.17680 -0.06500
H 	H 	0.44280 0.53430 0.12820 0.05000
C 	C 	0.40380 0.28370 0.24520 0.35600
C 	C 	0.53560 0.04930 0.32010 -0.10200
H 	H 	0.56390 0.03270 0.36990 0.06400
C 	C 	0.46480 0.46300 0.17640 -0.00800
H 	H 	0.44130 0.44450 0.12780 0.04700
C 	C 	0.29870 0.27940 0.31320 -0.08600
H 	H 	0.30530 0.27990 0.36260 0.05500
C 	C 	0.55630 0.93680 0.30400 -0.11900
H 	H 	0.59590 0.95370 0.34120 0.06900
C 	C 	0.48030 0.62620 0.18160 -0.13100
H 	H 	0.46230 0.60890 0.13270 0.07200
C 	C 	0.22980 0.28750 0.17000 -0.08100
H 	H 	0.18840 0.29240 0.12100 0.05400
C 	C 	0.12520 0.30810 0.18510 -0.13100
H 	H 	0.12210 0.32600 0.14380 0.07100
C 	C 	0.52890 0.10170 0.31560 0.03500
H 	H 	0.54670 0.11860 0.36460 0.03500
C 	C 	0.55340 0.88340 0.30250 0.06300
H 	H 	0.59160 0.86520 0.34080 -0.01300
C 	C 	0.07320 0.30610 0.18760 0.06500
H 	H 	0.03530 0.32400 0.14780 -0.01600
C 	C 	0.18090 0.25190 0.29820 -0.12800
H 	H 	0.21650 0.23060 0.33480 0.06900
C 	C 	0.12580 0.25310 0.29570 0.06400
H 	H 	0.12620 0.23340 0.33370 -0.01500
C 	C 	0.48780 0.67910 0.18750 0.06800
H 	H 	0.48430 0.69710 0.14590 -0.01400
Cu	Cu	0.03706 0.78239 0.32825 0.89800
O 	O 	0.03300 0.70715 0.31950 -0.39900
O 	O 	0.89100 0.78300 0.17620 -0.40100
O 	O 	0.95530 0.78150 0.31140 -0.40900
O 	O 	0.03180 0.85440 0.32010 -0.37600
N 	N 	0.57310 0.78020 0.24330 -0.23700
C 	C 	0.84480 0.78320 0.24340 -0.08500
C 	C 	0.78280 0.78480 0.17070 0.01500
H 	H 	0.77740 0.78400 0.12200 0.04300
C 	C 	0.85010 0.77490 0.31110 0.02000
H 	H 	0.89070 0.76570 0.35850 0.04000
C 	C 	0.73610 0.78320 0.24110 0.01800
C 	C 	0.68100 0.78350 0.24400 0.06200
C 	C 	0.96550 0.01580 0.17680 -0.04600
H 	H 	0.94280 0.03430 0.12820 0.04900
C 	C 	0.90380 0.78370 0.24520 0.35600
C 	C 	0.03560 0.54930 0.32010 -0.10200
H 	H 	0.06390 0.53270 0.36990 0.06200
C 	C 	0.96480 0.96300 0.17640 0.01400
H 	H 	0.94130 0.94450 0.12780 0.04500
C 	C 	0.79870 0.77940 0.31320 -0.08300
H 	H 	0.80530 0.77990 0.36260 0.05600
C 	C 	0.05630 0.43680 0.30400 -0.11500
H 	H 	0.09590 0.45370 0.34120 0.06600
C 	C 	0.98030 0.12620 0.18160 -0.10500
H 	H 	0.96230 0.10890 0.13270 0.06800
C 	C 	0.72980 0.78750 0.17000 -0.07900
H 	H 	0.68840 0.79240 0.12100 0.05500
C 	C 	0.62520 0.80810 0.18510 -0.13000
H 	H 	0.62210 0.82600 0.14380 0.07300
C 	C 	0.02890 0.60170 0.31560 0.03400
H 	H 	0.04670 0.61860 0.36460 0.03300
C 	C 	0.05340 0.38340 0.30250 0.05600
H 	H 	0.09160 0.36520 0.34080 -0.01300
C 	C 	0.57320 0.80610 0.18760 0.06700
H 	H 	0.53530 0.82400 0.14780 -0.01100
C 	C 	0.68090 0.75190 0.29820 -0.12700
H 	H 	0.71650 0.73060 0.33480 0.07100
C 	C 	0.62580 0.75310 0.29570 0.06700
H 	H 	0.62620 0.73340 0.33370 -0.01400
C 	C 	0.98780 0.17910 0.18750 0.08200
H 	H 	0.98430 0.19710 0.14590 -0.01100
Cu	Cu	0.46294 0.28239 0.17175 0.90400
O 	O 	0.46700 0.20715 0.18050 -0.39900
O 	O 	0.60900 0.28300 0.32380 -0.40400
O 	O 	0.54470 0.28150 0.18860 -0.42100
O 	O 	0.46820 0.35440 0.17990 -0.37300
N 	N 	0.92690 0.28020 0.25670 -0.23000
C 	C 	0.65520 0.28320 0.25660 -0.08900
C 	C 	0.71720 0.28480 0.32930 0.01700
H 	H 	0.72260 0.28400 0.37800 0.04200
C 	C 	0.64990 0.27490 0.18890 0.02200
H 	H 	0.60930 0.26570 0.14150 0.03600
C 	C 	0.76390 0.28320 0.25890 0.02000
C 	C 	0.81900 0.28350 0.25600 0.06100
C 	C 	0.53450 0.51580 0.32320 -0.06500
H 	H 	0.55720 0.53430 0.37180 0.05000
C 	C 	0.59620 0.28370 0.25480 0.35700
C 	C 	0.46440 0.04930 0.17990 -0.10200
H 	H 	0.43610 0.03270 0.13010 0.06400
C 	C 	0.53520 0.46300 0.32360 -0.00800
H 	H 	0.55870 0.44450 0.37220 0.04800
C 	C 	0.70130 0.27940 0.18680 -0.08600
H 	H 	0.69470 0.27990 0.13740 0.05600
C 	C 	0.44370 0.93680 0.19600 -0.11900
H 	H 	0.40410 0.95370 0.15880 0.06900
C 	C 	0.51970 0.62620 0.31840 -0.13100
H 	H 	0.53770 0.60890 0.36730 0.07200
C 	C 	0.77020 0.28750 0.33000 -0.08100
H 	H 	0.81160 0.29240 0.37900 0.05700
C 	C 	0.87480 0.30810 0.31490 -0.12800
H 	H 	0.87790 0.32600 0.35620 0.07400
C 	C 	0.47110 0.10170 0.18440 0.03500
H 	H 	0.45330 0.11860 0.13540 0.03500
C 	C 	0.44660 0.88340 0.19750 0.06300
H 	H 	0.40840 0.86520 0.15920 -0.01400
C 	C 	0.92680 0.30610 0.31240 0.06800
H 	H 	0.96470 0.32400 0.35220 -0.00500
C 	C 	0.81910 0.25190 0.20180 -0.12600
H 	H 	0.78350 0.23060 0.16520 0.07000
C 	C 	0.87420 0.25310 0.20430 0.06800
H 	H 	0.87380 0.23340 0.16630 -0.01100
C 	C 	0.51220 0.67910 0.31250 0.06800
H 	H 	0.51570 0.69710 0.35410 -0.01400
Cu	Cu	0.96294 0.78239 0.17175 0.91000
O 	O 	0.96700 0.70715 0.18050 -0.37800
O 	O 	0.10900 0.78300 0.32380 -0.40700
O 	O 	0.04470 0.78150 0.18860 -0.43200
O 	O 	0.96820 0.85440 0.17990 -0.35400
N 	N 	0.42690 0.78020 0.25670 -0.23700
C 	C 	0.15520 0.78320 0.25660 -0.09200
C 	C 	0.21720 0.78480 0.32930 0.01700
H 	H 	0.22260 0.78400 0.37800 0.04000
C 	C 	0.14990 0.77490 0.18890 0.02300
H 	H 	0.10930 0.76570 0.14150 0.03300
C 	C 	0.26390 0.78320 0.25890 0.01900
C 	C 	0.31900 0.78350 0.25600 0.06000
C 	C 	0.03450 0.01580 0.32320 -0.06600
H 	H 	0.05720 0.03430 0.37180 0.04800
C 	C 	0.09620 0.78370 0.25480 0.35800
C 	C 	0.96440 0.54930 0.17990 -0.08200
H 	H 	0.93610 0.53270 0.13010 0.06300
C 	C 	0.03520 0.96300 0.32360 -0.00600
H 	H 	0.05870 0.94450 0.37220 0.04400
C 	C 	0.20130 0.77940 0.18680 -0.08800
H 	H 	0.19470 0.77990 0.13740 0.05500
C 	C 	0.94370 0.43680 0.19600 -0.09600
H 	H 	0.90410 0.45370 0.15880 0.06500
C 	C 	0.01970 0.12620 0.31840 -0.12500
H 	H 	0.03770 0.10890 0.36730 0.06700
C 	C 	0.27020 0.78750 0.33000 -0.08200
H 	H 	0.31160 0.79240 0.37900 0.05500
C 	C 	0.37480 0.80810 0.31490 -0.12900
H 	H 	0.37790 0.82600 0.35620 0.07200
C 	C 	0.97110 0.60170 0.18440 0.05700
H 	H 	0.95330 0.61860 0.13540 0.03300
C 	C 	0.94660 0.38340 0.19750 0.07800
H 	H 	0.90840 0.36520 0.15920 -0.01500
C 	C 	0.42680 0.80610 0.31240 0.06600
H 	H 	0.46470 0.82400 0.35220 -0.01100
C 	C 	0.31910 0.75190 0.20180 -0.12700
H 	H 	0.28350 0.73060 0.16520 0.06900
C 	C 	0.37420 0.75310 0.20430 0.06600
H 	H 	0.37380 0.73340 0.16630 -0.01400
C 	C 	0.01220 0.17910 0.31250 0.06000
H 	H 	0.01570 0.19710 0.35410 -0.01700
Cu	Cu	0.50000 0.78209 0.25000 0.85700
C 	C 	0.50000 0.13240 0.25000 -0.09900
N 	N 	0.50000 0.85620 0.25000 -0.24400
N 	N 	0.50000 0.70550 0.25000 -0.23600
C 	C 	0.50000 0.02180 0.25000 0.03700
C 	C 	0.50000 0.96550 0.25000 0.04700
C 	C 	0.50000 0.18900 0.25000 0.34000
C 	C 	0.50000 0.54190 0.25000 0.00800
C 	C 	0.50000 0.38030 0.25000 0.25600
C 	C 	0.50000 0.43750 0.25000 -0.05400
C 	C 	0.50000 0.59970 0.25000 0.06800
Cu	Cu	0.00000 0.28209 0.25000 0.85000
C 	C 	0.00000 0.63240 0.25000 -0.11900
N 	N 	0.00000 0.35620 0.25000 -0.25500
N 	N 	0.00000 0.20550 0.25000 -0.24700
C 	C 	0.00000 0.52180 0.25000 0.01900
C 	C 	0.00000 0.46550 0.25000 0.02600
C 	C 	0.00000 0.68900 0.25000 0.31800
C 	C 	0.00000 0.04190 0.25000 -0.00800
C 	C 	0.00000 0.88030 0.25000 0.24000
C 	C 	0.00000 0.93750 0.25000 -0.07400
C 	C 	0.00000 0.09970 0.25000 0.04500
Cu	Cu	0.46294 0.71761 0.67175 0.90400
O 	O 	0.46700 0.79285 0.68050 -0.40000
O 	O 	0.60900 0.71700 0.82380 -0.40500
O 	O 	0.54470 0.71850 0.68860 -0.42100
O 	O 	0.46820 0.64560 0.67990 -0.37300
N 	N 	0.92690 0.71980 0.75670 -0.23000
C 	C 	0.65520 0.71680 0.75660 -0.08900
C 	C 	0.71720 0.71520 0.82930 0.01700
H 	H 	0.72260 0.71600 0.87800 0.04100
C 	C 	0.64990 0.72510 0.68890 0.02200
H 	H 	0.60930 0.73430 0.64150 0.03600
C 	C 	0.76390 0.71680 0.75890 0.02000
C 	C 	0.81900 0.71650 0.75600 0.06100
C 	C 	0.53450 0.48420 0.82320 -0.06500
H 	H 	0.55720 0.46570 0.87180 0.04900
C 	C 	0.59620 0.71630 0.75480 0.35700
C 	C 	0.46440 0.95070 0.67990 -0.10200
H 	H 	0.43610 0.96730 0.63010 0.06300
C 	C 	0.53520 0.53700 0.82360 -0.00800
H 	H 	0.55870 0.55550 0.87220 0.04700
C 	C 	0.70130 0.72060 0.68680 -0.08600
H 	H 	0.69470 0.72010 0.63740 0.05600
C 	C 	0.44370 0.06320 0.69600 -0.11900
H 	H 	0.40410 0.04630 0.65880 0.06800
C 	C 	0.51970 0.37380 0.81840 -0.13200
H 	H 	0.53770 0.39110 0.86730 0.07100
C 	C 	0.77020 0.71250 0.83000 -0.08100
H 	H 	0.81160 0.70760 0.87900 0.05600
C 	C 	0.87480 0.69190 0.81490 -0.12800
H 	H 	0.87790 0.67400 0.85620 0.07400
C 	C 	0.47110 0.89830 0.68440 0.03500
H 	H 	0.45330 0.88140 0.63540 0.03500
C 	C 	0.44660 0.11660 0.69750 0.06300
H 	H 	0.40840 0.13480 0.65920 -0.01400
C 	C 	0.92680 0.69390 0.81240 0.06800
H 	H 	0.96470 0.67600 0.85220 -0.00500
C 	C 	0.81910 0.74810 0.70180 -0.12600
H 	H 	0.78350 0.76940 0.66520 0.07000
C 	C 	0.87420 0.74690 0.70430 0.06800
H 	H 	0.87380 0.76660 0.66630 -0.01100
C 	C 	0.51220 0.32090 0.81250 0.06800
H 	H 	0.51570 0.30290 0.85410 -0.01500
Cu	Cu	0.96294 0.21761 0.67175 0.91000
O 	O 	0.96700 0.29285 0.68050 -0.37800
O 	O 	0.10900 0.21700 0.82380 -0.40800
O 	O 	0.04470 0.21850 0.68860 -0.43300
O 	O 	0.96820 0.14560 0.67990 -0.35400
N 	N 	0.42690 0.21980 0.75670 -0.23700
C 	C 	0.15520 0.21680 0.75660 -0.09200
C 	C 	0.21720 0.21520 0.82930 0.01700
H 	H 	0.22260 0.21600 0.87800 0.04000
C 	C 	0.14990 0.22510 0.68890 0.02300
H 	H 	0.10930 0.23430 0.64150 0.03200
C 	C 	0.26390 0.21680 0.75890 0.01900
C 	C 	0.31900 0.21650 0.75600 0.05900
C 	C 	0.03450 0.98420 0.82320 -0.06600
H 	H 	0.05720 0.96570 0.87180 0.04800
C 	C 	0.09620 0.21630 0.75480 0.35800
C 	C 	0.96440 0.45070 0.67990 -0.08200
H 	H 	0.93610 0.46730 0.63010 0.06200
C 	C 	0.03520 0.03700 0.82360 -0.00600
H 	H 	0.05870 0.05550 0.87220 0.04400
C 	C 	0.20130 0.22060 0.68680 -0.08800
H 	H 	0.19470 0.22010 0.63740 0.05400
C 	C 	0.94370 0.56320 0.69600 -0.09600
H 	H 	0.90410 0.54630 0.65880 0.06500
C 	C 	0.01970 0.87380 0.81840 -0.12500
H 	H 	0.03770 0.89110 0.86730 0.06600
C 	C 	0.27020 0.21250 0.83000 -0.08300
H 	H 	0.31160 0.20760 0.87900 0.05500
C 	C 	0.37480 0.19190 0.81490 -0.12900
H 	H 	0.37790 0.17400 0.85620 0.07100
C 	C 	0.97110 0.39830 0.68440 0.05800
H 	H 	0.95330 0.38140 0.63540 0.03200
C 	C 	0.94660 0.61660 0.69750 0.07800
H 	H 	0.90840 0.63480 0.65920 -0.01500
C 	C 	0.42680 0.19390 0.81240 0.06600
H 	H 	0.46470 0.17600 0.85220 -0.01200
C 	C 	0.31910 0.24810 0.70180 -0.12700
H 	H 	0.28350 0.26940 0.66520 0.06800
C 	C 	0.37420 0.24690 0.70430 0.06500
H 	H 	0.37380 0.26660 0.66630 -0.01400
C 	C 	0.01220 0.82090 0.81250 0.05900
H 	H 	0.01570 0.80290 0.85410 -0.01700
Cu	Cu	0.53706 0.71761 0.82825 0.90400
O 	O 	0.53300 0.79285 0.81950 -0.40000
O 	O 	0.39100 0.71700 0.67620 -0.40500
O 	O 	0.45530 0.71850 0.81140 -0.42200
O 	O 	0.53180 0.64560 0.82010 -0.37300
N 	N 	0.07310 0.71980 0.74330 -0.23900
C 	C 	0.34480 0.71680 0.74340 -0.08900
C 	C 	0.28280 0.71520 0.67070 0.01500
H 	H 	0.27740 0.71600 0.62200 0.04100
C 	C 	0.35010 0.72510 0.81110 0.02100
H 	H 	0.39070 0.73430 0.85850 0.03500
C 	C 	0.23610 0.71680 0.74110 0.01800
C 	C 	0.18100 0.71650 0.74400 0.06000
C 	C 	0.46550 0.48420 0.67680 -0.06500
H 	H 	0.44280 0.46570 0.62820 0.04900
C 	C 	0.40380 0.71630 0.74520 0.35600
C 	C 	0.53560 0.95070 0.82010 -0.10200
H 	H 	0.56390 0.96730 0.86990 0.06400
C 	C 	0.46480 0.53700 0.67640 -0.00800
H 	H 	0.44130 0.55550 0.62780 0.04700
C 	C 	0.29870 0.72060 0.81320 -0.08600
H 	H 	0.30530 0.72010 0.86260 0.05400
C 	C 	0.55630 0.06320 0.80400 -0.11900
H 	H 	0.59590 0.04630 0.84120 0.06900
C 	C 	0.48030 0.37380 0.68160 -0.13100
H 	H 	0.46230 0.39110 0.63270 0.07100
C 	C 	0.22980 0.71250 0.67000 -0.08100
H 	H 	0.18840 0.70760 0.62100 0.05400
C 	C 	0.12520 0.69190 0.68510 -0.13100
H 	H 	0.12210 0.67400 0.64380 0.07000
C 	C 	0.52890 0.89830 0.81560 0.03500
H 	H 	0.54670 0.88140 0.86460 0.03500
C 	C 	0.55340 0.11660 0.80250 0.06300
H 	H 	0.59160 0.13480 0.84080 -0.01400
C 	C 	0.07320 0.69390 0.68760 0.06500
H 	H 	0.03530 0.67600 0.64780 -0.01600
C 	C 	0.18090 0.74810 0.79820 -0.12800
H 	H 	0.21650 0.76940 0.83480 0.06800
C 	C 	0.12580 0.74690 0.79570 0.06400
H 	H 	0.12620 0.76660 0.83370 -0.01600
C 	C 	0.48780 0.32090 0.68750 0.06800
H 	H 	0.48430 0.30290 0.64590 -0.01400
Cu	Cu	0.03706 0.21761 0.82825 0.89700
O 	O 	0.03300 0.29285 0.81950 -0.40000
O 	O 	0.89100 0.21700 0.67620 -0.40100
O 	O 	0.95530 0.21850 0.81140 -0.40900
O 	O 	0.03180 0.14560 0.82010 -0.37600
N 	N 	0.57310 0.21980 0.74330 -0.23700
C 	C 	0.84480 0.21680 0.74340 -0.08500
C 	C 	0.78280 0.21520 0.67070 0.01500
H 	H 	0.77740 0.21600 0.62200 0.04200
C 	C 	0.85010 0.22510 0.81110 0.02000
H 	H 	0.89070 0.23430 0.85850 0.04000
C 	C 	0.73610 0.21680 0.74110 0.01800
C 	C 	0.68100 0.21650 0.74400 0.06100
C 	C 	0.96550 0.98420 0.67680 -0.04600
H 	H 	0.94280 0.96570 0.62820 0.04800
C 	C 	0.90380 0.21630 0.74520 0.35600
C 	C 	0.03560 0.45070 0.82010 -0.10200
H 	H 	0.06390 0.46730 0.86990 0.06100
C 	C 	0.96480 0.03700 0.67640 0.01400
H 	H 	0.94130 0.05550 0.62780 0.04500
C 	C 	0.79870 0.22060 0.81320 -0.08300
H 	H 	0.80530 0.22010 0.86260 0.05600
C 	C 	0.05630 0.56320 0.80400 -0.11500
H 	H 	0.09590 0.54630 0.84120 0.06600
C 	C 	0.98030 0.87380 0.68160 -0.10500
H 	H 	0.96230 0.89110 0.63270 0.06800
C 	C 	0.72980 0.21250 0.67000 -0.07900
H 	H 	0.68840 0.20760 0.62100 0.05500
C 	C 	0.62520 0.19190 0.68510 -0.13000
H 	H 	0.62210 0.17400 0.64380 0.07200
C 	C 	0.02890 0.39830 0.81560 0.03400
H 	H 	0.04670 0.38140 0.86460 0.03200
C 	C 	0.05340 0.61660 0.80250 0.05600
H 	H 	0.09160 0.63480 0.84080 -0.01400
C 	C 	0.57320 0.19390 0.68760 0.06700
H 	H 	0.53530 0.17600 0.64780 -0.01200
C 	C 	0.68090 0.24810 0.79820 -0.12700
H 	H 	0.71650 0.26940 0.83480 0.07000
C 	C 	0.62580 0.24690 0.79570 0.06600
H 	H 	0.62620 0.26660 0.83370 -0.01400
C 	C 	0.98780 0.82090 0.68750 0.08200
H 	H 	0.98430 0.80290 0.64590 -0.01200
Cu	Cu	0.50000 0.21791 0.75000 0.85600
C 	C 	0.50000 0.86760 0.75000 -0.10000
N 	N 	0.50000 0.14380 0.75000 -0.24400
N 	N 	0.50000 0.29450 0.75000 -0.23600
C 	C 	0.50000 0.97820 0.75000 0.03700
C 	C 	0.50000 0.03450 0.75000 0.04600
C 	C 	0.50000 0.81100 0.75000 0.34000
C 	C 	0.50000 0.45810 0.75000 0.00800
C 	C 	0.50000 0.61970 0.75000 0.25600
C 	C 	0.50000 0.56250 0.75000 -0.05400
C 	C 	0.50000 0.40030 0.75000 0.06800
Cu	Cu	0.00000 0.71791 0.75000 0.85000
C 	C 	0.00000 0.36760 0.75000 -0.12000
N 	N 	0.00000 0.64380 0.75000 -0.25600
N 	N 	0.00000 0.79450 0.75000 -0.24700
C 	C 	0.00000 0.47820 0.75000 0.01800
C 	C 	0.00000 0.53450 0.75000 0.02600
C 	C 	0.00000 0.31100 0.75000 0.31800
C 	C 	0.00000 0.95810 0.75000 -0.00800
C 	C 	0.00000 0.11970 0.75000 0.23900
C 	C 	0.00000 0.06250 0.75000 -0.07400
C 	C 	0.00000 0.90030 0.75000 0.04400
