data_crystal

_cell_length_a 11.67520
_cell_length_b 11.67520
_cell_length_c 12.89540
_cell_angle_alpha 90.00000
_cell_angle_beta  90.00000
_cell_angle_gamma 90.00000

_symmetry_space_group_name_	'P 1'
_symmetry_space_group_name_H-M	'P 1'

loop_
_symmetry_equiv_pos_as_xyz
  x,y,z

loop_
_atom_site_label
_atom_site_type_symbol
_atom_site_fract_x
_atom_site_fract_y
_atom_site_fract_z
_atom_site_charge
N 	N 	0.20086 0.13160 0.38789 -0.26900
N 	N 	0.41190 0.27900 0.61089 -0.25500
C 	C 	0.13320 0.08140 0.34200 -0.06300
C 	C 	0.44900 0.35350 0.65890 -0.05400
N 	N 	0.70086 0.63160 0.88789 -0.18100
N 	N 	0.91190 0.77900 0.11089 -0.29800
C 	C 	0.63320 0.58140 0.84200 -0.00300
C 	C 	0.94900 0.85350 0.15890 -0.03000
N 	N 	0.79914 0.86840 0.38789 -0.26700
N 	N 	0.58810 0.72100 0.61089 -0.24600
C 	C 	0.86680 0.91860 0.34200 0.00900
C 	C 	0.55100 0.64650 0.65890 -0.04900
N 	N 	0.29914 0.36840 0.88789 -0.18800
N 	N 	0.08810 0.22100 0.11089 -0.30000
C 	C 	0.36680 0.41860 0.84200 -0.00900
C 	C 	0.05100 0.14650 0.15890 -0.10400
N 	N 	0.86840 0.20086 0.38789 -0.26700
N 	N 	0.72100 0.41190 0.61089 -0.24800
C 	C 	0.91860 0.13320 0.34200 -0.01600
C 	C 	0.64650 0.44900 0.65890 -0.05000
N 	N 	0.36840 0.70086 0.88789 -0.18400
N 	N 	0.22100 0.91190 0.11089 -0.29700
C 	C 	0.41860 0.63320 0.84200 -0.00500
C 	C 	0.14650 0.94900 0.15890 -0.05400
N 	N 	0.13160 0.79914 0.38789 -0.26800
N 	N 	0.27900 0.58810 0.61089 -0.25200
C 	C 	0.08140 0.86680 0.34200 -0.03300
C 	C 	0.35350 0.55100 0.65890 -0.05300
N 	N 	0.63160 0.29914 0.88789 -0.18500
N 	N 	0.77900 0.08810 0.11089 -0.30100
C 	C 	0.58140 0.36680 0.84200 -0.00700
C 	C 	0.85350 0.05100 0.15890 -0.07400
N 	N 	0.79914 0.86840 0.61211 -0.26100
N 	N 	0.58810 0.72100 0.38911 -0.25300
C 	C 	0.86680 0.91860 0.65800 0.01700
C 	C 	0.55100 0.64650 0.34110 -0.05600
N 	N 	0.29914 0.36840 0.11211 -0.29800
N 	N 	0.08810 0.22100 0.88911 -0.18900
C 	C 	0.36680 0.41860 0.15800 -0.09300
C 	C 	0.05100 0.14650 0.84110 -0.02600
N 	N 	0.20086 0.13160 0.61211 -0.26200
N 	N 	0.41190 0.27900 0.38911 -0.26000
C 	C 	0.13320 0.08140 0.65800 -0.05600
C 	C 	0.44900 0.35350 0.34110 -0.06200
N 	N 	0.70086 0.63160 0.11211 -0.29100
N 	N 	0.91190 0.77900 0.88911 -0.18600
C 	C 	0.63320 0.58140 0.15800 -0.08600
C 	C 	0.94900 0.85350 0.84110 0.04800
N 	N 	0.13160 0.79914 0.61211 -0.26200
N 	N 	0.27900 0.58810 0.38911 -0.25900
C 	C 	0.08140 0.86680 0.65800 -0.02500
C 	C 	0.35350 0.55100 0.34110 -0.06000
N 	N 	0.63160 0.29914 0.11211 -0.29500
N 	N 	0.77900 0.08810 0.88911 -0.18900
C 	C 	0.58140 0.36680 0.15800 -0.09000
C 	C 	0.85350 0.05100 0.84110 0.00400
N 	N 	0.86840 0.20086 0.61211 -0.26100
N 	N 	0.72100 0.41190 0.38911 -0.25400
C 	C 	0.91860 0.13320 0.65800 -0.00800
C 	C 	0.64650 0.44900 0.34110 -0.05800
N 	N 	0.36840 0.70086 0.11211 -0.29400
N 	N 	0.22100 0.91190 0.88911 -0.18600
C 	C 	0.41860 0.63320 0.15800 -0.08900
C 	C 	0.14650 0.94900 0.84110 0.02300
W 	W 	0.00000 0.00000 0.25101 0.32400
W 	W 	0.50000 0.50000 0.75101 0.49400
W 	W 	0.00000 0.00000 0.74899 0.32900
W 	W 	0.50000 0.50000 0.24899 0.48300
Ni	Ni	0.30589 0.20181 0.50000 0.99300
Ni	Ni	0.80589 0.70181 -0.00000 0.90400
Ni	Ni	0.69411 0.79819 0.50000 1.00400
Ni	Ni	0.19411 0.29819 -0.00000 0.89200
Ni	Ni	0.79819 0.30589 0.50000 1.00100
Ni	Ni	0.29819 0.80589 -0.00000 0.89900
Ni	Ni	0.20181 0.69411 0.50000 0.99700
Ni	Ni	0.70181 0.19411 -0.00000 0.89800
