data_crystal

_cell_length_a 12.93200
_cell_length_b 14.33800
_cell_length_c 14.51000
_cell_angle_alpha 104.74300
_cell_angle_beta  108.98100
_cell_angle_gamma 108.11900

_symmetry_space_group_name_	'P 1'
_symmetry_space_group_name_H-M	'P 1'

loop_
_symmetry_equiv_pos_as_xyz
  x,y,z

loop_
_atom_site_label
_atom_site_type_symbol
_atom_site_fract_x
_atom_site_fract_y
_atom_site_fract_z
_atom_site_charge
Eu	Eu	0.49806 0.89729 0.56945 1.79300
Mo	Mo	0.14214 0.71242 0.46809 1.12700
Mo	Mo	0.10426 0.47870 0.31954 1.01700
Mo	Mo	0.95852 0.26434 0.35082 1.09800
Mo	Mo	0.38727 0.64102 0.88939 1.18400
Mo	Mo	0.35948 0.40858 0.74064 1.05000
Mo	Mo	0.46854 0.26825 0.85139 1.07400
Na	Na	0.54680 0.94260 0.90670 0.58200
O 	O 	0.65310 0.92910 0.51190 -0.53900
O 	O 	0.63070 0.02120 0.41010 -0.48700
O 	O 	0.40860 0.90880 0.40630 -0.65700
O 	O 	0.35170 0.94360 0.26720 -0.58600
O 	O 	0.29120 0.76030 0.48660 -0.57500
O 	O 	0.14860 0.56290 0.49460 -0.73400
O 	O 	0.06510 0.59800 0.33080 -0.62800
O 	O 	0.97670 0.61780 0.47910 -0.67400
O 	O 	0.17890 0.76380 0.61750 -0.52900
O 	O 	0.94230 0.41660 0.35320 -0.67900
O 	O 	0.10750 0.36240 0.35790 -0.66100
O 	O 	0.43720 0.84900 0.70640 -0.36100
O 	O 	0.55190 0.64120 0.00700 -0.77000
O 	O 	0.34970 0.47720 0.89600 -0.67700
O 	O 	0.42960 0.56280 0.78910 -0.53000
O 	O 	0.38010 0.67810 0.02360 -0.63300
O 	O 	0.45940 0.76540 0.89520 -0.44400
O 	O 	0.53010 0.44470 0.88420 -0.69700
O 	O 	0.33010 0.28620 0.77310 -0.56200
N 	N 	0.90170 0.86730 0.42310 -0.15000
C 	C 	0.92860 0.89790 0.35020 0.06400
H 	H 	0.98320 0.87950 0.32730 0.00400
C 	C 	0.87390 0.95740 0.30960 -0.11300
H 	H 	0.89140 0.98060 0.25840 0.01600
C 	C 	0.79540 0.98250 0.34280 -0.00900
H 	H 	0.75830 0.02370 0.31590 0.01500
C 	C 	0.77050 0.94640 0.41710 -0.18700
C 	C 	0.82170 0.88760 0.45570 0.09200
H 	H 	0.80200 0.86120 0.50450 -0.03300
C 	C 	0.67590 0.96810 0.44960 0.43300
C 	C 	0.25080 0.76250 0.24810 -0.75800
H 	H 	0.23690 0.74080 0.17370 0.16700
H 	H 	0.17460 0.75500 0.25210 0.17700
H 	H 	0.28090 0.71710 0.27820 0.16800
C 	C 	0.34280 0.87700 0.30960 0.57900
O 	O 	0.37340 0.97240 0.90400 -0.31700
Eu	Eu	0.50194 0.10271 0.43055 1.80500
Mo	Mo	0.85786 0.28758 0.53191 1.17200
Mo	Mo	0.89574 0.52130 0.68046 1.08200
Mo	Mo	0.04148 0.73566 0.64918 1.00600
Mo	Mo	0.61273 0.35898 0.11061 1.11000
Mo	Mo	0.64052 0.59142 0.25936 1.05500
Mo	Mo	0.53146 0.73175 0.14861 1.05700
Na	Na	0.45320 0.05740 0.09330 0.56200
O 	O 	0.34690 0.07090 0.48810 -0.56800
O 	O 	0.36930 0.97880 0.58990 -0.54000
O 	O 	0.59140 0.09120 0.59370 -0.65100
O 	O 	0.64830 0.05640 0.73280 -0.52600
O 	O 	0.70880 0.23970 0.51340 -0.57100
O 	O 	0.85140 0.43710 0.50540 -0.68600
O 	O 	0.93490 0.40200 0.66920 -0.51400
O 	O 	0.02330 0.38220 0.52090 -0.82500
O 	O 	0.82110 0.23620 0.38250 -0.49900
O 	O 	0.05770 0.58340 0.64680 -0.79200
O 	O 	0.89250 0.63760 0.64210 -0.54600
O 	O 	0.56280 0.15100 0.29360 -0.38100
O 	O 	0.44810 0.35880 0.99300 -0.63400
O 	O 	0.65030 0.52280 0.10400 -0.75200
O 	O 	0.57040 0.43720 0.21090 -0.56700
O 	O 	0.61990 0.32190 0.97640 -0.47900
O 	O 	0.54060 0.23460 0.10480 -0.53700
O 	O 	0.46990 0.55530 0.11580 -0.77900
O 	O 	0.66990 0.71380 0.22690 -0.56400
N 	N 	0.09830 0.13270 0.57690 -0.20200
C 	C 	0.07140 0.10210 0.64980 0.08800
H 	H 	0.01680 0.12050 0.67270 -0.05600
C 	C 	0.12610 0.04260 0.69040 -0.21100
H 	H 	0.10860 0.01940 0.74160 0.04600
C 	C 	0.20460 0.01750 0.65720 0.12200
H 	H 	0.24170 0.97630 0.68410 -0.05900
C 	C 	0.22950 0.05360 0.58290 -0.26900
C 	C 	0.17830 0.11240 0.54430 0.11200
H 	H 	0.19800 0.13880 0.49550 -0.07300
C 	C 	0.32410 0.03190 0.55040 0.50600
C 	C 	0.74920 0.23750 0.75190 -0.89300
H 	H 	0.76310 0.25920 0.82630 0.27200
H 	H 	0.82540 0.24500 0.74790 0.27700
H 	H 	0.71910 0.28290 0.72180 0.22900
C 	C 	0.65720 0.12300 0.69040 0.63500
O 	O 	0.62660 0.02760 0.09600 -0.38200
Al	Al	0.00000 0.50000 0.50000 2.38500
Al	Al	0.50000 0.50000 -0.00000 2.38500
