data_crystal

_cell_length_a 10.03100
_cell_length_b 14.54100
_cell_length_c 23.56200
_cell_angle_alpha 90.00000
_cell_angle_beta  96.38100
_cell_angle_gamma 90.00000

_symmetry_space_group_name_	'P 1'
_symmetry_space_group_name_H-M	'P 1'

loop_
_symmetry_equiv_pos_as_xyz
  x,y,z

loop_
_atom_site_label
_atom_site_type_symbol
_atom_site_fract_x
_atom_site_fract_y
_atom_site_fract_z
_atom_site_charge
C 	C 	0.19530 0.46950 0.34510 0.28300
C 	C 	0.07010 0.42540 0.35970 0.02700
C 	C 	0.94590 0.46570 0.34340 -0.07200
H 	H 	0.94070 0.52110 0.32360 0.09600
C 	C 	0.83080 0.42300 0.35660 0.02500
C 	C 	0.83880 0.33970 0.38460 -0.16800
H 	H 	0.76070 0.30870 0.39100 0.13300
C 	C 	0.96080 0.30270 0.40300 0.22800
C 	C 	0.07770 0.34340 0.39020 -0.17000
H 	H 	0.16030 0.31640 0.40170 0.12000
C 	C 	0.69440 0.46760 0.34040 0.31800
C 	C 	0.07300 0.17120 0.44590 0.02700
H 	H 	0.13150 0.20680 0.47310 0.04600
H 	H 	0.11970 0.16060 0.41260 0.04600
C 	C 	0.04160 0.07830 0.47270 0.02700
C 	C 	0.91390 0.07100 0.49090 -0.08700
H 	H 	0.85570 0.12070 0.48500 0.08800
C 	C 	0.12890 0.00470 0.48330 0.02600
C 	C 	0.27050 0.00830 0.46550 -0.02700
H 	H 	0.32010 0.95510 0.48120 0.05200
H 	H 	0.26490 0.00420 0.42420 0.06100
C 	C 	0.38230 0.09620 0.54010 0.18200
C 	C 	0.43310 0.18410 0.55570 -0.11800
H 	H 	0.44150 0.22840 0.52790 0.10700
C 	C 	0.47060 0.20420 0.61330 -0.02600
C 	C 	0.46050 0.13630 0.65380 -0.01000
H 	H 	0.49010 0.14840 0.69190 0.07200
C 	C 	0.40720 0.05060 0.63860 -0.06200
C 	C 	0.36920 0.03250 0.58200 -0.10900
H 	H 	0.33340 0.97520 0.57170 0.09300
C 	C 	0.51680 0.29820 0.63280 0.33400
C 	C 	0.39500 0.98400 0.68450 0.43100
Cd	Cd	0.43808 0.53609 0.31945 1.26000
O 	O 	0.19010 0.54270 0.31810 -0.31800
O 	O 	0.30480 0.43390 0.36310 -0.34100
O 	O 	0.69080 0.54050 0.31590 -0.32500
O 	O 	0.59460 0.42810 0.35250 -0.35800
O 	O 	0.96110 0.21860 0.43070 -0.22800
O 	O 	0.34350 0.08970 0.48370 -0.21200
O 	O 	0.52190 0.35970 0.59850 -0.34400
O 	O 	0.54800 0.31190 0.68380 -0.37700
O 	O 	0.42420 0.00340 0.73120 -0.45600
O 	O 	0.35180 0.90590 0.67070 -0.26600
C 	C 	0.80470 0.96950 0.15490 0.28400
C 	C 	0.92990 0.92540 0.14030 0.02300
C 	C 	0.05410 0.96570 0.15660 -0.06800
H 	H 	0.05930 0.02110 0.17640 0.09200
C 	C 	0.16920 0.92300 0.14340 0.02300
C 	C 	0.16120 0.83970 0.11540 -0.16600
H 	H 	0.23930 0.80870 0.10900 0.13200
C 	C 	0.03920 0.80270 0.09700 0.22700
C 	C 	0.92230 0.84340 0.10980 -0.16900
H 	H 	0.83970 0.81640 0.09830 0.11900
C 	C 	0.30560 0.96760 0.15960 0.32100
C 	C 	0.92700 0.67120 0.05410 0.02600
H 	H 	0.86850 0.70680 0.02690 0.04600
H 	H 	0.88030 0.66060 0.08740 0.04600
C 	C 	0.95840 0.57830 0.02730 0.02700
C 	C 	0.08610 0.57100 0.00910 -0.08700
H 	H 	0.14430 0.62070 0.01500 0.08800
C 	C 	0.87110 0.50470 0.01670 0.02500
C 	C 	0.72950 0.50830 0.03450 -0.02700
H 	H 	0.67990 0.45510 0.01880 0.05200
H 	H 	0.73510 0.50420 0.07580 0.06100
C 	C 	0.61770 0.59620 0.95990 0.18100
C 	C 	0.56690 0.68410 0.94430 -0.11800
H 	H 	0.55850 0.72840 0.97210 0.10600
C 	C 	0.52940 0.70420 0.88670 -0.02700
C 	C 	0.53950 0.63630 0.84620 -0.00900
H 	H 	0.50990 0.64840 0.80810 0.07200
C 	C 	0.59280 0.55060 0.86140 -0.06400
C 	C 	0.63080 0.53250 0.91800 -0.10800
H 	H 	0.66660 0.47520 0.92830 0.09300
C 	C 	0.48320 0.79820 0.86720 0.33400
C 	C 	0.60500 0.48400 0.81550 0.43300
Cd	Cd	0.56192 0.03609 0.18055 1.25900
O 	O 	0.80990 0.04270 0.18190 -0.32000
O 	O 	0.69520 0.93390 0.13690 -0.34100
O 	O 	0.30920 0.04050 0.18410 -0.32700
O 	O 	0.40540 0.92810 0.14750 -0.35800
O 	O 	0.03890 0.71860 0.06930 -0.22800
O 	O 	0.65650 0.58970 0.01630 -0.21200
O 	O 	0.47810 0.85970 0.90150 -0.34500
O 	O 	0.45200 0.81190 0.81620 -0.37700
O 	O 	0.57580 0.50340 0.76880 -0.45800
O 	O 	0.64820 0.40590 0.82930 -0.26700
C 	C 	0.80470 0.53050 0.65490 0.28200
C 	C 	0.92990 0.57460 0.64030 0.02600
C 	C 	0.05410 0.53430 0.65660 -0.07300
H 	H 	0.05930 0.47890 0.67640 0.09500
C 	C 	0.16920 0.57700 0.64340 0.02500
C 	C 	0.16120 0.66030 0.61540 -0.16800
H 	H 	0.23930 0.69130 0.60900 0.13300
C 	C 	0.03920 0.69730 0.59700 0.22800
C 	C 	0.92230 0.65660 0.60980 -0.17000
H 	H 	0.83970 0.68360 0.59830 0.12000
C 	C 	0.30560 0.53240 0.65960 0.31800
C 	C 	0.92700 0.82880 0.55410 0.02700
H 	H 	0.86850 0.79320 0.52690 0.04600
H 	H 	0.88030 0.83940 0.58740 0.04600
C 	C 	0.95840 0.92170 0.52730 0.02700
C 	C 	0.08610 0.92900 0.50910 -0.08700
H 	H 	0.14430 0.87930 0.51500 0.08800
C 	C 	0.87110 0.99530 0.51670 0.02600
C 	C 	0.72950 0.99170 0.53450 -0.02700
H 	H 	0.67990 0.04490 0.51880 0.05200
H 	H 	0.73510 0.99580 0.57580 0.06100
C 	C 	0.61770 0.90380 0.45990 0.18200
C 	C 	0.56690 0.81590 0.44430 -0.11800
H 	H 	0.55850 0.77160 0.47210 0.10700
C 	C 	0.52940 0.79580 0.38670 -0.02600
C 	C 	0.53950 0.86370 0.34620 -0.01000
H 	H 	0.50990 0.85160 0.30810 0.07200
C 	C 	0.59280 0.94940 0.36140 -0.06200
C 	C 	0.63080 0.96750 0.41800 -0.10900
H 	H 	0.66660 0.02480 0.42830 0.09300
C 	C 	0.48320 0.70180 0.36720 0.33400
C 	C 	0.60500 0.01600 0.31550 0.43100
Cd	Cd	0.56192 0.46391 0.68055 1.26000
O 	O 	0.80990 0.45730 0.68190 -0.31800
O 	O 	0.69520 0.56610 0.63690 -0.34100
O 	O 	0.30920 0.45950 0.68410 -0.32500
O 	O 	0.40540 0.57190 0.64750 -0.35800
O 	O 	0.03890 0.78140 0.56930 -0.22800
O 	O 	0.65650 0.91030 0.51630 -0.21200
O 	O 	0.47810 0.64030 0.40150 -0.34400
O 	O 	0.45200 0.68810 0.31620 -0.37700
O 	O 	0.57580 0.99660 0.26880 -0.45600
O 	O 	0.64820 0.09410 0.32930 -0.26600
C 	C 	0.19530 0.03050 0.84510 0.28400
C 	C 	0.07010 0.07460 0.85970 0.02300
C 	C 	0.94590 0.03430 0.84340 -0.06800
H 	H 	0.94070 0.97890 0.82360 0.09200
C 	C 	0.83080 0.07700 0.85660 0.02300
C 	C 	0.83880 0.16030 0.88460 -0.16600
H 	H 	0.76070 0.19130 0.89100 0.13200
C 	C 	0.96080 0.19730 0.90300 0.22700
C 	C 	0.07770 0.15660 0.89020 -0.16900
H 	H 	0.16030 0.18360 0.90170 0.11900
C 	C 	0.69440 0.03240 0.84040 0.32100
C 	C 	0.07300 0.32880 0.94590 0.02600
H 	H 	0.13150 0.29320 0.97310 0.04600
H 	H 	0.11970 0.33940 0.91260 0.04600
C 	C 	0.04160 0.42170 0.97270 0.02700
C 	C 	0.91390 0.42900 0.99090 -0.08700
H 	H 	0.85570 0.37930 0.98500 0.08800
C 	C 	0.12890 0.49530 0.98330 0.02500
C 	C 	0.27050 0.49170 0.96550 -0.02700
H 	H 	0.32010 0.54490 0.98120 0.05200
H 	H 	0.26490 0.49580 0.92420 0.06100
C 	C 	0.38230 0.40380 0.04010 0.18100
C 	C 	0.43310 0.31590 0.05570 -0.11800
H 	H 	0.44150 0.27160 0.02790 0.10600
C 	C 	0.47060 0.29580 0.11330 -0.02700
C 	C 	0.46050 0.36370 0.15380 -0.00900
H 	H 	0.49010 0.35160 0.19190 0.07200
C 	C 	0.40720 0.44940 0.13860 -0.06400
C 	C 	0.36920 0.46750 0.08200 -0.10800
H 	H 	0.33340 0.52480 0.07170 0.09300
C 	C 	0.51680 0.20180 0.13280 0.33400
C 	C 	0.39500 0.51600 0.18450 0.43300
Cd	Cd	0.43808 0.96391 0.81945 1.25900
O 	O 	0.19010 0.95730 0.81810 -0.32000
O 	O 	0.30480 0.06610 0.86310 -0.34100
O 	O 	0.69080 0.95950 0.81590 -0.32700
O 	O 	0.59460 0.07190 0.85250 -0.35800
O 	O 	0.96110 0.28140 0.93070 -0.22800
O 	O 	0.34350 0.41030 0.98370 -0.21200
O 	O 	0.52190 0.14030 0.09850 -0.34500
O 	O 	0.54800 0.18810 0.18380 -0.37700
O 	O 	0.42420 0.49660 0.23120 -0.45800
O 	O 	0.35180 0.59410 0.17070 -0.26700
