data_crystal

_cell_length_a 26.61520
_cell_length_b 11.74490
_cell_length_c 29.59230
_cell_angle_alpha 90.00000
_cell_angle_beta  90.00000
_cell_angle_gamma 90.00000

_symmetry_space_group_name_	'P 1'
_symmetry_space_group_name_H-M	'P 1'

loop_
_symmetry_equiv_pos_as_xyz
  x,y,z

loop_
_atom_site_label
_atom_site_type_symbol
_atom_site_fract_x
_atom_site_fract_y
_atom_site_fract_z
_atom_site_charge
Cd	Cd	0.72096 0.77963 0.48138 1.17200
Cd	Cd	0.49425 0.26071 0.62239 1.16300
O 	O 	0.72034 0.93840 0.53786 -0.39700
O 	O 	0.67532 0.78590 0.54939 -0.42800
O 	O 	0.56829 0.75710 0.69157 -0.37000
O 	O 	0.54093 0.91990 0.71614 -0.41600
O 	O 	0.57779 0.28700 0.62106 -0.44800
O 	O 	0.55644 0.25220 0.69203 -0.43100
O 	O 	0.64248 0.60750 0.69482 -0.48900
H 	H 	0.62410 0.66550 0.69630 0.30400
O 	O 	0.57754 0.49320 0.68578 -0.34200
O 	O 	0.45892 0.59710 0.71614 -0.41100
O 	O 	0.42733 0.76210 0.69902 -0.37200
O 	O 	0.27549 0.75030 0.58740 -0.38800
O 	O 	0.25963 0.58150 0.56005 -0.43500
O 	O 	0.35581 0.91140 0.70914 -0.48200
H 	H 	0.37390 0.85280 0.70900 0.30300
O 	O 	0.41843 0.02240 0.68600 -0.33700
O 	O 	0.40876 0.23480 0.62355 -0.45700
O 	O 	0.44088 0.26320 0.69120 -0.45000
C 	C 	0.69008 0.88310 0.56112 0.31100
C 	C 	0.66812 0.93590 0.60357 -0.08200
C 	C 	0.63314 0.87590 0.62880 0.00400
H 	H 	0.62410 0.80240 0.62040 0.04400
C 	C 	0.61156 0.92600 0.66672 -0.08900
C 	C 	0.62555 0.03580 0.67925 -0.02800
H 	H 	0.61040 0.06980 0.70420 0.04600
C 	C 	0.66180 0.09560 0.65502 -0.01100
C 	C 	0.68351 0.04400 0.61679 -0.03200
H 	H 	0.70810 0.08220 0.60040 0.04200
C 	C 	0.57145 0.86430 0.69321 0.32100
C 	C 	0.67793 0.21290 0.66833 0.04000
C 	C 	0.64280 0.30210 0.67455 -0.06700
C 	C 	0.65938 0.41100 0.68593 -0.06600
C 	C 	0.71063 0.43140 0.69267 -0.01800
H 	H 	0.72140 0.50350 0.70130 0.05500
C 	C 	0.74514 0.34560 0.68659 -0.02400
H 	H 	0.77920 0.35960 0.69090 0.05200
C 	C 	0.72886 0.23850 0.67395 -0.07700
H 	H 	0.75250 0.18160 0.66900 0.06900
C 	C 	0.58835 0.27940 0.66308 0.33100
C 	C 	0.62220 0.50640 0.68888 0.39600
C 	C 	0.42464 0.65300 0.69889 0.31700
C 	C 	0.38050 0.59360 0.67765 -0.09400
C 	C 	0.35092 0.64870 0.64537 0.00900
H 	H 	0.35750 0.72390 0.63760 0.04200
C 	C 	0.31136 0.59030 0.62473 -0.08500
C 	C 	0.30113 0.47740 0.63726 -0.03500
H 	H 	0.27500 0.43850 0.62320 0.04900
C 	C 	0.32973 0.42200 0.67060 -0.01500
C 	C 	0.36973 0.48220 0.68970 -0.02200
H 	H 	0.38980 0.44630 0.71120 0.04100
C 	C 	0.28031 0.64530 0.58886 0.31200
C 	C 	0.31676 0.30480 0.68559 0.04400
C 	C 	0.35270 0.21580 0.68551 -0.07600
C 	C 	0.33866 0.10710 0.70024 -0.06200
C 	C 	0.29018 0.08810 0.71603 -0.02100
H 	H 	0.28150 0.01690 0.72740 0.05700
C 	C 	0.25445 0.17450 0.71504 -0.01900
H 	H 	0.22180 0.16100 0.72490 0.05400
C 	C 	0.26810 0.28080 0.69920 -0.07800
H 	H 	0.24390 0.33780 0.69760 0.07700
C 	C 	0.37503 0.01090 0.69740 0.38200
C 	C 	0.40462 0.23850 0.66619 0.33400
Cd	Cd	0.77904 0.72037 0.98138 1.17400
Cd	Cd	0.00575 0.23929 0.12239 1.14400
O 	O 	0.77966 0.56160 0.03786 -0.39500
O 	O 	0.82468 0.71410 0.04939 -0.42200
O 	O 	0.93171 0.74290 0.19157 -0.35000
O 	O 	0.95907 0.58010 0.21614 -0.38300
O 	O 	0.92221 0.21300 0.12106 -0.42500
O 	O 	0.94356 0.24780 0.19203 -0.40300
O 	O 	0.85752 0.89250 0.19482 -0.48600
H 	H 	0.87590 0.83450 0.19630 0.30400
O 	O 	0.92246 0.00680 0.18578 -0.32100
O 	O 	0.04108 0.90290 0.21614 -0.43600
O 	O 	0.07267 0.73790 0.19902 -0.38500
O 	O 	0.22451 0.74970 0.08740 -0.39000
O 	O 	0.24037 0.91850 0.06005 -0.43600
O 	O 	0.14419 0.58860 0.20914 -0.48600
H 	H 	0.12610 0.64720 0.20900 0.30400
O 	O 	0.08157 0.47760 0.18600 -0.35000
O 	O 	0.09124 0.26520 0.12355 -0.46900
O 	O 	0.05912 0.23680 0.19120 -0.46600
C 	C 	0.80992 0.61690 0.06112 0.31100
C 	C 	0.83188 0.56410 0.10357 -0.07800
C 	C 	0.86686 0.62410 0.12880 0.00300
H 	H 	0.87590 0.69760 0.12040 0.05000
C 	C 	0.88844 0.57400 0.16672 -0.08100
C 	C 	0.87445 0.46420 0.17925 -0.02900
H 	H 	0.88960 0.43020 0.20420 0.05000
C 	C 	0.83820 0.40440 0.15502 -0.00700
C 	C 	0.81649 0.45600 0.11679 -0.03100
H 	H 	0.79190 0.41780 0.10040 0.04300
C 	C 	0.92855 0.63570 0.19321 0.31600
C 	C 	0.82207 0.28710 0.16833 0.03800
C 	C 	0.85720 0.19790 0.17455 -0.06300
C 	C 	0.84062 0.08900 0.18593 -0.06400
C 	C 	0.78937 0.06860 0.19267 -0.01500
H 	H 	0.77860 0.99650 0.20130 0.05300
C 	C 	0.75486 0.15440 0.18659 -0.02700
H 	H 	0.72080 0.14040 0.19090 0.05400
C 	C 	0.77114 0.26150 0.17395 -0.07500
H 	H 	0.74750 0.31840 0.16900 0.06900
C 	C 	0.91165 0.22060 0.16308 0.32400
C 	C 	0.87780 0.99360 0.18888 0.38900
C 	C 	0.07536 0.84700 0.19889 0.32300
C 	C 	0.11950 0.90640 0.17765 -0.10500
C 	C 	0.14908 0.85130 0.14537 0.01300
H 	H 	0.14250 0.77610 0.13760 0.03600
C 	C 	0.18864 0.90970 0.12473 -0.09200
C 	C 	0.19887 0.02260 0.13726 -0.03000
H 	H 	0.22500 0.06150 0.12320 0.04700
C 	C 	0.17027 0.07800 0.17060 -0.02100
C 	C 	0.13027 0.01780 0.18970 -0.01500
H 	H 	0.11020 0.05370 0.21120 0.03700
C 	C 	0.21969 0.85470 0.08886 0.31300
C 	C 	0.18324 0.19520 0.18559 0.04700
C 	C 	0.14730 0.28420 0.18551 -0.07900
C 	C 	0.16134 0.39290 0.20024 -0.06300
C 	C 	0.20982 0.41190 0.21603 -0.02100
H 	H 	0.21850 0.48310 0.22740 0.05800
C 	C 	0.24555 0.32550 0.21504 -0.01800
H 	H 	0.27820 0.33900 0.22490 0.05300
C 	C 	0.23190 0.21920 0.19920 -0.08000
H 	H 	0.25610 0.16220 0.19760 0.07800
C 	C 	0.12497 0.48910 0.19740 0.38600
C 	C 	0.09538 0.26150 0.16619 0.33800
Cd	Cd	0.27904 0.77963 0.01862 1.17200
Cd	Cd	0.50575 0.26071 0.87761 1.16400
O 	O 	0.27966 0.93840 0.96214 -0.39800
O 	O 	0.32468 0.78590 0.95061 -0.42700
O 	O 	0.43171 0.75710 0.80843 -0.36900
O 	O 	0.45907 0.91990 0.78386 -0.41600
O 	O 	0.42221 0.28700 0.87894 -0.44800
O 	O 	0.44356 0.25220 0.80797 -0.43100
O 	O 	0.35752 0.60750 0.80518 -0.48900
H 	H 	0.37590 0.66550 0.80370 0.30400
O 	O 	0.42246 0.49320 0.81422 -0.34200
O 	O 	0.54108 0.59710 0.78386 -0.41100
O 	O 	0.57267 0.76210 0.80098 -0.37200
O 	O 	0.72451 0.75030 0.91260 -0.38700
O 	O 	0.74037 0.58150 0.93995 -0.43200
O 	O 	0.64419 0.91140 0.79086 -0.48200
H 	H 	0.62610 0.85280 0.79100 0.30300
O 	O 	0.58157 0.02240 0.81400 -0.33700
O 	O 	0.59124 0.23480 0.87645 -0.45700
O 	O 	0.55912 0.26320 0.80880 -0.45000
C 	C 	0.30992 0.88310 0.93888 0.31100
C 	C 	0.33188 0.93590 0.89643 -0.08200
C 	C 	0.36686 0.87590 0.87120 0.00400
H 	H 	0.37590 0.80240 0.87960 0.04400
C 	C 	0.38844 0.92600 0.83328 -0.08900
C 	C 	0.37445 0.03580 0.82075 -0.02900
H 	H 	0.38960 0.06980 0.79580 0.04600
C 	C 	0.33820 0.09560 0.84498 -0.01000
C 	C 	0.31649 0.04400 0.88321 -0.03200
H 	H 	0.29190 0.08220 0.89960 0.04200
C 	C 	0.42855 0.86430 0.80679 0.32100
C 	C 	0.32207 0.21290 0.83167 0.04000
C 	C 	0.35720 0.30210 0.82545 -0.06600
C 	C 	0.34062 0.41100 0.81407 -0.06600
C 	C 	0.28937 0.43140 0.80733 -0.01700
H 	H 	0.27860 0.50350 0.79870 0.05500
C 	C 	0.25486 0.34560 0.81341 -0.02500
H 	H 	0.22080 0.35960 0.80910 0.05300
C 	C 	0.27114 0.23850 0.82605 -0.07600
H 	H 	0.24750 0.18160 0.83100 0.06900
C 	C 	0.41165 0.27940 0.83692 0.33100
C 	C 	0.37780 0.50640 0.81112 0.39600
C 	C 	0.57536 0.65300 0.80111 0.31700
C 	C 	0.61950 0.59360 0.82235 -0.09400
C 	C 	0.64908 0.64870 0.85463 0.00800
H 	H 	0.64250 0.72390 0.86240 0.04200
C 	C 	0.68864 0.59030 0.87527 -0.08400
C 	C 	0.69887 0.47740 0.86274 -0.03600
H 	H 	0.72500 0.43850 0.87680 0.05000
C 	C 	0.67027 0.42200 0.82940 -0.01500
C 	C 	0.63027 0.48220 0.81030 -0.02200
H 	H 	0.61020 0.44630 0.78880 0.04100
C 	C 	0.71969 0.64530 0.91114 0.31100
C 	C 	0.68324 0.30480 0.81441 0.04400
C 	C 	0.64730 0.21580 0.81449 -0.07600
C 	C 	0.66134 0.10710 0.79976 -0.06200
C 	C 	0.70982 0.08810 0.78397 -0.02100
H 	H 	0.71850 0.01690 0.77260 0.05700
C 	C 	0.74555 0.17450 0.78496 -0.01900
H 	H 	0.77820 0.16100 0.77510 0.05300
C 	C 	0.73190 0.28080 0.80080 -0.07800
H 	H 	0.75610 0.33780 0.80240 0.07700
C 	C 	0.62497 0.01090 0.80260 0.38100
C 	C 	0.59538 0.23850 0.83381 0.33400
Cd	Cd	0.22096 0.72037 0.51862 1.17100
Cd	Cd	0.99425 0.23929 0.37761 1.18600
O 	O 	0.22034 0.56160 0.46214 -0.40000
O 	O 	0.17532 0.71410 0.45061 -0.43300
O 	O 	0.06829 0.74290 0.30843 -0.38300
O 	O 	0.04093 0.58010 0.28386 -0.43900
O 	O 	0.07779 0.21300 0.37894 -0.47000
O 	O 	0.05644 0.24780 0.30797 -0.45200
O 	O 	0.14248 0.89250 0.30518 -0.49100
H 	H 	0.12410 0.83450 0.30370 0.30400
O 	O 	0.07754 0.00680 0.31422 -0.35400
O 	O 	0.95892 0.90290 0.28386 -0.37900
O 	O 	0.92733 0.73790 0.30098 -0.35300
O 	O 	0.77549 0.74970 0.41260 -0.38500
O 	O 	0.75963 0.91850 0.43995 -0.43200
O 	O 	0.85581 0.58860 0.29086 -0.48200
H 	H 	0.87390 0.64720 0.29100 0.30400
O 	O 	0.91843 0.47760 0.31400 -0.31900
O 	O 	0.90876 0.26520 0.37645 -0.44400
O 	O 	0.94088 0.23680 0.30880 -0.42600
C 	C 	0.19008 0.61690 0.43888 0.31200
C 	C 	0.16812 0.56410 0.39643 -0.09100
C 	C 	0.13314 0.62410 0.37120 0.01000
H 	H 	0.12410 0.69760 0.37960 0.03700
C 	C 	0.11156 0.57400 0.33328 -0.10100
C 	C 	0.12555 0.46420 0.32075 -0.02200
H 	H 	0.11040 0.43020 0.29580 0.04200
C 	C 	0.16180 0.40440 0.34498 -0.01700
C 	C 	0.18351 0.45600 0.38321 -0.02600
H 	H 	0.20810 0.41780 0.39960 0.03900
C 	C 	0.07145 0.63570 0.30679 0.32600
C 	C 	0.17793 0.28710 0.33167 0.04200
C 	C 	0.14280 0.19790 0.32545 -0.07000
C 	C 	0.15938 0.08900 0.31407 -0.06600
C 	C 	0.21063 0.06860 0.30733 -0.01500
H 	H 	0.22140 0.99650 0.29870 0.05300
C 	C 	0.24514 0.15440 0.31341 -0.02600
H 	H 	0.27920 0.14040 0.30910 0.05300
C 	C 	0.22886 0.26150 0.32605 -0.07800
H 	H 	0.25250 0.31840 0.33100 0.07000
C 	C 	0.08835 0.22060 0.33692 0.33500
C 	C 	0.12220 0.99360 0.31112 0.39600
C 	C 	0.92464 0.84700 0.30111 0.31200
C 	C 	0.88050 0.90640 0.32235 -0.08600
C 	C 	0.85092 0.85130 0.35463 0.00700
H 	H 	0.85750 0.77610 0.36240 0.04600
C 	C 	0.81136 0.90970 0.37527 -0.08200
C 	C 	0.80113 0.02260 0.36274 -0.03600
H 	H 	0.77500 0.06150 0.37680 0.05000
C 	C 	0.82973 0.07800 0.32940 -0.01200
C 	C 	0.86973 0.01780 0.31030 -0.02400
H 	H 	0.88980 0.05370 0.28880 0.04500
C 	C 	0.78031 0.85470 0.41114 0.31200
C 	C 	0.81676 0.19520 0.31441 0.04200
C 	C 	0.85270 0.28420 0.31449 -0.07200
C 	C 	0.83866 0.39290 0.29976 -0.06100
C 	C 	0.79018 0.41190 0.28397 -0.02100
H 	H 	0.78150 0.48310 0.27260 0.05800
C 	C 	0.75445 0.32550 0.28496 -0.01900
H 	H 	0.72180 0.33900 0.27510 0.05400
C 	C 	0.76810 0.21920 0.30080 -0.07700
H 	H 	0.74390 0.16220 0.30240 0.07700
C 	C 	0.87503 0.48910 0.30260 0.38100
C 	C 	0.90462 0.26150 0.33381 0.32800
Cd	Cd	0.50000 0.76026 0.75000 1.24100
K 	K 	0.50000 0.10980 0.75000 0.65500
K 	K 	0.50000 0.40606 0.75000 0.65500
Cd	Cd	0.00000 0.73974 0.25000 1.21900
K 	K 	-0.00000 0.39020 0.25000 0.64000
K 	K 	-0.00000 0.09394 0.25000 0.64000
Cd	Cd	0.27904 0.22037 0.51862 1.17200
Cd	Cd	0.50575 0.73929 0.37761 1.16400
O 	O 	0.27966 0.06160 0.46214 -0.39900
O 	O 	0.32468 0.21410 0.45061 -0.42800
O 	O 	0.43171 0.24290 0.30843 -0.36900
O 	O 	0.45907 0.08010 0.28386 -0.41600
O 	O 	0.42221 0.71300 0.37894 -0.44800
O 	O 	0.44356 0.74780 0.30797 -0.43100
O 	O 	0.35752 0.39250 0.30518 -0.48900
H 	H 	0.37590 0.33450 0.30370 0.30400
O 	O 	0.42246 0.50680 0.31422 -0.34200
O 	O 	0.54108 0.40290 0.28386 -0.41100
O 	O 	0.57267 0.23790 0.30098 -0.37200
O 	O 	0.72451 0.24970 0.41260 -0.38700
O 	O 	0.74037 0.41850 0.43995 -0.43200
O 	O 	0.64419 0.08860 0.29086 -0.48200
H 	H 	0.62610 0.14720 0.29100 0.30300
O 	O 	0.58157 0.97760 0.31400 -0.33700
O 	O 	0.59124 0.76520 0.37645 -0.45700
O 	O 	0.55912 0.73680 0.30880 -0.45000
C 	C 	0.30992 0.11690 0.43888 0.31100
C 	C 	0.33188 0.06410 0.39643 -0.08300
C 	C 	0.36686 0.12410 0.37120 0.00500
H 	H 	0.37590 0.19760 0.37960 0.04400
C 	C 	0.38844 0.07400 0.33328 -0.08900
C 	C 	0.37445 0.96420 0.32075 -0.02800
H 	H 	0.38960 0.93020 0.29580 0.04600
C 	C 	0.33820 0.90440 0.34498 -0.01100
C 	C 	0.31649 0.95600 0.38321 -0.03100
H 	H 	0.29190 0.91780 0.39960 0.04100
C 	C 	0.42855 0.13570 0.30679 0.32200
C 	C 	0.32207 0.78710 0.33167 0.04000
C 	C 	0.35720 0.69790 0.32545 -0.06700
C 	C 	0.34062 0.58900 0.31407 -0.06600
C 	C 	0.28937 0.56860 0.30733 -0.01700
H 	H 	0.27860 0.49650 0.29870 0.05500
C 	C 	0.25486 0.65440 0.31341 -0.02500
H 	H 	0.22080 0.64040 0.30910 0.05300
C 	C 	0.27114 0.76150 0.32605 -0.07700
H 	H 	0.24750 0.81840 0.33100 0.06900
C 	C 	0.41165 0.72060 0.33692 0.33100
C 	C 	0.37780 0.49360 0.31112 0.39600
C 	C 	0.57536 0.34700 0.30111 0.31700
C 	C 	0.61950 0.40640 0.32235 -0.09400
C 	C 	0.64908 0.35130 0.35463 0.00800
H 	H 	0.64250 0.27610 0.36240 0.04200
C 	C 	0.68864 0.40970 0.37527 -0.08400
C 	C 	0.69887 0.52260 0.36274 -0.03600
H 	H 	0.72500 0.56150 0.37680 0.05000
C 	C 	0.67027 0.57800 0.32940 -0.01500
C 	C 	0.63027 0.51780 0.31030 -0.02200
H 	H 	0.61020 0.55370 0.28880 0.04100
C 	C 	0.71969 0.35470 0.41114 0.31100
C 	C 	0.68324 0.69520 0.31441 0.04400
C 	C 	0.64730 0.78420 0.31449 -0.07600
C 	C 	0.66134 0.89290 0.29976 -0.06200
C 	C 	0.70982 0.91190 0.28397 -0.02100
H 	H 	0.71850 0.98310 0.27260 0.05700
C 	C 	0.74555 0.82550 0.28496 -0.01900
H 	H 	0.77820 0.83900 0.27510 0.05300
C 	C 	0.73190 0.71920 0.30080 -0.07800
H 	H 	0.75610 0.66220 0.30240 0.07700
C 	C 	0.62497 0.98910 0.30260 0.38100
C 	C 	0.59538 0.76150 0.33381 0.33400
Cd	Cd	0.22096 0.27963 0.01862 1.17100
Cd	Cd	0.99425 0.76071 0.87761 1.18500
O 	O 	0.22034 0.43840 0.96214 -0.39900
O 	O 	0.17532 0.28590 0.95061 -0.43300
O 	O 	0.06829 0.25710 0.80843 -0.38200
O 	O 	0.04093 0.41990 0.78386 -0.43900
O 	O 	0.07779 0.78700 0.87894 -0.46900
O 	O 	0.05644 0.75220 0.80797 -0.45100
O 	O 	0.14248 0.10750 0.80518 -0.49100
H 	H 	0.12410 0.16550 0.80370 0.30400
O 	O 	0.07754 0.99320 0.81422 -0.35400
O 	O 	0.95892 0.09710 0.78386 -0.37900
O 	O 	0.92733 0.26210 0.80098 -0.35400
O 	O 	0.77549 0.25030 0.91260 -0.38500
O 	O 	0.75963 0.08150 0.93995 -0.43200
O 	O 	0.85581 0.41140 0.79086 -0.48200
H 	H 	0.87390 0.35280 0.79100 0.30400
O 	O 	0.91843 0.52240 0.81400 -0.31900
O 	O 	0.90876 0.73480 0.87645 -0.44400
O 	O 	0.94088 0.76320 0.80880 -0.42700
C 	C 	0.19008 0.38310 0.93888 0.31200
C 	C 	0.16812 0.43590 0.89643 -0.09000
C 	C 	0.13314 0.37590 0.87120 0.00900
H 	H 	0.12410 0.30240 0.87960 0.03800
C 	C 	0.11156 0.42600 0.83328 -0.10100
C 	C 	0.12555 0.53580 0.82075 -0.02200
H 	H 	0.11040 0.56980 0.79580 0.04200
C 	C 	0.16180 0.59560 0.84498 -0.01600
C 	C 	0.18351 0.54400 0.88321 -0.02600
H 	H 	0.20810 0.58220 0.89960 0.03900
C 	C 	0.07145 0.36430 0.80679 0.32600
C 	C 	0.17793 0.71290 0.83167 0.04200
C 	C 	0.14280 0.80210 0.82545 -0.07000
C 	C 	0.15938 0.91100 0.81407 -0.06600
C 	C 	0.21063 0.93140 0.80733 -0.01500
H 	H 	0.22140 0.00350 0.79870 0.05300
C 	C 	0.24514 0.84560 0.81341 -0.02600
H 	H 	0.27920 0.85960 0.80910 0.05300
C 	C 	0.22886 0.73850 0.82605 -0.07800
H 	H 	0.25250 0.68160 0.83100 0.07000
C 	C 	0.08835 0.77940 0.83692 0.33500
C 	C 	0.12220 0.00640 0.81112 0.39500
C 	C 	0.92464 0.15300 0.80111 0.31200
C 	C 	0.88050 0.09360 0.82235 -0.08700
C 	C 	0.85092 0.14870 0.85463 0.00700
H 	H 	0.85750 0.22390 0.86240 0.04600
C 	C 	0.81136 0.09030 0.87527 -0.08300
C 	C 	0.80113 0.97740 0.86274 -0.03500
H 	H 	0.77500 0.93850 0.87680 0.05000
C 	C 	0.82973 0.92200 0.82940 -0.01200
C 	C 	0.86973 0.98220 0.81030 -0.02300
H 	H 	0.88980 0.94630 0.78880 0.04500
C 	C 	0.78031 0.14530 0.91114 0.31200
C 	C 	0.81676 0.80480 0.81441 0.04300
C 	C 	0.85270 0.71580 0.81449 -0.07200
C 	C 	0.83866 0.60710 0.79976 -0.06100
C 	C 	0.79018 0.58810 0.78397 -0.02100
H 	H 	0.78150 0.51690 0.77260 0.05800
C 	C 	0.75445 0.67450 0.78496 -0.01900
H 	H 	0.72180 0.66100 0.77510 0.05400
C 	C 	0.76810 0.78080 0.80080 -0.07700
H 	H 	0.74390 0.83780 0.80240 0.07700
C 	C 	0.87503 0.51090 0.80260 0.38100
C 	C 	0.90462 0.73850 0.83381 0.32800
Cd	Cd	0.72096 0.22037 0.98138 1.17300
Cd	Cd	0.49425 0.73929 0.12239 1.16400
O 	O 	0.72034 0.06160 0.03786 -0.39600
O 	O 	0.67532 0.21410 0.04939 -0.42700
O 	O 	0.56829 0.24290 0.19157 -0.36900
O 	O 	0.54093 0.08010 0.21614 -0.41600
O 	O 	0.57779 0.71300 0.12106 -0.44800
O 	O 	0.55644 0.74780 0.19203 -0.43100
O 	O 	0.64248 0.39250 0.19482 -0.48900
H 	H 	0.62410 0.33450 0.19630 0.30400
O 	O 	0.57754 0.50680 0.18578 -0.34200
O 	O 	0.45892 0.40290 0.21614 -0.41100
O 	O 	0.42733 0.23790 0.19902 -0.37200
O 	O 	0.27549 0.24970 0.08740 -0.38800
O 	O 	0.25963 0.41850 0.06005 -0.43400
O 	O 	0.35581 0.08860 0.20914 -0.48200
H 	H 	0.37390 0.14720 0.20900 0.30300
O 	O 	0.41843 0.97760 0.18600 -0.33700
O 	O 	0.40876 0.76520 0.12355 -0.45700
O 	O 	0.44088 0.73680 0.19120 -0.45000
C 	C 	0.69008 0.11690 0.06112 0.31000
C 	C 	0.66812 0.06410 0.10357 -0.08100
C 	C 	0.63314 0.12410 0.12880 0.00400
H 	H 	0.62410 0.19760 0.12040 0.04400
C 	C 	0.61156 0.07400 0.16672 -0.08800
C 	C 	0.62555 0.96420 0.17925 -0.02900
H 	H 	0.61040 0.93020 0.20420 0.04600
C 	C 	0.66180 0.90440 0.15502 -0.01000
C 	C 	0.68351 0.95600 0.11679 -0.03300
H 	H 	0.70810 0.91780 0.10040 0.04300
C 	C 	0.57145 0.13570 0.19321 0.32100
C 	C 	0.67793 0.78710 0.16833 0.04000
C 	C 	0.64280 0.69790 0.17455 -0.06700
C 	C 	0.65938 0.58900 0.18593 -0.06600
C 	C 	0.71063 0.56860 0.19267 -0.01800
H 	H 	0.72140 0.49650 0.20130 0.05500
C 	C 	0.74514 0.65440 0.18659 -0.02500
H 	H 	0.77920 0.64040 0.19090 0.05200
C 	C 	0.72886 0.76150 0.17395 -0.07700
H 	H 	0.75250 0.81840 0.16900 0.06900
C 	C 	0.58835 0.72060 0.16308 0.33100
C 	C 	0.62220 0.49360 0.18888 0.39600
C 	C 	0.42464 0.34700 0.19889 0.31700
C 	C 	0.38050 0.40640 0.17765 -0.09400
C 	C 	0.35092 0.35130 0.14537 0.00900
H 	H 	0.35750 0.27610 0.13760 0.04200
C 	C 	0.31136 0.40970 0.12473 -0.08500
C 	C 	0.30113 0.52260 0.13726 -0.03500
H 	H 	0.27500 0.56150 0.12320 0.04900
C 	C 	0.32973 0.57800 0.17060 -0.01500
C 	C 	0.36973 0.51780 0.18970 -0.02200
H 	H 	0.38980 0.55370 0.21120 0.04100
C 	C 	0.28031 0.35470 0.08886 0.31200
C 	C 	0.31676 0.69520 0.18559 0.04400
C 	C 	0.35270 0.78420 0.18551 -0.07600
C 	C 	0.33866 0.89290 0.20024 -0.06200
C 	C 	0.29018 0.91190 0.21603 -0.02100
H 	H 	0.28150 0.98310 0.22740 0.05700
C 	C 	0.25445 0.82550 0.21504 -0.01900
H 	H 	0.22180 0.83900 0.22490 0.05400
C 	C 	0.26810 0.71920 0.19920 -0.07800
H 	H 	0.24390 0.66220 0.19760 0.07700
C 	C 	0.37503 0.98910 0.19740 0.38200
C 	C 	0.40462 0.76150 0.16619 0.33400
Cd	Cd	0.77904 0.27963 0.48138 1.17400
Cd	Cd	0.00575 0.76071 0.62239 1.14400
O 	O 	0.77966 0.43840 0.53786 -0.39500
O 	O 	0.82468 0.28590 0.54939 -0.42200
O 	O 	0.93171 0.25710 0.69157 -0.35000
O 	O 	0.95907 0.41990 0.71614 -0.38400
O 	O 	0.92221 0.78700 0.62106 -0.42500
O 	O 	0.94356 0.75220 0.69203 -0.40300
O 	O 	0.85752 0.10750 0.69482 -0.48600
H 	H 	0.87590 0.16550 0.69630 0.30400
O 	O 	0.92246 0.99320 0.68578 -0.32100
O 	O 	0.04108 0.09710 0.71614 -0.43500
O 	O 	0.07267 0.26210 0.69902 -0.38500
O 	O 	0.22451 0.25030 0.58740 -0.39000
O 	O 	0.24037 0.08150 0.56005 -0.43500
O 	O 	0.14419 0.41140 0.70914 -0.48600
H 	H 	0.12610 0.35280 0.70900 0.30400
O 	O 	0.08157 0.52240 0.68600 -0.35000
O 	O 	0.09124 0.73480 0.62355 -0.46900
O 	O 	0.05912 0.76320 0.69120 -0.46600
C 	C 	0.80992 0.38310 0.56112 0.31100
C 	C 	0.83188 0.43590 0.60357 -0.07800
C 	C 	0.86686 0.37590 0.62880 0.00300
H 	H 	0.87590 0.30240 0.62040 0.05000
C 	C 	0.88844 0.42600 0.66672 -0.08100
C 	C 	0.87445 0.53580 0.67925 -0.02800
H 	H 	0.88960 0.56980 0.70420 0.05000
C 	C 	0.83820 0.59560 0.65502 -0.00700
C 	C 	0.81649 0.54400 0.61679 -0.03100
H 	H 	0.79190 0.58220 0.60040 0.04300
C 	C 	0.92855 0.36430 0.69321 0.31600
C 	C 	0.82207 0.71290 0.66833 0.03800
C 	C 	0.85720 0.80210 0.67455 -0.06300
C 	C 	0.84062 0.91100 0.68593 -0.06400
C 	C 	0.78937 0.93140 0.69267 -0.01500
H 	H 	0.77860 0.00350 0.70130 0.05300
C 	C 	0.75486 0.84560 0.68659 -0.02600
H 	H 	0.72080 0.85960 0.69090 0.05300
C 	C 	0.77114 0.73850 0.67395 -0.07500
H 	H 	0.74750 0.68160 0.66900 0.06900
C 	C 	0.91165 0.77940 0.66308 0.32400
C 	C 	0.87780 0.00640 0.68888 0.38900
C 	C 	0.07536 0.15300 0.69889 0.32200
C 	C 	0.11950 0.09360 0.67765 -0.10500
C 	C 	0.14908 0.14870 0.64537 0.01300
H 	H 	0.14250 0.22390 0.63760 0.03600
C 	C 	0.18864 0.09030 0.62473 -0.09100
C 	C 	0.19887 0.97740 0.63726 -0.03100
H 	H 	0.22500 0.93850 0.62320 0.04700
C 	C 	0.17027 0.92200 0.67060 -0.02000
C 	C 	0.13027 0.98220 0.68970 -0.01600
H 	H 	0.11020 0.94630 0.71120 0.03700
C 	C 	0.21969 0.14530 0.58886 0.31200
C 	C 	0.18324 0.80480 0.68559 0.04700
C 	C 	0.14730 0.71580 0.68551 -0.07900
C 	C 	0.16134 0.60710 0.70024 -0.06300
C 	C 	0.20982 0.58810 0.71603 -0.02100
H 	H 	0.21850 0.51690 0.72740 0.05800
C 	C 	0.24555 0.67450 0.71504 -0.01800
H 	H 	0.27820 0.66100 0.72490 0.05300
C 	C 	0.23190 0.78080 0.69920 -0.08000
H 	H 	0.25610 0.83780 0.69760 0.07800
C 	C 	0.12497 0.51090 0.69740 0.38600
C 	C 	0.09538 0.73850 0.66619 0.33800
Cd	Cd	0.50000 0.23974 0.25000 1.24100
K 	K 	0.50000 0.89020 0.25000 0.65500
K 	K 	0.50000 0.59394 0.25000 0.65500
Cd	Cd	-0.00000 0.26026 0.75000 1.22000
K 	K 	-0.00000 0.60980 0.75000 0.64000
K 	K 	-0.00000 0.90606 0.75000 0.64100
