data_crystal

_cell_length_a 20.67400
_cell_length_b 9.95600
_cell_length_c 23.69400
_cell_angle_alpha 90.00000
_cell_angle_beta  101.15400
_cell_angle_gamma 90.00000

_symmetry_space_group_name_	'P 1'
_symmetry_space_group_name_H-M	'P 1'

loop_
_symmetry_equiv_pos_as_xyz
  x,y,z

loop_
_atom_site_label
_atom_site_type_symbol
_atom_site_fract_x
_atom_site_fract_y
_atom_site_fract_z
_atom_site_charge
V 	V 	0.77857 0.09001 0.72247 1.70000
V 	V 	0.67397 0.09421 0.82721 1.70400
V 	V 	0.56010 0.42283 0.93582 1.71300
P 	P 	0.60686 0.12820 0.93943 0.55300
P 	P 	0.68951 0.38410 0.87628 0.56600
P 	P 	0.78557 0.87470 0.82501 0.53900
P 	P 	0.44246 0.31420 0.99566 0.61700
O 	O 	0.73460 0.94590 0.85450 -0.51000
O 	O 	0.74260 0.16340 0.78740 -0.90300
O 	O 	0.63980 0.04830 0.89800 -0.51000
O 	O 	0.65140 0.28950 0.82980 -0.58100
O 	O 	0.64200 0.46270 0.90600 -0.53800
O 	O 	0.51480 0.34130 0.99560 -0.50900
O 	O 	0.43400 0.21310 0.04150 -0.28600
O 	O 	0.40810 0.25240 0.93610 -0.36700
O 	O 	0.59460 0.55600 0.99660 -0.45700
O 	O 	0.56510 0.23990 0.90860 -0.56100
O 	O 	0.73850 0.29870 0.91820 -0.49200
O 	O 	0.65680 0.18540 0.99030 -0.45100
O 	O 	0.56120 0.03310 0.96690 -0.15100
O 	O 	0.72530 0.22280 0.67130 -0.52300
O 	O 	0.76870 0.98580 0.65000 -0.50700
O 	O 	0.77600 0.91580 0.76120 -0.62000
O 	O 	0.85480 0.91070 0.85620 -0.32600
O 	O 	0.72190 0.42710 0.02400 -0.50300
H 	H 	0.68730 0.50190 0.01370 0.18100
H 	H 	0.73310 0.24850 0.78160 0.28100
H 	H 	0.38680 0.31230 0.90900 0.23800
V 	V 	0.27857 0.59001 0.72247 1.70200
V 	V 	0.17397 0.59421 0.82721 1.70400
V 	V 	0.06010 0.92283 0.93582 1.71400
P 	P 	0.10686 0.62820 0.93943 0.55200
P 	P 	0.18951 0.88410 0.87628 0.56600
P 	P 	0.28557 0.37470 0.82501 0.53900
P 	P 	0.94246 0.81420 0.99566 0.61300
O 	O 	0.23460 0.44590 0.85450 -0.51100
O 	O 	0.24260 0.66340 0.78740 -0.90200
O 	O 	0.13980 0.54830 0.89800 -0.50900
O 	O 	0.15140 0.78950 0.82980 -0.58100
O 	O 	0.14200 0.96270 0.90600 -0.53700
O 	O 	0.01480 0.84130 0.99560 -0.50700
O 	O 	0.93400 0.71310 0.04150 -0.28500
O 	O 	0.90810 0.75240 0.93610 -0.36600
O 	O 	0.09460 0.05600 0.99660 -0.45800
O 	O 	0.06510 0.73990 0.90860 -0.56000
O 	O 	0.23850 0.79870 0.91820 -0.49100
O 	O 	0.15680 0.68540 0.99030 -0.45000
O 	O 	0.06120 0.53310 0.96690 -0.15000
O 	O 	0.22530 0.72280 0.67130 -0.52200
O 	O 	0.26870 0.48580 0.65000 -0.50800
O 	O 	0.27600 0.41580 0.76120 -0.62100
O 	O 	0.35480 0.41070 0.85620 -0.32600
O 	O 	0.22190 0.92710 0.02400 -0.50400
H 	H 	0.18730 0.00190 0.01370 0.18200
H 	H 	0.23310 0.74850 0.78160 0.28100
H 	H 	0.88680 0.81230 0.90900 0.23800
V 	V 	0.22143 0.09001 0.77753 1.70100
V 	V 	0.32603 0.09421 0.67279 1.70400
V 	V 	0.43990 0.42283 0.56418 1.70900
P 	P 	0.39314 0.12820 0.56057 0.55600
P 	P 	0.31049 0.38410 0.62372 0.56600
P 	P 	0.21443 0.87470 0.67499 0.53800
P 	P 	0.55754 0.31420 0.50434 0.52100
O 	O 	0.26540 0.94590 0.64550 -0.51400
O 	O 	0.25740 0.16340 0.71260 -0.90400
O 	O 	0.36020 0.04830 0.60200 -0.51400
O 	O 	0.34860 0.28950 0.67020 -0.58100
O 	O 	0.35800 0.46270 0.59400 -0.54900
O 	O 	0.48520 0.34130 0.50440 -0.52200
O 	O 	0.56600 0.21310 0.45850 -0.23200
O 	O 	0.59190 0.25240 0.56390 -0.36800
O 	O 	0.40540 0.55600 0.50340 -0.52500
O 	O 	0.43490 0.23990 0.59140 -0.56400
O 	O 	0.26150 0.29870 0.58180 -0.51500
O 	O 	0.34320 0.18540 0.50970 -0.48400
O 	O 	0.43880 0.03310 0.53310 -0.17200
O 	O 	0.27470 0.22280 0.82870 -0.51900
O 	O 	0.23130 0.98580 0.85000 -0.49900
O 	O 	0.22400 0.91580 0.73880 -0.62000
O 	O 	0.14520 0.91070 0.64380 -0.33200
O 	O 	0.27810 0.42710 0.47600 -0.48400
H 	H 	0.31270 0.50190 0.48630 0.20800
H 	H 	0.26690 0.24850 0.71840 0.28100
H 	H 	0.61320 0.31230 0.59100 0.23100
V 	V 	0.72143 0.59001 0.77753 1.70200
V 	V 	0.82603 0.59421 0.67279 1.70400
V 	V 	0.93990 0.92283 0.56418 1.71000
P 	P 	0.89314 0.62820 0.56057 0.55500
P 	P 	0.81049 0.88410 0.62372 0.56600
P 	P 	0.71443 0.37470 0.67499 0.53800
P 	P 	0.05754 0.81420 0.50434 0.52100
O 	O 	0.76540 0.44590 0.64550 -0.51500
O 	O 	0.75740 0.66340 0.71260 -0.90300
O 	O 	0.86020 0.54830 0.60200 -0.51300
O 	O 	0.84860 0.78950 0.67020 -0.58100
O 	O 	0.85800 0.96270 0.59400 -0.54900
O 	O 	0.98520 0.84130 0.50440 -0.52200
O 	O 	0.06600 0.71310 0.45850 -0.23200
O 	O 	0.09190 0.75240 0.56390 -0.36800
O 	O 	0.90540 0.05600 0.50340 -0.52500
O 	O 	0.93490 0.73990 0.59140 -0.56400
O 	O 	0.76150 0.79870 0.58180 -0.51500
O 	O 	0.84320 0.68540 0.50970 -0.48400
O 	O 	0.93880 0.53310 0.53310 -0.17200
O 	O 	0.77470 0.72280 0.82870 -0.51800
O 	O 	0.73130 0.48580 0.85000 -0.50100
O 	O 	0.72400 0.41580 0.73880 -0.62100
O 	O 	0.64520 0.41070 0.64380 -0.33200
O 	O 	0.77810 0.92710 0.47600 -0.48400
H 	H 	0.81270 0.00190 0.48630 0.20800
H 	H 	0.76690 0.74850 0.71840 0.28100
H 	H 	0.11320 0.81230 0.59100 0.23100
V 	V 	0.22143 0.90999 0.27753 1.70000
V 	V 	0.32603 0.90579 0.17279 1.70300
V 	V 	0.43990 0.57717 0.06418 1.70500
P 	P 	0.39314 0.87180 0.06057 0.55800
P 	P 	0.31049 0.61590 0.12372 0.56500
P 	P 	0.21443 0.12530 0.17499 0.53800
P 	P 	0.55754 0.68580 0.00434 0.42400
O 	O 	0.26540 0.05410 0.14550 -0.51800
O 	O 	0.25740 0.83660 0.21260 -0.90600
O 	O 	0.36020 0.95170 0.10200 -0.51700
O 	O 	0.34860 0.71050 0.17020 -0.58100
O 	O 	0.35800 0.53730 0.09400 -0.56000
O 	O 	0.48520 0.65870 0.00440 -0.53600
O 	O 	0.56600 0.78690 0.95850 -0.17700
O 	O 	0.59190 0.74760 0.06390 -0.37000
O 	O 	0.40540 0.44400 0.00340 -0.59300
O 	O 	0.43490 0.76010 0.09140 -0.56700
O 	O 	0.26150 0.70130 0.08180 -0.53100
O 	O 	0.34320 0.81460 0.00970 -0.51000
O 	O 	0.43880 0.96690 0.03310 -0.19500
O 	O 	0.27470 0.77720 0.32870 -0.52300
O 	O 	0.23130 0.01420 0.35000 -0.50700
O 	O 	0.22400 0.08420 0.23880 -0.62100
O 	O 	0.14520 0.08930 0.14380 -0.33800
O 	O 	0.27810 0.57290 0.97600 -0.45600
H 	H 	0.31270 0.49810 0.98630 0.23200
H 	H 	0.26690 0.75150 0.21840 0.28100
H 	H 	0.61320 0.68770 0.09100 0.22500
V 	V 	0.72143 0.40999 0.27753 1.70100
V 	V 	0.82603 0.40579 0.17279 1.70400
V 	V 	0.93990 0.07717 0.06418 1.70600
P 	P 	0.89314 0.37180 0.06057 0.55800
P 	P 	0.81049 0.11590 0.12372 0.56500
P 	P 	0.71443 0.62530 0.17499 0.53800
P 	P 	0.05754 0.18580 0.00434 0.42400
O 	O 	0.76540 0.55410 0.14550 -0.52000
O 	O 	0.75740 0.33660 0.21260 -0.90500
O 	O 	0.86020 0.45170 0.10200 -0.51700
O 	O 	0.84860 0.21050 0.17020 -0.58100
O 	O 	0.85800 0.03730 0.09400 -0.55900
O 	O 	0.98520 0.15870 0.00440 -0.53400
O 	O 	0.06600 0.28690 0.95850 -0.17800
O 	O 	0.09190 0.24760 0.06390 -0.37000
O 	O 	0.90540 0.94400 0.00340 -0.59200
O 	O 	0.93490 0.26010 0.09140 -0.56700
O 	O 	0.76150 0.20130 0.08180 -0.53000
O 	O 	0.84320 0.31460 0.00970 -0.50900
O 	O 	0.93880 0.46690 0.03310 -0.19400
O 	O 	0.77470 0.27720 0.32870 -0.52300
O 	O 	0.73130 0.51420 0.35000 -0.50800
O 	O 	0.72400 0.58420 0.23880 -0.62200
O 	O 	0.64520 0.58930 0.14380 -0.33900
O 	O 	0.77810 0.07290 0.97600 -0.45800
H 	H 	0.81270 0.99810 0.98630 0.23300
H 	H 	0.76690 0.25150 0.21840 0.28000
H 	H 	0.11320 0.18770 0.09100 0.22500
V 	V 	0.77857 0.90999 0.22247 1.70000
V 	V 	0.67397 0.90579 0.32721 1.70300
V 	V 	0.56010 0.57717 0.43582 1.70900
P 	P 	0.60686 0.87180 0.43943 0.55600
P 	P 	0.68951 0.61590 0.37628 0.56600
P 	P 	0.78557 0.12530 0.32501 0.53800
P 	P 	0.44246 0.68580 0.49566 0.52100
O 	O 	0.73460 0.05410 0.35450 -0.51500
O 	O 	0.74260 0.83660 0.28740 -0.90500
O 	O 	0.63980 0.95170 0.39800 -0.51400
O 	O 	0.65140 0.71050 0.32980 -0.58200
O 	O 	0.64200 0.53730 0.40600 -0.55000
O 	O 	0.51480 0.65870 0.49560 -0.52200
O 	O 	0.43400 0.78690 0.54150 -0.23100
O 	O 	0.40810 0.74760 0.43610 -0.36800
O 	O 	0.59460 0.44400 0.49660 -0.52500
O 	O 	0.56510 0.76010 0.40860 -0.56400
O 	O 	0.73850 0.70130 0.41820 -0.51500
O 	O 	0.65680 0.81460 0.49030 -0.48400
O 	O 	0.56120 0.96690 0.46690 -0.17200
O 	O 	0.72530 0.77720 0.17130 -0.52800
O 	O 	0.76870 0.01420 0.15000 -0.51300
O 	O 	0.77600 0.08420 0.26120 -0.62100
O 	O 	0.85480 0.08930 0.35620 -0.33200
O 	O 	0.72190 0.57290 0.52400 -0.48400
H 	H 	0.68730 0.49810 0.51370 0.20800
H 	H 	0.73310 0.75150 0.28160 0.28100
H 	H 	0.38680 0.68770 0.40900 0.23100
V 	V 	0.27857 0.40999 0.22247 1.70100
V 	V 	0.17397 0.40579 0.32721 1.70400
V 	V 	0.06010 0.07717 0.43582 1.70900
P 	P 	0.10686 0.37180 0.43943 0.55600
P 	P 	0.18951 0.11590 0.37628 0.56600
P 	P 	0.28557 0.62530 0.32501 0.53800
P 	P 	0.94246 0.18580 0.49566 0.52100
O 	O 	0.23460 0.55410 0.35450 -0.51600
O 	O 	0.24260 0.33660 0.28740 -0.90400
O 	O 	0.13980 0.45170 0.39800 -0.51300
O 	O 	0.15140 0.21050 0.32980 -0.58200
O 	O 	0.14200 0.03730 0.40600 -0.54900
O 	O 	0.01480 0.15870 0.49560 -0.52200
O 	O 	0.93400 0.28690 0.54150 -0.23200
O 	O 	0.90810 0.24760 0.43610 -0.36800
O 	O 	0.09460 0.94400 0.49660 -0.52500
O 	O 	0.06510 0.26010 0.40860 -0.56400
O 	O 	0.23850 0.20130 0.41820 -0.51500
O 	O 	0.15680 0.31460 0.49030 -0.48400
O 	O 	0.06120 0.46690 0.46690 -0.17200
O 	O 	0.22530 0.27720 0.17130 -0.52700
O 	O 	0.26870 0.51420 0.15000 -0.51500
O 	O 	0.27600 0.58420 0.26120 -0.62300
O 	O 	0.35480 0.58930 0.35620 -0.33300
O 	O 	0.22190 0.07290 0.52400 -0.48500
H 	H 	0.18730 0.99810 0.51370 0.20800
H 	H 	0.23310 0.25150 0.28160 0.28100
H 	H 	0.88680 0.18770 0.40900 0.23100
V 	V 	0.75000 0.25000 -0.00000 1.77200
V 	V 	0.25000 0.25000 0.50000 1.79800
V 	V 	0.25000 0.75000 -0.00000 1.77100
V 	V 	0.75000 0.75000 0.50000 1.79800
