data_crystal

_cell_length_a 14.68140
_cell_length_b 24.28870
_cell_length_c 9.96090
_cell_angle_alpha 90.00000
_cell_angle_beta  98.39200
_cell_angle_gamma 90.00000

_symmetry_space_group_name_	'P 1'
_symmetry_space_group_name_H-M	'P 1'

loop_
_symmetry_equiv_pos_as_xyz
  x,y,z

loop_
_atom_site_label
_atom_site_type_symbol
_atom_site_fract_x
_atom_site_fract_y
_atom_site_fract_z
_atom_site_charge
Zn	Zn	0.42710 0.12449 0.12505 1.16500
Zn	Zn	0.19940 0.18591 0.56240 1.17000
C 	C 	0.05900 0.04948 0.65670 -0.12300
C 	C 	0.98330 0.04932 0.72630 0.07900
H 	H 	0.95780 0.08240 0.74920 0.02200
C 	C 	0.10140 0.10277 0.62150 0.34100
O 	O 	0.16260 0.10219 0.54670 -0.44500
O 	O 	0.07720 0.14715 0.66960 -0.40400
O 	O 	0.85670 0.05020 0.92910 -0.27600
N 	N 	0.55820 0.15048 0.15820 -0.27900
N 	N 	0.62000 0.14039 0.06780 -0.29400
N 	N 	0.69910 0.16650 0.26520 -0.28100
C 	C 	0.70280 0.15003 0.13630 0.19500
C 	C 	0.60850 0.16577 0.27160 0.09400
H 	H 	0.58370 0.17520 0.34920 -0.05700
C 	C 	0.36690 0.22106 0.27400 0.09400
H 	H 	0.39690 0.24510 0.22240 -0.05200
N 	N 	0.36380 0.16617 0.25520 -0.32500
N 	N 	0.28860 0.18956 0.42380 -0.28300
C 	C 	0.31500 0.14845 0.35100 0.19500
N 	N 	0.32310 0.23696 0.37280 -0.27100
N 	N 	0.43250 0.04515 0.16170 -0.31200
N 	N 	0.78280 0.14430 0.08110 -0.34200
H 	H 	0.78070 0.13400 0.99810 0.14600
H 	H 	0.83510 0.15110 0.12960 0.16200
N 	N 	0.30210 0.09550 0.37800 -0.35500
H 	H 	0.27520 0.08640 0.44600 0.16600
H 	H 	0.32060 0.07030 0.32750 0.15700
C 	C 	0.48190 0.02620 0.28610 0.03300
N 	N 	0.48190 0.97380 0.28610 -0.10500
Zn	Zn	0.92710 0.62449 0.12505 1.16500
Zn	Zn	0.69940 0.68591 0.56240 1.17000
C 	C 	0.55900 0.54948 0.65670 -0.12200
C 	C 	0.48330 0.54932 0.72630 0.07500
H 	H 	0.45780 0.58240 0.74920 0.02400
C 	C 	0.60140 0.60277 0.62150 0.34200
O 	O 	0.66260 0.60219 0.54670 -0.44400
O 	O 	0.57720 0.64715 0.66960 -0.40300
O 	O 	0.35670 0.55020 0.92910 -0.27800
N 	N 	0.05820 0.65048 0.15820 -0.27700
N 	N 	0.12000 0.64039 0.06780 -0.29200
N 	N 	0.19910 0.66650 0.26520 -0.28100
C 	C 	0.20280 0.65003 0.13630 0.19600
C 	C 	0.10850 0.66577 0.27160 0.09400
H 	H 	0.08370 0.67520 0.34920 -0.05700
C 	C 	0.86690 0.72106 0.27400 0.09400
H 	H 	0.89690 0.74510 0.22240 -0.05300
N 	N 	0.86380 0.66617 0.25520 -0.32500
N 	N 	0.78860 0.68956 0.42380 -0.28300
C 	C 	0.81500 0.64845 0.35100 0.19500
N 	N 	0.82310 0.73696 0.37280 -0.27100
N 	N 	0.93250 0.54515 0.16170 -0.31600
N 	N 	0.28280 0.64430 0.08110 -0.33800
H 	H 	0.28070 0.63400 0.99810 0.14200
H 	H 	0.33510 0.65110 0.12960 0.16200
N 	N 	0.80210 0.59550 0.37800 -0.35500
H 	H 	0.77520 0.58640 0.44600 0.16700
H 	H 	0.82060 0.57030 0.32750 0.15800
C 	C 	0.98190 0.52620 0.28610 0.04600
N 	N 	0.98190 0.47380 0.28610 -0.11600
Zn	Zn	0.57290 0.12449 0.87495 1.16600
Zn	Zn	0.80060 0.18591 0.43760 1.17100
C 	C 	0.94100 0.04948 0.34330 -0.12200
C 	C 	0.01670 0.04932 0.27370 0.08000
H 	H 	0.04220 0.08240 0.25080 0.02300
C 	C 	0.89860 0.10277 0.37850 0.34200
O 	O 	0.83740 0.10219 0.45330 -0.44400
O 	O 	0.92280 0.14715 0.33040 -0.40300
O 	O 	0.14330 0.05020 0.07090 -0.27500
N 	N 	0.44180 0.15048 0.84180 -0.27800
N 	N 	0.38000 0.14039 0.93220 -0.29400
N 	N 	0.30090 0.16650 0.73480 -0.28100
C 	C 	0.29720 0.15003 0.86370 0.19500
C 	C 	0.39150 0.16577 0.72840 0.09400
H 	H 	0.41630 0.17520 0.65080 -0.05700
C 	C 	0.63310 0.22106 0.72600 0.09400
H 	H 	0.60310 0.24510 0.77760 -0.05200
N 	N 	0.63620 0.16617 0.74480 -0.32500
N 	N 	0.71140 0.18956 0.57620 -0.28300
C 	C 	0.68500 0.14845 0.64900 0.19500
N 	N 	0.67690 0.23696 0.62720 -0.27100
N 	N 	0.56750 0.04515 0.83830 -0.31200
N 	N 	0.21720 0.14430 0.91890 -0.34200
H 	H 	0.21930 0.13400 0.00190 0.14600
H 	H 	0.16490 0.15110 0.87040 0.16200
N 	N 	0.69790 0.09550 0.62200 -0.35500
H 	H 	0.72480 0.08640 0.55400 0.16600
H 	H 	0.67940 0.07030 0.67250 0.15700
C 	C 	0.51810 0.02620 0.71390 0.03300
N 	N 	0.51810 0.97380 0.71390 -0.10500
Zn	Zn	0.07290 0.62449 0.87495 1.16500
Zn	Zn	0.30060 0.68591 0.43760 1.17000
C 	C 	0.44100 0.54948 0.34330 -0.12200
C 	C 	0.51670 0.54932 0.27370 0.07500
H 	H 	0.54220 0.58240 0.25080 0.02400
C 	C 	0.39860 0.60277 0.37850 0.34200
O 	O 	0.33740 0.60219 0.45330 -0.44400
O 	O 	0.42280 0.64715 0.33040 -0.40300
O 	O 	0.64330 0.55020 0.07090 -0.27800
N 	N 	0.94180 0.65048 0.84180 -0.27700
N 	N 	0.88000 0.64039 0.93220 -0.29200
N 	N 	0.80090 0.66650 0.73480 -0.28100
C 	C 	0.79720 0.65003 0.86370 0.19600
C 	C 	0.89150 0.66577 0.72840 0.09400
H 	H 	0.91630 0.67520 0.65080 -0.05700
C 	C 	0.13310 0.72106 0.72600 0.09400
H 	H 	0.10310 0.74510 0.77760 -0.05300
N 	N 	0.13620 0.66617 0.74480 -0.32500
N 	N 	0.21140 0.68956 0.57620 -0.28300
C 	C 	0.18500 0.64845 0.64900 0.19500
N 	N 	0.17690 0.73696 0.62720 -0.27100
N 	N 	0.06750 0.54515 0.83830 -0.31600
N 	N 	0.71720 0.64430 0.91890 -0.33800
H 	H 	0.71930 0.63400 0.00190 0.14200
H 	H 	0.66490 0.65110 0.87040 0.16200
N 	N 	0.19790 0.59550 0.62200 -0.35500
H 	H 	0.22480 0.58640 0.55400 0.16700
H 	H 	0.17940 0.57030 0.67250 0.15800
C 	C 	0.01810 0.52620 0.71390 0.04600
N 	N 	0.01810 0.47380 0.71390 -0.11600
Zn	Zn	0.57290 0.87551 0.87495 1.16800
Zn	Zn	0.80060 0.81409 0.43760 1.17100
C 	C 	0.94100 0.95052 0.34330 -0.11100
C 	C 	0.01670 0.95068 0.27370 0.09400
H 	H 	0.04220 0.91760 0.25080 0.01900
C 	C 	0.89860 0.89723 0.37850 0.34000
O 	O 	0.83740 0.89781 0.45330 -0.44000
O 	O 	0.92280 0.85285 0.33040 -0.40300
O 	O 	0.14330 0.94980 0.07090 -0.26300
N 	N 	0.44180 0.84952 0.84180 -0.27500
N 	N 	0.38000 0.85961 0.93220 -0.29200
N 	N 	0.30090 0.83350 0.73480 -0.28100
C 	C 	0.29720 0.84997 0.86370 0.19700
C 	C 	0.39150 0.83423 0.72840 0.09700
H 	H 	0.41630 0.82480 0.65080 -0.05500
C 	C 	0.63310 0.77894 0.72600 0.09400
H 	H 	0.60310 0.75490 0.77760 -0.05200
N 	N 	0.63620 0.83383 0.74480 -0.32400
N 	N 	0.71140 0.81044 0.57620 -0.28300
C 	C 	0.68500 0.85155 0.64900 0.19900
N 	N 	0.67690 0.76304 0.62720 -0.27100
N 	N 	0.56750 0.95485 0.83830 -0.27600
N 	N 	0.21720 0.85570 0.91890 -0.34200
H 	H 	0.21930 0.86600 0.00190 0.14700
H 	H 	0.16490 0.84890 0.87040 0.16200
N 	N 	0.69790 0.90450 0.62200 -0.35800
H 	H 	0.72480 0.91360 0.55400 0.17300
H 	H 	0.67940 0.92970 0.67250 0.16800
Zn	Zn	0.07290 0.37551 0.87495 1.16600
Zn	Zn	0.30060 0.31409 0.43760 1.17100
C 	C 	0.44100 0.45052 0.34330 -0.12100
C 	C 	0.51670 0.45068 0.27370 0.07500
H 	H 	0.54220 0.41760 0.25080 0.02400
C 	C 	0.39860 0.39723 0.37850 0.34200
O 	O 	0.33740 0.39781 0.45330 -0.44400
O 	O 	0.42280 0.35285 0.33040 -0.40300
O 	O 	0.64330 0.44980 0.07090 -0.27800
N 	N 	0.94180 0.34952 0.84180 -0.27400
N 	N 	0.88000 0.35961 0.93220 -0.29200
N 	N 	0.80090 0.33350 0.73480 -0.28100
C 	C 	0.79720 0.34997 0.86370 0.19600
C 	C 	0.89150 0.33423 0.72840 0.09700
H 	H 	0.91630 0.32480 0.65080 -0.05500
C 	C 	0.13310 0.27894 0.72600 0.09400
H 	H 	0.10310 0.25490 0.77760 -0.05300
N 	N 	0.13620 0.33383 0.74480 -0.32400
N 	N 	0.21140 0.31044 0.57620 -0.28300
C 	C 	0.18500 0.35155 0.64900 0.19800
N 	N 	0.17690 0.26304 0.62720 -0.27100
N 	N 	0.06750 0.45485 0.83830 -0.28600
N 	N 	0.71720 0.35570 0.91890 -0.33800
H 	H 	0.71930 0.36600 0.00190 0.14200
H 	H 	0.66490 0.34890 0.87040 0.16200
N 	N 	0.19790 0.40450 0.62200 -0.35600
H 	H 	0.22480 0.41360 0.55400 0.16900
H 	H 	0.17940 0.42970 0.67250 0.16400
Zn	Zn	0.42710 0.87551 0.12505 1.16800
Zn	Zn	0.19940 0.81409 0.56240 1.17100
C 	C 	0.05900 0.95052 0.65670 -0.11100
C 	C 	0.98330 0.95068 0.72630 0.09400
H 	H 	0.95780 0.91760 0.74920 0.01900
C 	C 	0.10140 0.89723 0.62150 0.34000
O 	O 	0.16260 0.89781 0.54670 -0.44000
O 	O 	0.07720 0.85285 0.66960 -0.40300
O 	O 	0.85670 0.94980 0.92910 -0.26300
N 	N 	0.55820 0.84952 0.15820 -0.27500
N 	N 	0.62000 0.85961 0.06780 -0.29200
N 	N 	0.69910 0.83350 0.26520 -0.28100
C 	C 	0.70280 0.84997 0.13630 0.19700
C 	C 	0.60850 0.83423 0.27160 0.09700
H 	H 	0.58370 0.82480 0.34920 -0.05500
C 	C 	0.36690 0.77894 0.27400 0.09400
H 	H 	0.39690 0.75490 0.22240 -0.05200
N 	N 	0.36380 0.83383 0.25520 -0.32400
N 	N 	0.28860 0.81044 0.42380 -0.28300
C 	C 	0.31500 0.85155 0.35100 0.19900
N 	N 	0.32310 0.76304 0.37280 -0.27100
N 	N 	0.43250 0.95485 0.16170 -0.27600
N 	N 	0.78280 0.85570 0.08110 -0.34200
H 	H 	0.78070 0.86600 0.99810 0.14700
H 	H 	0.83510 0.84890 0.12960 0.16200
N 	N 	0.30210 0.90450 0.37800 -0.35800
H 	H 	0.27520 0.91360 0.44600 0.17300
H 	H 	0.32060 0.92970 0.32750 0.16800
Zn	Zn	0.92710 0.37551 0.12505 1.16600
Zn	Zn	0.69940 0.31409 0.56240 1.17100
C 	C 	0.55900 0.45052 0.65670 -0.12100
C 	C 	0.48330 0.45068 0.72630 0.07500
H 	H 	0.45780 0.41760 0.74920 0.02400
C 	C 	0.60140 0.39723 0.62150 0.34200
O 	O 	0.66260 0.39781 0.54670 -0.44400
O 	O 	0.57720 0.35285 0.66960 -0.40300
O 	O 	0.35670 0.44980 0.92910 -0.27800
N 	N 	0.05820 0.34952 0.15820 -0.27400
N 	N 	0.12000 0.35961 0.06780 -0.29200
N 	N 	0.19910 0.33350 0.26520 -0.28100
C 	C 	0.20280 0.34997 0.13630 0.19600
C 	C 	0.10850 0.33423 0.27160 0.09700
H 	H 	0.08370 0.32480 0.34920 -0.05500
C 	C 	0.86690 0.27894 0.27400 0.09400
H 	H 	0.89690 0.25490 0.22240 -0.05300
N 	N 	0.86380 0.33383 0.25520 -0.32400
N 	N 	0.78860 0.31044 0.42380 -0.28300
C 	C 	0.81500 0.35155 0.35100 0.19800
N 	N 	0.82310 0.26304 0.37280 -0.27100
N 	N 	0.93250 0.45485 0.16170 -0.28600
N 	N 	0.28280 0.35570 0.08110 -0.33800
H 	H 	0.28070 0.36600 0.99810 0.14200
H 	H 	0.33510 0.34890 0.12960 0.16200
N 	N 	0.80210 0.40450 0.37800 -0.35600
H 	H 	0.77520 0.41360 0.44600 0.16900
H 	H 	0.82060 0.42970 0.32750 0.16400
S 	S 	0.85032 0.00000 0.85170 0.51500
C 	C 	0.94620 0.00000 0.76140 -0.13400
C 	C 	0.09620 0.00000 0.62100 0.04700
H 	H 	0.14610 0.00000 0.57320 0.04100
O 	O 	0.77020 0.00000 0.75190 -0.30100
C 	C 	0.40860 0.00000 0.09680 0.17300
N 	N 	0.35540 0.00000 0.96840 -0.16700
S 	S 	0.35032 0.50000 0.85170 0.53100
C 	C 	0.44620 0.50000 0.76140 -0.11800
C 	C 	0.59620 0.50000 0.62100 0.06700
H 	H 	0.64610 0.50000 0.57320 0.03900
O 	O 	0.27020 0.50000 0.75190 -0.29800
C 	C 	0.90860 0.50000 0.09680 0.18300
N 	N 	0.85540 0.50000 0.96840 -0.16100
S 	S 	0.14968 0.00000 0.14830 0.51500
C 	C 	0.05380 0.00000 0.23860 -0.13400
C 	C 	0.90380 0.00000 0.37900 0.04700
H 	H 	0.85390 0.00000 0.42680 0.04100
O 	O 	0.22980 0.00000 0.24810 -0.30100
C 	C 	0.59140 -0.00000 0.90320 0.17300
N 	N 	0.64460 0.00000 0.03160 -0.16700
S 	S 	0.64968 0.50000 0.14830 0.53100
C 	C 	0.55380 0.50000 0.23860 -0.11800
C 	C 	0.40380 0.50000 0.37900 0.06700
H 	H 	0.35390 0.50000 0.42680 0.03900
O 	O 	0.72980 0.50000 0.24810 -0.29800
C 	C 	0.09140 0.50000 0.90320 0.18300
N 	N 	0.14460 0.50000 0.03160 -0.16100
