data_crystal

_cell_length_a 20.25870
_cell_length_b 21.50100
_cell_length_c 22.38790
_cell_angle_alpha 110.79800
_cell_angle_beta  108.64200
_cell_angle_gamma 106.05400

_symmetry_space_group_name_	'P 1'
_symmetry_space_group_name_H-M	'P 1'

loop_
_symmetry_equiv_pos_as_xyz
  x,y,z

loop_
_atom_site_label
_atom_site_type_symbol
_atom_site_fract_x
_atom_site_fract_y
_atom_site_fract_z
_atom_site_charge
Zn	Zn	0.37608 0.61675 0.43208 1.21400
Zn	Zn	0.26310 0.67858 0.36153 1.23000
Zn	Zn	0.55600 0.81533 0.43208 1.21400
Zn	Zn	0.59843 0.68295 0.36153 1.23000
Zn	Zn	0.40162 0.65162 0.30324 1.21900
H 	H 	0.58660 0.90900 0.62220 0.01300
H 	H 	0.79630 0.09160 0.99240 0.08800
H 	H 	0.06990 0.04410 0.94400 0.08800
H 	H 	0.65070 0.97190 0.74820 0.07600
H 	H 	0.00120 0.84650 0.94120 0.08900
H 	H 	0.16040 0.03500 0.12820 0.08700
H 	H 	0.73870 0.90120 0.64020 0.01900
H 	H 	0.78790 0.73120 0.55540 0.02400
H 	H 	0.29620 0.28000 0.25880 0.08700
H 	H 	0.83360 0.93930 0.75420 0.07800
H 	H 	0.36080 0.40770 0.32680 0.00800
H 	H 	0.08630 0.27650 0.23300 0.08100
H 	H 	0.26630 0.80670 0.25040 0.03200
H 	H 	0.88180 0.76870 0.66980 0.08100
H 	H 	0.19180 0.39390 0.30280 0.01900
H 	H 	0.04930 0.48490 0.25140 0.02700
H 	H 	0.27800 0.42500 0.14940 0.01500
H 	H 	0.23640 0.86210 0.17900 0.07500
H 	H 	0.94300 0.37000 0.18760 0.08100
H 	H 	0.05160 0.73870 0.22900 0.03200
H 	H 	0.01940 0.79320 0.15740 0.07400
H 	H 	0.22270 0.29820 0.07960 0.08400
H 	H 	0.53560 0.71320 0.62220 0.01200
H 	H 	0.69610 0.90080 0.99240 0.08800
H 	H 	0.37410 0.89990 0.94400 0.08900
H 	H 	0.59750 0.77630 0.74820 0.07600
H 	H 	0.44000 0.09470 0.94120 0.08900
H 	H 	0.46780 0.09320 0.12820 0.08800
H 	H 	0.40150 0.73900 0.64020 0.01900
H 	H 	0.26750 0.82420 0.55540 0.02400
H 	H 	0.46260 0.97880 0.25880 0.08700
H 	H 	0.42060 0.81490 0.75420 0.07800
H 	H 	0.46600 0.91910 0.32680 0.00800
H 	H 	0.64670 0.95650 0.23300 0.08100
H 	H 	0.48410 0.44370 0.25040 0.03200
H 	H 	0.28800 0.90110 0.66980 0.08100
H 	H 	0.61100 0.90890 0.30280 0.01900
H 	H 	0.70210 0.76650 0.25140 0.02700
H 	H 	0.37140 0.72440 0.14940 0.01500
H 	H 	0.44260 0.31690 0.17900 0.07500
H 	H 	0.74460 0.81760 0.18760 0.08200
H 	H 	0.67740 0.49030 0.22900 0.03200
H 	H 	0.63800 0.36420 0.15740 0.07500
H 	H 	0.35690 0.78140 0.07960 0.08400
H 	H 	0.84110 0.09110 0.18220 0.09000
C 	C 	0.36330 0.51194 0.28888 0.40400
C 	C 	0.58917 0.88194 0.64776 0.06200
C 	C 	0.78946 0.06539 0.01808 -0.15000
C 	C 	0.07221 0.01611 0.96866 -0.14800
C 	C 	0.97225 0.90524 0.85612 -0.03400
C 	C 	0.75325 0.81130 0.58624 -0.14900
C 	C 	0.12186 0.05187 0.04254 0.09900
C 	C 	0.82939 0.10304 0.09410 0.10100
C 	C 	0.62695 0.91929 0.72270 -0.13500
C 	C 	0.03154 0.89873 0.96688 -0.15100
C 	C 	0.16801 0.13069 0.08242 -0.03000
C 	C 	0.12639 0.01081 0.07798 -0.15200
C 	C 	0.88762 0.17861 0.13226 -0.03500
C 	C 	0.19987 0.52627 0.32664 0.41800
C 	C 	0.32657 0.42906 0.24530 -0.16400
C 	C 	0.86687 0.85628 0.72376 0.08800
C 	C 	0.76761 0.87391 0.64612 0.07200
C 	C 	0.08169 0.93452 0.04076 0.09600
C 	C 	0.02606 0.93993 0.93062 0.10100
C 	C 	0.09176 0.89403 0.07964 -0.04100
C 	C 	0.93879 0.23949 0.16494 -0.02800
C 	C 	0.00427 0.31197 0.20520 0.08700
C 	C 	0.20533 0.19603 0.11856 -0.03900
C 	C 	0.79646 0.77336 0.59594 0.07500
C 	C 	0.29209 0.30909 0.23552 -0.16100
C 	C 	0.82382 0.89632 0.71382 -0.13600
C 	C 	0.33062 0.38532 0.27596 0.09100
C 	C 	0.07821 0.31911 0.23796 -0.14000
C 	C 	0.13112 0.45074 0.28400 -0.14600
C 	C 	0.92538 0.88128 0.79450 -0.03200
C 	C 	0.24786 0.27486 0.16194 0.10200
C 	C 	0.21574 0.80384 0.23130 0.05200
C 	C 	0.16256 0.76836 0.24604 -0.11800
C 	C 	0.85262 0.79589 0.66428 -0.14100
C 	C 	0.12541 0.83201 0.15980 0.07600
C 	C 	0.14118 0.38908 0.27860 0.07200
C 	C 	0.05688 0.44258 0.24894 0.07000
C 	C 	0.28331 0.39541 0.17196 0.08800
C 	C 	0.19787 0.83657 0.18832 -0.12600
C 	C 	0.99374 0.37434 0.21044 -0.13600
C 	C 	0.10633 0.86613 0.11536 -0.02600
C 	C 	0.08919 0.76389 0.21858 0.04800
C 	C 	0.06989 0.79579 0.17578 -0.12100
C 	C 	0.24785 0.32005 0.13078 -0.15600
C 	C 	0.69149 0.78729 0.51344 0.41800
C 	C 	0.18267 0.73227 0.29274 0.36700
C 	C 	0.42558 0.77694 0.28888 0.40400
C 	C 	0.55859 0.76582 0.64776 0.06200
C 	C 	0.72862 0.95269 0.01808 -0.15000
C 	C 	0.39645 0.95255 0.96866 -0.15000
C 	C 	0.38387 0.95088 0.85612 -0.03300
C 	C 	0.33299 0.77494 0.58624 -0.14900
C 	C 	0.42068 0.99067 0.04254 0.10100
C 	C 	0.76471 0.99106 0.09410 0.10000
C 	C 	0.59575 0.80341 0.72270 -0.13500
C 	C 	0.43534 0.06815 0.96688 -0.15300
C 	C 	0.41441 0.95173 0.08242 -0.03000
C 	C 	0.45159 0.06717 0.07798 -0.15400
C 	C 	0.74464 0.95365 0.13226 -0.03400
C 	C 	0.62677 0.80037 0.32664 0.41800
C 	C 	0.41873 0.81624 0.24530 -0.16400
C 	C 	0.35689 0.86748 0.72376 0.08900
C 	C 	0.37851 0.77221 0.64612 0.07200
C 	C 	0.45907 0.10624 0.04076 0.09900
C 	C 	0.40456 0.99069 0.93062 0.10200
C 	C 	0.48788 0.18561 0.07964 -0.04100
C 	C 	0.72615 0.92545 0.16494 -0.03000
C 	C 	0.70093 0.89323 0.20520 0.09100
C 	C 	0.41323 0.92253 0.11856 -0.03800
C 	C 	0.29948 0.82258 0.59594 0.07500
C 	C 	0.44343 0.92643 0.23552 -0.16100
C 	C 	0.39000 0.81750 0.71382 -0.13600
C 	C 	0.44534 0.89064 0.27596 0.09100
C 	C 	0.65975 0.91885 0.23796 -0.14200
C 	C 	0.65288 0.83326 0.28400 -0.14800
C 	C 	0.36912 0.91322 0.79450 -0.03200
C 	C 	0.41408 0.88708 0.16194 0.10100
C 	C 	0.51556 0.42746 0.23130 0.05200
C 	C 	0.58348 0.47768 0.24604 -0.11800
C 	C 	0.31166 0.86839 0.66428 -0.14100
C 	C 	0.53439 0.32779 0.15980 0.07600
C 	C 	0.63742 0.88952 0.27860 0.07400
C 	C 	0.69206 0.80636 0.24894 0.07300
C 	C 	0.38865 0.77655 0.17196 0.08800
C 	C 	0.49045 0.35175 0.18832 -0.12600
C 	C 	0.71670 0.83610 0.21044 -0.14000
C 	C 	0.50903 0.24923 0.11536 -0.02500
C 	C 	0.62939 0.45469 0.21858 0.04800
C 	C 	0.60589 0.37999 0.17578 -0.12100
C 	C 	0.38293 0.81073 0.13078 -0.15500
C 	C 	0.32195 0.72615 0.51344 0.41800
C 	C 	0.61007 0.56047 0.29274 0.36700
C 	C 	0.66925 0.91925 0.83850 -0.03100
C 	C 	0.74033 0.99033 0.98066 0.10200
C 	C 	0.55504 0.80504 0.61008 -0.13300
C 	C 	0.70139 0.95139 0.90278 -0.03400
C 	C 	0.81544 0.06544 0.13088 -0.15600
C 	C 	0.63030 0.88030 0.76060 0.08200
C 	C 	0.51462 0.76462 0.52924 0.36000
O 	O 	0.49766 0.69638 0.49736 -0.41100
O 	O 	0.36472 0.67794 0.37892 -0.65800
O 	O 	0.65570 0.82507 0.50878 -0.47400
O 	O 	0.26239 0.53297 0.36696 -0.48600
O 	O 	0.35490 0.54602 0.25300 -0.51100
O 	O 	0.68080 0.72950 0.46122 -0.46600
O 	O 	0.39879 0.54215 0.35576 -0.46300
O 	O 	0.24793 0.73597 0.31302 -0.47600
O 	O 	0.18623 0.57672 0.31670 -0.49200
O 	O 	0.13295 0.70165 0.30680 -0.30800
O 	O 	0.49970 0.80098 0.49736 -0.41100
O 	O 	0.51420 0.70098 0.37892 -0.65800
O 	O 	0.35308 0.68371 0.50878 -0.47400
O 	O 	0.60457 0.83399 0.36696 -0.48600
O 	O 	0.39810 0.70698 0.25300 -0.51100
O 	O 	0.28042 0.73172 0.46122 -0.46600
O 	O 	0.45697 0.81361 0.35576 -0.46300
O 	O 	0.56509 0.57705 0.31302 -0.47600
O 	O 	0.63047 0.73998 0.31670 -0.49200
O 	O 	0.67385 0.60515 0.30680 -0.30800
Zn	Zn	0.62392 0.38325 0.56792 1.21300
Zn	Zn	0.73690 0.32142 0.63847 1.22900
Zn	Zn	0.44400 0.18467 0.56792 1.21300
Zn	Zn	0.40157 0.31705 0.63847 1.22900
Zn	Zn	0.59838 0.34838 0.69676 1.21800
H 	H 	0.41340 0.09100 0.37780 0.01200
H 	H 	0.20370 0.90840 0.00760 0.08800
H 	H 	0.93010 0.95590 0.05600 0.08800
H 	H 	0.34930 0.02810 0.25180 0.07600
H 	H 	0.99880 0.15350 0.05880 0.08900
H 	H 	0.83960 0.96500 0.87180 0.08700
H 	H 	0.26130 0.09880 0.35980 0.01900
H 	H 	0.21210 0.26880 0.44460 0.02400
H 	H 	0.70380 0.72000 0.74120 0.08700
H 	H 	0.16640 0.06070 0.24580 0.07800
H 	H 	0.63920 0.59230 0.67320 0.00800
H 	H 	0.91370 0.72350 0.76700 0.08100
H 	H 	0.73370 0.19330 0.74960 0.03200
H 	H 	0.11820 0.23130 0.33020 0.08100
H 	H 	0.80820 0.60610 0.69720 0.01900
H 	H 	0.95070 0.51510 0.74860 0.02700
H 	H 	0.72200 0.57500 0.85060 0.01500
H 	H 	0.76360 0.13790 0.82100 0.07500
H 	H 	0.05700 0.63000 0.81240 0.08100
H 	H 	0.94840 0.26130 0.77100 0.03200
H 	H 	0.98060 0.20680 0.84260 0.07400
H 	H 	0.77730 0.70180 0.92040 0.08400
H 	H 	0.46440 0.28680 0.37780 0.01200
H 	H 	0.30390 0.09920 0.00760 0.08800
H 	H 	0.62590 0.10010 0.05600 0.08900
H 	H 	0.40250 0.22370 0.25180 0.07600
H 	H 	0.56000 0.90530 0.05880 0.08900
H 	H 	0.53220 0.90680 0.87180 0.08800
H 	H 	0.59850 0.26100 0.35980 0.01900
H 	H 	0.73250 0.17580 0.44460 0.02400
H 	H 	0.53740 0.02120 0.74120 0.08700
H 	H 	0.57940 0.18510 0.24580 0.07800
H 	H 	0.53400 0.08090 0.67320 0.00800
H 	H 	0.35330 0.04350 0.76700 0.08100
H 	H 	0.51590 0.55630 0.74960 0.03200
H 	H 	0.71200 0.09890 0.33020 0.08100
H 	H 	0.38900 0.09110 0.69720 0.01900
H 	H 	0.29790 0.23350 0.74860 0.02700
H 	H 	0.62860 0.27560 0.85060 0.01500
H 	H 	0.55740 0.68310 0.82100 0.07500
H 	H 	0.25540 0.18240 0.81240 0.08200
H 	H 	0.32260 0.50970 0.77100 0.03200
H 	H 	0.36200 0.63580 0.84260 0.07500
H 	H 	0.64310 0.21860 0.92040 0.08400
H 	H 	0.15890 0.90890 0.81780 0.09000
C 	C 	0.63670 0.48806 0.71112 0.40400
C 	C 	0.41083 0.11806 0.35224 0.06200
C 	C 	0.21054 0.93461 0.98192 -0.15000
C 	C 	0.92779 0.98389 0.03134 -0.14800
C 	C 	0.02775 0.09476 0.14388 -0.03400
C 	C 	0.24675 0.18870 0.41376 -0.14900
C 	C 	0.87814 0.94813 0.95746 0.09900
C 	C 	0.17061 0.89696 0.90590 0.10100
C 	C 	0.37305 0.08071 0.27730 -0.13500
C 	C 	0.96846 0.10127 0.03312 -0.15100
C 	C 	0.83199 0.86931 0.91758 -0.03000
C 	C 	0.87361 0.98919 0.92202 -0.15200
C 	C 	0.11238 0.82139 0.86774 -0.03500
C 	C 	0.80013 0.47373 0.67336 0.41800
C 	C 	0.67343 0.57094 0.75470 -0.16400
C 	C 	0.13313 0.14372 0.27624 0.08800
C 	C 	0.23239 0.12609 0.35388 0.07200
C 	C 	0.91831 0.06548 0.95924 0.09600
C 	C 	0.97394 0.06007 0.06938 0.10100
C 	C 	0.90824 0.10597 0.92036 -0.04100
C 	C 	0.06121 0.76051 0.83506 -0.02800
C 	C 	0.99573 0.68803 0.79480 0.08700
C 	C 	0.79467 0.80397 0.88144 -0.03900
C 	C 	0.20354 0.22664 0.40406 0.07500
C 	C 	0.70791 0.69091 0.76448 -0.16100
C 	C 	0.17618 0.10368 0.28618 -0.13600
C 	C 	0.66938 0.61468 0.72404 0.09100
C 	C 	0.92179 0.68089 0.76204 -0.14000
C 	C 	0.86888 0.54926 0.71600 -0.14600
C 	C 	0.07462 0.11872 0.20550 -0.03200
C 	C 	0.75214 0.72514 0.83806 0.10200
C 	C 	0.78426 0.19616 0.76870 0.05200
C 	C 	0.83744 0.23164 0.75396 -0.11800
C 	C 	0.14738 0.20411 0.33572 -0.14100
C 	C 	0.87459 0.16799 0.84020 0.07600
C 	C 	0.85882 0.61092 0.72140 0.07200
C 	C 	0.94312 0.55742 0.75106 0.07000
C 	C 	0.71669 0.60459 0.82804 0.08800
C 	C 	0.80213 0.16343 0.81168 -0.12600
C 	C 	0.00626 0.62566 0.78956 -0.13600
C 	C 	0.89367 0.13387 0.88464 -0.02600
C 	C 	0.91081 0.23611 0.78142 0.04800
C 	C 	0.93011 0.20421 0.82422 -0.12100
C 	C 	0.75215 0.67995 0.86922 -0.15600
C 	C 	0.30851 0.21271 0.48656 0.41800
C 	C 	0.81733 0.26773 0.70726 0.36700
C 	C 	0.57442 0.22306 0.71112 0.40400
C 	C 	0.44141 0.23418 0.35224 0.06200
C 	C 	0.27138 0.04731 0.98192 -0.15000
C 	C 	0.60355 0.04745 0.03134 -0.15000
C 	C 	0.61613 0.04912 0.14388 -0.03300
C 	C 	0.66701 0.22506 0.41376 -0.14900
C 	C 	0.57932 0.00933 0.95746 0.10100
C 	C 	0.23529 0.00894 0.90590 0.10000
C 	C 	0.40425 0.19659 0.27730 -0.13500
C 	C 	0.56466 0.93185 0.03312 -0.15300
C 	C 	0.58559 0.04827 0.91758 -0.03000
C 	C 	0.54841 0.93283 0.92202 -0.15400
C 	C 	0.25536 0.04635 0.86774 -0.03400
C 	C 	0.37323 0.19963 0.67336 0.41800
C 	C 	0.58127 0.18376 0.75470 -0.16400
C 	C 	0.64311 0.13252 0.27624 0.08900
C 	C 	0.62149 0.22779 0.35388 0.07200
C 	C 	0.54093 0.89376 0.95924 0.09900
C 	C 	0.59544 0.00931 0.06938 0.10200
C 	C 	0.51212 0.81439 0.92036 -0.04100
C 	C 	0.27385 0.07455 0.83506 -0.03000
C 	C 	0.29907 0.10677 0.79480 0.09100
C 	C 	0.58677 0.07747 0.88144 -0.03800
C 	C 	0.70052 0.17742 0.40406 0.07500
C 	C 	0.55657 0.07357 0.76448 -0.16100
C 	C 	0.61000 0.18250 0.28618 -0.13600
C 	C 	0.55466 0.10936 0.72404 0.09100
C 	C 	0.34025 0.08115 0.76204 -0.14200
C 	C 	0.34712 0.16674 0.71600 -0.14800
C 	C 	0.63088 0.08678 0.20550 -0.03200
C 	C 	0.58592 0.11292 0.83806 0.10100
C 	C 	0.48444 0.57254 0.76870 0.05200
C 	C 	0.41652 0.52232 0.75396 -0.11800
C 	C 	0.68834 0.13161 0.33572 -0.14100
C 	C 	0.46561 0.67221 0.84020 0.07600
C 	C 	0.36258 0.11048 0.72140 0.07400
C 	C 	0.30794 0.19364 0.75106 0.07300
C 	C 	0.61135 0.22345 0.82804 0.08800
C 	C 	0.50955 0.64825 0.81168 -0.12600
C 	C 	0.28330 0.16390 0.78956 -0.14000
C 	C 	0.49097 0.75077 0.88464 -0.02500
C 	C 	0.37061 0.54531 0.78142 0.04800
C 	C 	0.39411 0.62001 0.82422 -0.12100
C 	C 	0.61707 0.18927 0.86922 -0.15500
C 	C 	0.67805 0.27385 0.48656 0.41800
C 	C 	0.38993 0.43953 0.70726 0.36700
C 	C 	0.33075 0.08075 0.16150 -0.03100
C 	C 	0.25967 0.00967 0.01934 0.10200
C 	C 	0.44496 0.19496 0.38992 -0.13300
C 	C 	0.29861 0.04861 0.09722 -0.03400
C 	C 	0.18456 0.93456 0.86912 -0.15600
C 	C 	0.36970 0.11970 0.23940 0.08200
C 	C 	0.48538 0.23538 0.47076 0.36000
O 	O 	0.50234 0.30362 0.50264 -0.41100
O 	O 	0.63528 0.32206 0.62108 -0.65800
O 	O 	0.34430 0.17493 0.49122 -0.47400
O 	O 	0.73761 0.46703 0.63304 -0.48600
O 	O 	0.64510 0.45398 0.74700 -0.51100
O 	O 	0.31920 0.27050 0.53878 -0.46600
O 	O 	0.60121 0.45785 0.64424 -0.46300
O 	O 	0.75207 0.26403 0.68698 -0.47600
O 	O 	0.81377 0.42328 0.68330 -0.49200
O 	O 	0.86705 0.29835 0.69320 -0.30800
O 	O 	0.50030 0.19902 0.50264 -0.41100
O 	O 	0.48580 0.29902 0.62108 -0.65800
O 	O 	0.64692 0.31629 0.49122 -0.47400
O 	O 	0.39543 0.16601 0.63304 -0.48600
O 	O 	0.60190 0.29302 0.74700 -0.51100
O 	O 	0.71958 0.26828 0.53878 -0.46600
O 	O 	0.54303 0.18639 0.64424 -0.46300
O 	O 	0.43491 0.42295 0.68698 -0.47600
O 	O 	0.36953 0.26002 0.68330 -0.49200
O 	O 	0.32615 0.39485 0.69320 -0.30800
