data_crystal

_cell_length_a 11.88300
_cell_length_b 11.88300
_cell_length_c 18.06600
_cell_angle_alpha 90.00000
_cell_angle_beta  90.00000
_cell_angle_gamma 120.00000

_symmetry_space_group_name_	'P 1'
_symmetry_space_group_name_H-M	'P 1'

loop_
_symmetry_equiv_pos_as_xyz
  x,y,z

loop_
_atom_site_label
_atom_site_type_symbol
_atom_site_fract_x
_atom_site_fract_y
_atom_site_fract_z
_atom_site_charge
U 	U 	0.85652 0.44224 0.95772 0.02300
U 	U 	0.58572 0.14348 0.62439 0.02300
U 	U 	0.55776 0.41428 0.29106 0.02300
U 	U 	0.41428 0.55776 0.04228 0.02200
U 	U 	0.44224 0.85652 0.37561 0.02200
U 	U 	0.14348 0.58572 0.70894 0.02200
P 	P 	0.51290 0.33690 0.96886 0.44500
P 	P 	0.66120 0.48540 0.09944 0.44600
P 	P 	0.82400 0.48710 0.63553 0.44500
P 	P 	0.82420 0.33880 0.76611 0.44600
P 	P 	0.66310 0.17600 0.30219 0.44500
P 	P 	0.51460 0.17580 0.43277 0.44600
P 	P 	0.17600 0.66310 0.03114 0.44500
P 	P 	0.17580 0.51460 0.90056 0.44600
P 	P 	0.33690 0.51290 0.36447 0.44500
P 	P 	0.48540 0.66120 0.23389 0.44600
P 	P 	0.48710 0.82400 0.69781 0.44500
P 	P 	0.33880 0.82420 0.56723 0.44600
H 	H 	0.46270 0.29590 0.09460 0.18100
H 	H 	0.57730 0.26770 0.07340 0.18600
H 	H 	0.83320 0.53730 0.76127 0.18100
H 	H 	0.69040 0.42270 0.74007 0.18600
H 	H 	0.70410 0.16680 0.42793 0.18100
H 	H 	0.73230 0.30960 0.40673 0.18600
H 	H 	0.16680 0.70410 0.90540 0.18100
H 	H 	0.30960 0.73230 0.92660 0.18600
H 	H 	0.29590 0.46270 0.23873 0.18100
H 	H 	0.26770 0.57730 0.25993 0.18600
H 	H 	0.53730 0.83320 0.57207 0.18100
H 	H 	0.42270 0.69040 0.59327 0.18600
C 	C 	0.54440 0.32870 0.06620 -0.36100
C 	C 	0.78430 0.45560 0.73287 -0.36100
C 	C 	0.67130 0.21570 0.39953 -0.36100
C 	C 	0.21570 0.67130 0.93380 -0.36100
C 	C 	0.32870 0.54440 0.26713 -0.36100
C 	C 	0.45560 0.78430 0.60047 -0.36100
O 	O 	0.78820 0.52290 0.05920 -0.14600
O 	O 	0.68550 0.47910 0.18200 -0.14800
O 	O 	0.61340 0.57900 0.08190 -0.15200
O 	O 	0.46450 0.43340 0.96040 -0.14800
O 	O 	0.64350 0.38740 0.93060 -0.16000
O 	O 	0.41520 0.20380 0.94010 -0.16500
O 	O 	0.73470 0.21180 0.72587 -0.14600
O 	O 	0.79360 0.31450 0.84867 -0.14800
O 	O 	0.96560 0.38660 0.74857 -0.15200
O 	O 	0.96890 0.53550 0.62707 -0.14900
O 	O 	0.74390 0.35650 0.59727 -0.16000
O 	O 	0.78860 0.58480 0.60677 -0.16500
O 	O 	0.47710 0.26530 0.39253 -0.14600
O 	O 	0.52090 0.20640 0.51533 -0.14800
O 	O 	0.42100 0.03440 0.41523 -0.15200
O 	O 	0.56660 0.03110 0.29373 -0.14900
O 	O 	0.61260 0.25610 0.26393 -0.16000
O 	O 	0.79620 0.21140 0.27343 -0.16500
O 	O 	0.26530 0.47710 0.94080 -0.14600
O 	O 	0.20640 0.52090 0.81800 -0.14800
O 	O 	0.03440 0.42100 0.91810 -0.15200
O 	O 	0.03110 0.56660 0.03960 -0.14900
O 	O 	0.25610 0.61260 0.06940 -0.16000
O 	O 	0.21140 0.79620 0.05990 -0.16500
O 	O 	0.52290 0.78820 0.27413 -0.14600
O 	O 	0.47910 0.68550 0.15133 -0.14800
O 	O 	0.57900 0.61340 0.25143 -0.15200
O 	O 	0.43340 0.46450 0.37293 -0.14800
O 	O 	0.38740 0.64350 0.40273 -0.16000
O 	O 	0.20380 0.41520 0.39323 -0.16500
O 	O 	0.21180 0.73470 0.60747 -0.14600
O 	O 	0.31450 0.79360 0.48467 -0.14800
O 	O 	0.38660 0.96560 0.58477 -0.15200
O 	O 	0.53550 0.96890 0.70627 -0.14800
O 	O 	0.35650 0.74390 0.73607 -0.16000
O 	O 	0.58480 0.78860 0.72657 -0.16500
