data_crystal

_cell_length_a 9.08050
_cell_length_b 23.61300
_cell_length_c 12.83030
_cell_angle_alpha 90.00000
_cell_angle_beta  90.00000
_cell_angle_gamma 90.00000

_symmetry_space_group_name_	'P 1'
_symmetry_space_group_name_H-M	'P 1'

loop_
_symmetry_equiv_pos_as_xyz
  x,y,z

loop_
_atom_site_label
_atom_site_type_symbol
_atom_site_fract_x
_atom_site_fract_y
_atom_site_fract_z
_atom_site_charge
K 	K 	0.11450 0.78795 0.93630 0.67700
K 	K 	0.88550 0.21205 0.93630 0.67700
K 	K 	0.61450 0.71205 0.06370 0.67800
K 	K 	0.38550 0.28795 0.06370 0.67800
U 	U 	0.14598 0.73306 0.65762 0.02000
U 	U 	0.63491 0.56842 0.92325 0.01600
U 	U 	0.69495 0.82827 0.85075 0.01700
U 	U 	0.85402 0.26694 0.65762 0.02000
U 	U 	0.36509 0.43158 0.92325 0.01600
U 	U 	0.30505 0.17173 0.85075 0.01700
U 	U 	0.64598 0.76694 0.34238 0.02100
U 	U 	0.13491 0.93158 0.07675 0.01500
U 	U 	0.19495 0.67173 0.14925 0.01600
U 	U 	0.35402 0.23306 0.34238 0.02100
U 	U 	0.86509 0.06842 0.07675 0.01500
U 	U 	0.80505 0.32827 0.14925 0.01600
P 	P 	0.32160 0.66227 0.87770 0.43900
P 	P 	0.22840 0.55325 0.96460 0.44800
P 	P 	0.83110 0.68551 0.81430 0.43000
P 	P 	0.74730 0.74154 0.61730 0.43700
P 	P 	0.67840 0.33773 0.87770 0.43900
P 	P 	0.77160 0.44675 0.96460 0.44800
P 	P 	0.16890 0.31449 0.81430 0.43000
P 	P 	0.25270 0.25846 0.61730 0.43700
P 	P 	0.82160 0.83773 0.12230 0.43900
P 	P 	0.72840 0.94675 0.03540 0.44800
P 	P 	0.33110 0.81449 0.18570 0.43000
P 	P 	0.24730 0.75846 0.38270 0.43700
P 	P 	0.17840 0.16227 0.12230 0.43900
P 	P 	0.27160 0.05325 0.03540 0.44800
P 	P 	0.66890 0.18551 0.18570 0.43000
P 	P 	0.75270 0.24154 0.38270 0.43700
H 	H 	0.10790 0.60940 0.84710 0.18200
H 	H 	0.24670 0.57930 0.79340 0.17500
H 	H 	0.78360 0.64550 0.65150 0.17000
H 	H 	0.63300 0.66660 0.70400 0.17600
H 	H 	0.89210 0.39060 0.84710 0.18200
H 	H 	0.75330 0.42070 0.79340 0.17500
H 	H 	0.21640 0.35450 0.65150 0.17000
H 	H 	0.36700 0.33340 0.70400 0.17600
H 	H 	0.60790 0.89060 0.15290 0.18300
H 	H 	0.74670 0.92070 0.20660 0.17500
H 	H 	0.28360 0.85450 0.34850 0.17000
H 	H 	0.13300 0.83340 0.29600 0.17600
H 	H 	0.39210 0.10940 0.15290 0.18300
H 	H 	0.25330 0.07930 0.20660 0.17500
H 	H 	0.71640 0.14550 0.34850 0.17000
H 	H 	0.86700 0.16660 0.29600 0.17600
C 	C 	0.21250 0.59890 0.85710 -0.36900
C 	C 	0.73730 0.67670 0.69140 -0.34700
C 	C 	0.78750 0.40110 0.85710 -0.36900
C 	C 	0.26270 0.32330 0.69140 -0.34700
C 	C 	0.71250 0.90110 0.14290 -0.36900
C 	C 	0.23730 0.82330 0.30860 -0.34700
C 	C 	0.28750 0.09890 0.14290 -0.36900
C 	C 	0.76270 0.17670 0.30860 -0.34700
O 	O 	0.81660 0.62950 0.87620 -0.19200
O 	O 	0.30930 0.70150 0.78610 -0.20500
O 	O 	0.66050 0.58970 0.05470 -0.08300
O 	O 	0.99160 0.70050 0.79150 -0.21900
O 	O 	0.15440 0.80150 0.71560 -0.08800
O 	O 	0.67220 0.78670 0.68220 -0.15600
O 	O 	0.66730 0.73240 0.51390 -0.15400
O 	O 	0.75290 0.73270 0.87250 -0.23000
O 	O 	0.17360 0.58140 0.06040 -0.16100
O 	O 	0.87940 0.84530 0.82400 -0.08200
O 	O 	0.14690 0.49670 0.94210 -0.15400
O 	O 	0.91130 0.75420 0.59770 -0.14700
O 	O 	0.38990 0.53260 0.97060 -0.14100
O 	O 	0.48220 0.64390 0.89480 -0.21500
O 	O 	0.25820 0.68920 0.97520 -0.24300
O 	O 	0.18340 0.37050 0.87620 -0.19200
O 	O 	0.69070 0.29850 0.78610 -0.20500
O 	O 	0.33950 0.41030 0.05470 -0.08300
O 	O 	0.00840 0.29950 0.79150 -0.21900
O 	O 	0.84560 0.19850 0.71560 -0.08800
O 	O 	0.32780 0.21330 0.68220 -0.15600
O 	O 	0.33270 0.26760 0.51390 -0.15400
O 	O 	0.24710 0.26730 0.87250 -0.23000
O 	O 	0.82640 0.41860 0.06040 -0.16100
O 	O 	0.12060 0.15470 0.82400 -0.08200
O 	O 	0.85310 0.50330 0.94210 -0.15400
O 	O 	0.08870 0.24580 0.59770 -0.14700
O 	O 	0.61010 0.46740 0.97060 -0.14100
O 	O 	0.51780 0.35610 0.89480 -0.21500
O 	O 	0.74180 0.31080 0.97520 -0.24300
O 	O 	0.31660 0.87050 0.12380 -0.19200
O 	O 	0.80930 0.79850 0.21390 -0.20500
O 	O 	0.16050 0.91030 0.94530 -0.08300
O 	O 	0.49160 0.79950 0.20850 -0.21900
O 	O 	0.65440 0.69850 0.28440 -0.08700
O 	O 	0.17220 0.71330 0.31780 -0.15700
O 	O 	0.16730 0.76760 0.48610 -0.15400
O 	O 	0.25290 0.76730 0.12750 -0.23100
O 	O 	0.67360 0.91860 0.93960 -0.16100
O 	O 	0.37940 0.65470 0.17600 -0.08300
O 	O 	0.64690 0.00330 0.05790 -0.15400
O 	O 	0.41130 0.74580 0.40230 -0.14700
O 	O 	0.88990 0.96740 0.02940 -0.14100
O 	O 	0.98220 0.85610 0.10520 -0.21500
O 	O 	0.75820 0.81080 0.02480 -0.24400
O 	O 	0.68340 0.12950 0.12380 -0.19200
O 	O 	0.19070 0.20150 0.21390 -0.20500
O 	O 	0.83950 0.08970 0.94530 -0.08300
O 	O 	0.50840 0.20050 0.20850 -0.21900
O 	O 	0.34560 0.30150 0.28440 -0.08700
O 	O 	0.82780 0.28670 0.31780 -0.15700
O 	O 	0.83270 0.23240 0.48610 -0.15400
O 	O 	0.74710 0.23270 0.12750 -0.23100
O 	O 	0.32640 0.08140 0.93960 -0.16100
O 	O 	0.62060 0.34530 0.17600 -0.08300
O 	O 	0.35310 0.99670 0.05790 -0.15400
O 	O 	0.58870 0.25420 0.40230 -0.14700
O 	O 	0.11010 0.03260 0.02940 -0.14100
O 	O 	0.01780 0.14390 0.10520 -0.21500
O 	O 	0.24180 0.18920 0.02480 -0.24400
