data_crystal

_cell_length_a 22.60400
_cell_length_b 22.60400
_cell_length_c 7.45400
_cell_angle_alpha 90.00000
_cell_angle_beta  90.00000
_cell_angle_gamma 120.00000

_symmetry_space_group_name_	'P 1'
_symmetry_space_group_name_H-M	'P 1'

loop_
_symmetry_equiv_pos_as_xyz
  x,y,z

loop_
_atom_site_label
_atom_site_type_symbol
_atom_site_fract_x
_atom_site_fract_y
_atom_site_fract_z
_atom_site_charge
C 	C 	0.48850 0.44680 0.88680 0.00000
H 	H 	0.48030 0.40990 0.80790 0.03300
C 	C 	0.54570 0.51690 0.14020 -0.01200
H 	H 	0.57650 0.52810 0.23950 0.02700
C 	C 	0.15517 0.78013 0.22013 -0.03700
H 	H 	0.14697 0.74323 0.14123 0.03600
C 	C 	0.21237 0.85023 0.47353 -0.02800
H 	H 	0.24317 0.86143 0.57283 0.04100
C 	C 	0.82183 0.11347 0.55347 -0.03500
H 	H 	0.81363 0.07657 0.47457 0.03000
C 	C 	0.87903 0.18357 0.80687 -0.02900
H 	H 	0.90983 0.19477 0.90617 0.04700
C 	C 	0.55320 0.04170 0.88680 -0.12400
H 	H 	0.59010 0.07040 0.80790 0.06400
C 	C 	0.48310 0.02880 0.14020 -0.13800
H 	H 	0.47190 0.04840 0.23950 0.05600
C 	C 	0.21987 0.37503 0.22013 -0.03500
H 	H 	0.25677 0.40373 0.14123 0.03900
C 	C 	0.14977 0.36213 0.47353 -0.03700
H 	H 	0.13857 0.38173 0.57283 0.03300
C 	C 	0.88653 0.70837 0.55347 -0.03400
H 	H 	0.92343 0.73707 0.47457 0.05200
C 	C 	0.81643 0.69547 0.80687 -0.03400
H 	H 	0.80523 0.71507 0.90617 0.04100
C 	C 	0.95830 0.51150 0.88680 0.11200
H 	H 	0.92960 0.51970 0.80790 0.00700
C 	C 	0.97120 0.45430 0.14020 0.10000
H 	H 	0.95160 0.42350 0.23950 0.00300
C 	C 	0.62497 0.84483 0.22013 -0.03100
H 	H 	0.59627 0.85303 0.14123 0.04200
C 	C 	0.63787 0.78763 0.47353 -0.03300
H 	H 	0.61827 0.75683 0.57283 0.03800
C 	C 	0.29163 0.17817 0.55347 -0.03400
H 	H 	0.26293 0.18637 0.47457 0.04000
C 	C 	0.30453 0.12097 0.80687 -0.03400
H 	H 	0.28493 0.09017 0.90617 0.03100
C 	C 	0.44680 0.48850 0.11320 -0.06900
H 	H 	0.40990 0.48030 0.19210 0.05100
C 	C 	0.51690 0.54570 0.85980 -0.05500
H 	H 	0.52810 0.57650 0.76050 0.04400
C 	C 	0.11347 0.82183 0.44653 -0.03500
H 	H 	0.07657 0.81363 0.52543 0.03500
C 	C 	0.18357 0.87903 0.19313 -0.03000
H 	H 	0.19477 0.90983 0.09383 0.04000
C 	C 	0.78013 0.15517 0.77987 -0.03600
H 	H 	0.74323 0.14697 0.85877 0.04200
C 	C 	0.85023 0.21237 0.52647 -0.02800
H 	H 	0.86143 0.24317 0.42717 0.03700
C 	C 	0.04170 0.55320 0.11320 -0.18000
H 	H 	0.07040 0.59010 0.19210 0.07800
C 	C 	0.02880 0.48310 0.85980 -0.16500
H 	H 	0.04840 0.47190 0.76050 0.06800
C 	C 	0.70837 0.88653 0.44653 -0.03400
H 	H 	0.73707 0.92343 0.52543 0.05500
C 	C 	0.69547 0.81643 0.19313 -0.03500
H 	H 	0.71507 0.80523 0.09383 0.03300
C 	C 	0.37503 0.21987 0.77987 -0.03400
H 	H 	0.40373 0.25677 0.85877 0.04600
C 	C 	0.36213 0.14977 0.52647 -0.03800
H 	H 	0.38173 0.13857 0.42717 0.02900
C 	C 	0.51150 0.95830 0.11320 0.06000
H 	H 	0.51970 0.92960 0.19210 0.02000
C 	C 	0.45430 0.97120 0.85980 0.07000
H 	H 	0.42350 0.95160 0.76050 0.01600
C 	C 	0.17817 0.29163 0.44653 -0.03400
H 	H 	0.18637 0.26293 0.52543 0.04300
C 	C 	0.12097 0.30453 0.19313 -0.03500
H 	H 	0.09017 0.28493 0.09383 0.02300
C 	C 	0.84483 0.62497 0.77987 -0.03100
H 	H 	0.85303 0.59627 0.85877 0.04900
C 	C 	0.78763 0.63787 0.52647 -0.03300
H 	H 	0.75683 0.61827 0.42717 0.03400
C 	C 	0.51150 0.55320 0.11320 -0.06900
H 	H 	0.51970 0.59010 0.19210 0.05100
C 	C 	0.45430 0.48310 0.85980 -0.05500
H 	H 	0.42350 0.47190 0.76050 0.04400
C 	C 	0.17817 0.88653 0.44653 -0.03300
H 	H 	0.18637 0.92343 0.52543 0.05500
C 	C 	0.12097 0.81643 0.19313 -0.03700
H 	H 	0.09017 0.80523 0.09383 0.02500
C 	C 	0.84483 0.21987 0.77987 -0.03100
H 	H 	0.85303 0.25677 0.85877 0.04900
C 	C 	0.78763 0.14977 0.52647 -0.03800
H 	H 	0.75683 0.13857 0.42717 0.03000
C 	C 	0.44680 0.95830 0.11320 0.06100
H 	H 	0.40990 0.92960 0.19210 0.01900
C 	C 	0.51690 0.97120 0.85980 0.06900
H 	H 	0.52810 0.95160 0.76050 0.01600
C 	C 	0.11347 0.29163 0.44653 -0.03400
H 	H 	0.07657 0.26293 0.52543 0.03300
C 	C 	0.18357 0.30453 0.19313 -0.03100
H 	H 	0.19477 0.28493 0.09383 0.03000
C 	C 	0.78013 0.62497 0.77987 -0.03300
H 	H 	0.74323 0.59627 0.85877 0.04600
C 	C 	0.85023 0.63787 0.52647 -0.02900
H 	H 	0.86143 0.61827 0.42717 0.03800
C 	C 	0.04170 0.48850 0.11320 -0.18100
H 	H 	0.07040 0.48030 0.19210 0.07800
C 	C 	0.02880 0.54570 0.85980 -0.16400
H 	H 	0.04840 0.57650 0.76050 0.06800
C 	C 	0.70837 0.82183 0.44653 -0.03500
H 	H 	0.73707 0.81363 0.52543 0.04500
C 	C 	0.69547 0.87903 0.19313 -0.03200
H 	H 	0.71507 0.90983 0.09383 0.04100
C 	C 	0.37503 0.15517 0.77987 -0.03700
H 	H 	0.40373 0.14697 0.85877 0.04200
C 	C 	0.36213 0.21237 0.52647 -0.03300
H 	H 	0.38173 0.24317 0.42717 0.03300
C 	C 	0.55320 0.51150 0.88680 0.00100
H 	H 	0.59010 0.51970 0.80790 0.03400
C 	C 	0.48310 0.45430 0.14020 -0.01100
H 	H 	0.47190 0.42350 0.23950 0.02800
C 	C 	0.21987 0.84483 0.22013 -0.03100
H 	H 	0.25677 0.85303 0.14123 0.04300
C 	C 	0.14977 0.78763 0.47353 -0.03700
H 	H 	0.13857 0.75683 0.57283 0.03400
C 	C 	0.88653 0.17817 0.55347 -0.03300
H 	H 	0.92343 0.18637 0.47457 0.05100
C 	C 	0.81643 0.12097 0.80687 -0.03600
H 	H 	0.80523 0.09017 0.90617 0.03200
C 	C 	0.95830 0.44680 0.88680 0.11300
H 	H 	0.92960 0.40990 0.80790 0.00700
C 	C 	0.97120 0.51690 0.14020 0.09800
H 	H 	0.95160 0.52810 0.23950 0.00300
C 	C 	0.62497 0.78013 0.22013 -0.03400
H 	H 	0.59627 0.74323 0.14123 0.03900
C 	C 	0.63787 0.85023 0.47353 -0.02800
H 	H 	0.61827 0.86143 0.57283 0.04100
C 	C 	0.29163 0.11347 0.55347 -0.03400
H 	H 	0.26293 0.07657 0.47457 0.02900
C 	C 	0.30453 0.18357 0.80687 -0.03000
H 	H 	0.28493 0.19477 0.90617 0.03900
C 	C 	0.48850 0.04170 0.88680 -0.12500
H 	H 	0.48030 0.07040 0.80790 0.06400
C 	C 	0.54570 0.02880 0.14020 -0.13700
H 	H 	0.57650 0.04840 0.23950 0.05600
C 	C 	0.15517 0.37503 0.22013 -0.03800
H 	H 	0.14697 0.40373 0.14123 0.03600
C 	C 	0.21237 0.36213 0.47353 -0.03200
H 	H 	0.24317 0.38173 0.57283 0.03700
C 	C 	0.82183 0.70837 0.55347 -0.03500
H 	H 	0.81363 0.73707 0.47457 0.04200
C 	C 	0.87903 0.69547 0.80687 -0.03100
H 	H 	0.90983 0.71507 0.90617 0.04700
Fe	Fe	0.66667 0.33333 0.83333 1.16900
Fe	Fe	-0.00000 -0.00000 0.50000 1.11300
Fe	Fe	0.33333 0.66667 0.16667 1.16600
Fe	Fe	0.66667 0.33333 0.33333 1.10400
Fe	Fe	0.33333 0.66667 0.66667 1.10600
Fe	Fe	-0.00000 0.00000 -0.00000 1.04300
N 	N 	0.58948 0.41052 0.20170 -0.16300
H 	H 	0.58050 0.41950 0.31290 0.09400
N 	N 	0.62264 0.37736 0.15640 -0.17100
N 	N 	0.62496 0.37504 0.97960 -0.17200
N 	N 	0.59399 0.40601 0.90630 -0.09300
C 	C 	0.57282 0.42717 0.04660 0.11500
C 	C 	0.53519 0.46482 0.02470 -0.05800
N 	N 	0.25615 0.74385 0.53503 -0.16200
H 	H 	0.24717 0.75283 0.64623 0.09500
N 	N 	0.28931 0.71069 0.48973 -0.16300
N 	N 	0.29163 0.70837 0.31293 -0.18000
N 	N 	0.26065 0.73935 0.23963 -0.10200
C 	C 	0.23949 0.76051 0.37993 0.11700
C 	C 	0.20185 0.79815 0.35803 -0.00600
N 	N 	0.92282 0.07718 0.86837 -0.16100
H 	H 	0.91383 0.08617 0.97957 0.10100
N 	N 	0.95597 0.04403 0.82307 -0.15100
N 	N 	0.95829 0.04171 0.64627 -0.17200
N 	N 	0.92732 0.07268 0.57297 -0.10000
C 	C 	0.90616 0.09384 0.71327 0.11800
C 	C 	0.86852 0.13148 0.69137 -0.00500
N 	N 	0.58948 0.17897 0.20170 -0.15000
H 	H 	0.58050 0.16100 0.31290 0.08600
N 	N 	0.62264 0.24528 0.15640 -0.17100
N 	N 	0.62496 0.24992 0.97960 -0.17200
N 	N 	0.59399 0.18797 0.90630 -0.08400
C 	C 	0.57282 0.14565 0.04660 0.05800
C 	C 	0.53519 0.07037 0.02470 0.11000
N 	N 	0.25615 0.51230 0.53503 -0.16200
H 	H 	0.24717 0.49433 0.64623 0.09400
N 	N 	0.28931 0.57861 0.48973 -0.16300
N 	N 	0.29163 0.58325 0.31293 -0.18100
N 	N 	0.26065 0.52130 0.23963 -0.10200
C 	C 	0.23949 0.47898 0.37993 0.11400
C 	C 	0.20185 0.40370 0.35803 -0.00400
N 	N 	0.92282 0.84564 0.86837 -0.16000
H 	H 	0.91383 0.82767 0.97957 0.10800
N 	N 	0.95597 0.91195 0.82307 -0.13100
N 	N 	0.95829 0.91659 0.64627 -0.15100
N 	N 	0.92732 0.85464 0.57297 -0.09400
C 	C 	0.90616 0.81232 0.71327 0.12500
C 	C 	0.86852 0.73704 0.69137 -0.00300
N 	N 	0.82103 0.41052 0.20170 -0.17400
H 	H 	0.83900 0.41950 0.31290 0.10000
N 	N 	0.75472 0.37736 0.15640 -0.17000
N 	N 	0.75008 0.37504 0.97960 -0.17200
N 	N 	0.81203 0.40602 0.90630 -0.10100
C 	C 	0.85435 0.42718 0.04660 0.16500
C 	C 	0.92963 0.46481 0.02470 -0.20700
N 	N 	0.48770 0.74385 0.53503 -0.16200
H 	H 	0.50567 0.75283 0.64623 0.09600
N 	N 	0.42139 0.71069 0.48973 -0.16200
N 	N 	0.41675 0.70837 0.31293 -0.18000
N 	N 	0.47870 0.73935 0.23963 -0.10200
C 	C 	0.52102 0.76051 0.37993 0.11900
C 	C 	0.59630 0.79815 0.35803 -0.00800
N 	N 	0.15436 0.07718 0.86837 -0.16200
H 	H 	0.17233 0.08617 0.97957 0.09200
N 	N 	0.08805 0.04403 0.82307 -0.17200
N 	N 	0.08341 0.04171 0.64627 -0.19400
N 	N 	0.14536 0.07268 0.57297 -0.10700
C 	C 	0.18768 0.09384 0.71327 0.11200
C 	C 	0.26296 0.13148 0.69137 -0.00800
N 	N 	0.41052 0.58948 0.79830 -0.16000
H 	H 	0.41950 0.58050 0.68710 0.09200
N 	N 	0.37736 0.62264 0.84360 -0.15600
N 	N 	0.37504 0.62496 0.02040 -0.18800
N 	N 	0.40601 0.59398 0.09370 -0.10600
C 	C 	0.42718 0.57282 0.95340 0.11700
C 	C 	0.46481 0.53518 0.97530 0.04700
N 	N 	0.07718 0.92282 0.13163 -0.16100
H 	H 	0.08617 0.91383 0.02043 0.09000
N 	N 	0.04403 0.95597 0.17693 -0.15600
N 	N 	0.04171 0.95829 0.35373 -0.17000
N 	N 	0.07268 0.92732 0.42703 -0.09700
C 	C 	0.09384 0.90616 0.28673 0.11600
C 	C 	0.13148 0.86852 0.30863 -0.00500
N 	N 	0.74385 0.25615 0.46497 -0.16100
H 	H 	0.75283 0.24717 0.35377 0.09100
N 	N 	0.71069 0.28931 0.51027 -0.16300
N 	N 	0.70837 0.29163 0.68707 -0.18000
N 	N 	0.73935 0.26065 0.76037 -0.09800
C 	C 	0.76051 0.23949 0.62007 0.11600
C 	C 	0.79815 0.20185 0.64197 -0.00500
N 	N 	0.17897 0.58948 0.79830 -0.14800
H 	H 	0.16100 0.58050 0.68710 0.08500
N 	N 	0.24528 0.62264 0.84360 -0.15600
N 	N 	0.24992 0.62496 0.02040 -0.18800
N 	N 	0.18797 0.59398 0.09370 -0.09800
C 	C 	0.14565 0.57282 0.95340 0.06700
C 	C 	0.07037 0.53518 0.97530 0.19700
N 	N 	0.84564 0.92282 0.13163 -0.16000
H 	H 	0.82767 0.91383 0.02043 0.09600
N 	N 	0.91195 0.95597 0.17693 -0.13900
N 	N 	0.91659 0.95829 0.35373 -0.15200
N 	N 	0.85464 0.92732 0.42703 -0.09200
C 	C 	0.81232 0.90616 0.28673 0.12100
C 	C 	0.73704 0.86852 0.30863 -0.00200
N 	N 	0.51230 0.25615 0.46497 -0.16100
H 	H 	0.49433 0.24717 0.35377 0.09000
N 	N 	0.57861 0.28931 0.51027 -0.16400
N 	N 	0.58325 0.29163 0.68707 -0.18000
N 	N 	0.52130 0.26065 0.76037 -0.09800
C 	C 	0.47898 0.23949 0.62007 0.11400
C 	C 	0.40370 0.20185 0.64197 -0.00300
N 	N 	0.41052 0.82103 0.79830 -0.17300
H 	H 	0.41950 0.83900 0.68710 0.10000
N 	N 	0.37736 0.75472 0.84360 -0.15500
N 	N 	0.37504 0.75008 0.02040 -0.18800
N 	N 	0.40601 0.81203 0.09370 -0.11500
C 	C 	0.42718 0.85435 0.95340 0.17300
C 	C 	0.46481 0.92963 0.97530 -0.12400
N 	N 	0.07718 0.15436 0.13163 -0.16300
H 	H 	0.08617 0.17233 0.02043 0.07900
N 	N 	0.04403 0.08805 0.17693 -0.18100
N 	N 	0.04171 0.08341 0.35373 -0.19500
N 	N 	0.07268 0.14536 0.42703 -0.10500
C 	C 	0.09384 0.18768 0.28673 0.10800
C 	C 	0.13148 0.26296 0.30863 -0.00800
N 	N 	0.74385 0.48770 0.46497 -0.16100
H 	H 	0.75283 0.50567 0.35377 0.09200
N 	N 	0.71069 0.42139 0.51027 -0.16300
N 	N 	0.70837 0.41675 0.68707 -0.18000
N 	N 	0.73935 0.47870 0.76037 -0.09800
C 	C 	0.76051 0.52102 0.62007 0.11900
C 	C 	0.79815 0.59630 0.64197 -0.00700
