data_crystal

_cell_length_a 7.34950
_cell_length_b 13.19960
_cell_length_c 13.19960
_cell_angle_alpha 63.36340
_cell_angle_beta  79.30400
_cell_angle_gamma 100.69600

_symmetry_space_group_name_	'P 1'
_symmetry_space_group_name_H-M	'P 1'

loop_
_symmetry_equiv_pos_as_xyz
  x,y,z

loop_
_atom_site_label
_atom_site_type_symbol
_atom_site_fract_x
_atom_site_fract_y
_atom_site_fract_z
_atom_site_charge
Fe	Fe	-0.00000 0.00000 -0.00000 0.99300
Fe	Fe	0.50000 0.00000 -0.00000 1.07000
H 	H 	0.90490 0.74420 0.00040 0.09800
H 	H 	0.29650 0.55090 0.11490 0.10200
H 	H 	0.81990 0.62750 0.88820 0.12400
H 	H 	0.90530 0.00040 0.25540 0.08700
H 	H 	0.41140 0.11490 0.33420 0.09600
H 	H 	0.70810 0.88820 0.48430 0.11200
H 	H 	0.16070 0.25540 0.74420 0.09900
H 	H 	0.74560 0.33420 0.55090 0.07800
H 	H 	0.19240 0.48430 0.62750 0.08800
H 	H 	0.09510 0.25580 0.99960 0.10800
H 	H 	0.70350 0.44910 0.88510 -0.00000
H 	H 	0.18010 0.37250 0.11180 -0.03600
H 	H 	0.09470 0.99960 0.74460 0.11800
H 	H 	0.58860 0.88510 0.66580 0.00400
H 	H 	0.29190 0.11180 0.51570 -0.02400
H 	H 	0.83930 0.74460 0.25580 0.10700
H 	H 	0.25440 0.66580 0.44910 0.02400
H 	H 	0.80760 0.51570 0.37250 0.00300
C 	C 	0.62734 0.71867 0.99995 0.21600
C 	C 	0.56470 0.60586 0.99976 0.18000
C 	C 	0.38000 0.53040 0.06680 -0.28100
C 	C 	0.68890 0.57630 0.93300 -0.19100
C 	C 	0.62729 0.99995 0.28138 0.22500
C 	C 	0.56446 0.99976 0.39438 0.16400
C 	C 	0.44680 0.06680 0.40280 -0.27000
C 	C 	0.62190 0.93300 0.49070 -0.17800
C 	C 	0.90867 0.28138 0.71867 0.13800
C 	C 	0.95884 0.39438 0.60586 0.10100
C 	C 	0.84960 0.40280 0.53040 -0.13200
C 	C 	0.11260 0.49070 0.57630 -0.18100
C 	C 	0.37266 0.28133 0.00005 0.01100
C 	C 	0.43530 0.39414 0.00024 -0.20900
C 	C 	0.62000 0.46960 0.93320 0.20900
C 	C 	0.31110 0.42370 0.06700 0.10500
C 	C 	0.37271 0.00005 0.71862 0.04600
C 	C 	0.43554 0.00024 0.60562 -0.19700
C 	C 	0.55320 0.93320 0.59720 0.19000
C 	C 	0.37810 0.06700 0.50930 0.09800
C 	C 	0.09133 0.71862 0.28133 0.11800
C 	C 	0.04116 0.60562 0.39414 -0.13500
C 	C 	0.15040 0.59720 0.46960 0.05700
C 	C 	0.88740 0.50930 0.42370 0.09800
N 	N 	0.50387 0.78194 0.00013 -0.17800
N 	N 	0.60919 0.87621 0.99984 -0.07300
N 	N 	0.78612 0.87017 0.00001 -0.17500
N 	N 	0.80035 0.77052 0.00017 -0.20900
N 	N 	0.50400 0.00013 0.21793 -0.20100
N 	N 	0.60903 0.99984 0.12395 -0.09800
N 	N 	0.78613 0.00001 0.12982 -0.22000
N 	N 	0.80052 0.00017 0.22931 -0.21800
N 	N 	0.72193 0.21793 0.78194 -0.09400
N 	N 	0.73298 0.12395 0.87621 -0.16200
N 	N 	0.91595 0.12982 0.87017 -0.12400
N 	N 	0.02983 0.22931 0.77052 -0.20300
N 	N 	0.49613 0.21806 0.99987 0.00300
N 	N 	0.39081 0.12379 0.00016 -0.27900
N 	N 	0.21388 0.12983 0.99999 -0.11300
N 	N 	0.19965 0.22948 0.99983 -0.10400
N 	N 	0.49600 0.99987 0.78207 -0.00700
N 	N 	0.39097 0.00016 0.87605 -0.22000
N 	N 	0.21387 0.99999 0.87018 -0.09000
N 	N 	0.19948 0.99983 0.77069 -0.11300
N 	N 	0.27807 0.78207 0.21806 -0.09700
N 	N 	0.26702 0.87605 0.12379 -0.16500
N 	N 	0.08405 0.87018 0.12983 -0.17000
N 	N 	0.97017 0.77069 0.22948 -0.12300
