data_crystal

_cell_length_a 20.03760
_cell_length_b 20.87400
_cell_length_c 20.98070
_cell_angle_alpha 90.00000
_cell_angle_beta  90.00000
_cell_angle_gamma 90.00000

_symmetry_space_group_name_	'P 1'
_symmetry_space_group_name_H-M	'P 1'

loop_
_symmetry_equiv_pos_as_xyz
  x,y,z

loop_
_atom_site_label
_atom_site_type_symbol
_atom_site_fract_x
_atom_site_fract_y
_atom_site_fract_z
_atom_site_charge
Sb	Sb	0.78756 0.16031 0.87298 0.54700
Sb	Sb	0.77997 0.04790 0.74613 0.56600
Sb	Sb	0.70604 0.20170 0.72612 0.54500
Sb	Sb	0.54934 0.97853 0.94914 0.54300
Sb	Sb	0.47155 0.00330 0.79759 0.56400
Sb	Sb	0.47125 0.12821 0.91304 0.55700
Fe	Fe	0.62762 0.08609 0.83327 1.17400
Fe	Fe	0.63066 0.19001 0.93837 1.21200
Fe	Fe	0.69278 0.95361 0.85682 1.21300
Fe	Fe	0.55902 0.11407 0.70359 1.21100
Mn	Mn	0.70493 0.05319 0.97869 1.29100
Mn	Mn	0.62383 0.96888 0.71398 1.27000
Mn	Mn	0.55363 0.23522 0.80511 1.29100
O 	O 	0.76860 0.14124 0.77587 -0.32500
O 	O 	0.48600 0.03135 0.89160 -0.32300
O 	O 	0.69430 0.13069 0.89094 -0.60400
O 	O 	0.69520 0.02627 0.79141 -0.60000
O 	O 	0.62910 0.15356 0.76229 -0.60300
O 	O 	0.62650 0.01412 0.89986 -0.60200
O 	O 	0.55680 0.04710 0.77569 -0.60000
O 	O 	0.56210 0.14383 0.88100 -0.59600
O 	O 	0.80560 0.11670 0.97340 -0.34600
O 	O 	0.89130 0.06210 0.01500 -0.23300
O 	O 	0.82640 0.07280 0.85790 -0.25200
O 	O 	0.75280 0.98320 0.92640 -0.48100
O 	O 	0.78010 0.92060 0.82420 -0.36400
O 	O 	0.89000 0.91410 0.84420 -0.21100
O 	O 	0.73550 0.96620 0.67720 -0.38700
O 	O 	0.74810 0.95510 0.57290 -0.40100
O 	O 	0.73750 0.09220 0.67050 -0.23900
O 	O 	0.60700 0.04680 0.65600 -0.49300
O 	O 	0.59170 0.16530 0.62870 -0.35800
O 	O 	0.65170 0.16210 0.53910 -0.20800
O 	O 	0.62630 0.28580 0.73410 -0.37800
O 	O 	0.64030 0.39050 0.75520 -0.23200
O 	O 	0.73140 0.25340 0.80440 -0.24500
O 	O 	0.61620 0.26280 0.87910 -0.47800
O 	O 	0.70620 0.24660 0.96380 -0.36300
O 	O 	0.75360 0.34270 0.94990 -0.20500
O 	O 	0.34200 0.37840 0.59250 -0.36800
O 	O 	0.40170 0.28960 0.59700 -0.21200
O 	O 	0.36070 0.40950 0.70890 -0.49700
O 	O 	0.48900 0.42485 0.65910 -0.23400
O 	O 	0.49100 0.43439 0.78530 -0.38100
O 	O 	0.50640 0.33040 0.79820 -0.40400
O 	O 	0.46950 0.08310 0.67200 -0.35100
O 	O 	0.36110 0.10630 0.67070 -0.20800
O 	O 	0.50240 0.18377 0.73660 -0.48700
O 	O 	0.42730 0.11690 0.82650 -0.24900
O 	O 	0.45620 0.23090 0.87090 -0.35700
O 	O 	0.37020 0.27610 0.82120 -0.24500
O 	O 	0.55760 0.21740 0.99890 -0.36900
O 	O 	0.51870 0.20490 0.09690 -0.21600
O 	O 	0.64590 0.12970 0.00990 -0.46900
O 	O 	0.52860 0.05840 0.00160 -0.25000
O 	O 	0.62950 0.98340 0.03000 -0.37100
O 	O 	0.61820 0.00250 0.13520 -0.23900
C 	C 	0.85350 0.07460 0.97080 0.28000
C 	C 	0.85770 0.03810 0.90840 -0.05700
H 	H 	0.90480 0.03120 0.89760 0.08300
C 	C 	0.82330 0.97370 0.91530 0.00000
H 	H 	0.84230 0.95140 0.95220 0.05700
C 	C 	0.83400 0.93260 0.85680 0.29100
C 	C 	0.73720 0.98750 0.62000 0.36100
C 	C 	0.72020 0.05910 0.61390 -0.09300
H 	H 	0.74490 0.07740 0.57790 0.08400
C 	C 	0.64540 0.06700 0.60230 0.01700
H 	H 	0.63300 0.04040 0.56560 0.04900
C 	C 	0.62880 0.13570 0.58690 0.27300
C 	C 	0.65250 0.33260 0.76390 0.29100
C 	C 	0.70210 0.31390 0.81670 -0.06000
H 	H 	0.73720 0.34650 0.81930 0.08300
C 	C 	0.66470 0.31140 0.87950 0.01600
H 	H 	0.64190 0.35250 0.88550 0.05900
C 	C 	0.71070 0.30130 0.93490 0.26900
C 	C 	0.37950 0.33940 0.62110 0.28600
C 	C 	0.39860 0.35610 0.69010 0.03100
H 	H 	0.38720 0.31990 0.71770 0.04200
C 	C 	0.47250 0.36820 0.69460 -0.10200
H 	H 	0.49640 0.33160 0.67640 0.08700
C 	C 	0.49230 0.37590 0.76580 0.36600
C 	C 	0.41700 0.11850 0.68760 0.28100
C 	C 	0.43180 0.17570 0.72870 0.00300
H 	H 	0.41370 0.21410 0.70790 0.05400
C 	C 	0.39880 0.16820 0.79380 -0.05200
H 	H 	0.35110 0.15970 0.78770 0.08100
C 	C 	0.40670 0.23120 0.83200 0.29700
C 	C 	0.55400 0.18810 0.05200 0.29500
C 	C 	0.59890 0.13120 0.05940 -0.00100
H 	H 	0.62280 0.13520 0.10000 0.06600
C 	C 	0.55780 0.06950 0.06080 -0.04200
H 	H 	0.52270 0.07350 0.09310 0.07600
C 	C 	0.60490 0.01290 0.07910 0.28800
Sb	Sb	0.71244 0.83969 0.37298 0.54700
Sb	Sb	0.72003 0.95210 0.24613 0.56600
Sb	Sb	0.79396 0.79830 0.22612 0.54400
Sb	Sb	0.95066 0.02147 0.44914 0.54200
Sb	Sb	0.02845 0.99670 0.29759 0.55900
Sb	Sb	0.02875 0.87179 0.41304 0.55400
Fe	Fe	0.87238 0.91391 0.33327 1.17300
Fe	Fe	0.86934 0.80999 0.43837 1.21100
Fe	Fe	0.80722 0.04639 0.35682 1.21200
Fe	Fe	0.94098 0.88593 0.20359 1.21200
Mn	Mn	0.79507 0.94681 0.47869 1.29100
Mn	Mn	0.87617 0.03112 0.21398 1.27000
Mn	Mn	0.94637 0.76478 0.30511 1.29100
O 	O 	0.73140 0.85876 0.27587 -0.32500
O 	O 	0.01400 0.96865 0.39160 -0.32300
O 	O 	0.80570 0.86931 0.39094 -0.60400
O 	O 	0.80480 0.97373 0.29141 -0.59900
O 	O 	0.87090 0.84644 0.26229 -0.60300
O 	O 	0.87350 0.98588 0.39986 -0.60200
O 	O 	0.94320 0.95290 0.27569 -0.59800
O 	O 	0.93790 0.85617 0.38100 -0.59500
O 	O 	0.69440 0.88330 0.47340 -0.34600
O 	O 	0.60870 0.93790 0.51500 -0.23400
O 	O 	0.67360 0.92720 0.35790 -0.25200
O 	O 	0.74720 0.01680 0.42640 -0.48100
O 	O 	0.71990 0.07940 0.32420 -0.36400
O 	O 	0.61000 0.08590 0.34420 -0.21100
O 	O 	0.76450 0.03380 0.17720 -0.38700
O 	O 	0.75190 0.04490 0.07290 -0.40100
O 	O 	0.76250 0.90780 0.17050 -0.23900
O 	O 	0.89300 0.95320 0.15600 -0.49200
O 	O 	0.90830 0.83470 0.12870 -0.35700
O 	O 	0.84830 0.83790 0.03910 -0.20800
O 	O 	0.87370 0.71420 0.23410 -0.37800
O 	O 	0.85970 0.60950 0.25520 -0.23200
O 	O 	0.76860 0.74660 0.30440 -0.24500
O 	O 	0.88380 0.73720 0.37910 -0.47800
O 	O 	0.79380 0.75340 0.46380 -0.36300
O 	O 	0.74640 0.65730 0.44990 -0.20500
O 	O 	0.15800 0.62160 0.09250 -0.36900
O 	O 	0.09830 0.71040 0.09700 -0.21300
O 	O 	0.13930 0.59050 0.20890 -0.49700
O 	O 	0.01100 0.57515 0.15910 -0.23500
O 	O 	0.00900 0.56561 0.28530 -0.38100
O 	O 	0.99360 0.66960 0.29820 -0.40300
O 	O 	0.03050 0.91690 0.17200 -0.35300
O 	O 	0.13890 0.89370 0.17070 -0.20900
O 	O 	0.99760 0.81623 0.23660 -0.48500
O 	O 	0.07270 0.88310 0.32650 -0.24900
O 	O 	0.04380 0.76910 0.37090 -0.35800
O 	O 	0.12980 0.72390 0.32120 -0.24600
O 	O 	0.94240 0.78260 0.49890 -0.36800
O 	O 	0.98130 0.79510 0.59690 -0.21600
O 	O 	0.85410 0.87030 0.50990 -0.46900
O 	O 	0.97140 0.94160 0.50160 -0.24900
O 	O 	0.87050 0.01660 0.53000 -0.37200
O 	O 	0.88180 0.99750 0.63520 -0.23900
C 	C 	0.64650 0.92540 0.47080 0.28200
C 	C 	0.64230 0.96190 0.40840 -0.05800
H 	H 	0.59520 0.96880 0.39760 0.08300
C 	C 	0.67670 0.02630 0.41530 -0.00000
H 	H 	0.65770 0.04860 0.45220 0.05700
C 	C 	0.66600 0.06740 0.35680 0.29100
C 	C 	0.76280 0.01250 0.12000 0.36100
C 	C 	0.77980 0.94090 0.11390 -0.09200
H 	H 	0.75510 0.92260 0.07790 0.08400
C 	C 	0.85460 0.93300 0.10230 0.01700
H 	H 	0.86700 0.95960 0.06560 0.04900
C 	C 	0.87120 0.86430 0.08690 0.27300
C 	C 	0.84750 0.66740 0.26390 0.29100
C 	C 	0.79790 0.68610 0.31670 -0.06000
H 	H 	0.76280 0.65350 0.31930 0.08300
C 	C 	0.83530 0.68860 0.37950 0.01600
H 	H 	0.85810 0.64750 0.38550 0.05900
C 	C 	0.78930 0.69870 0.43490 0.26900
C 	C 	0.12050 0.66060 0.12110 0.28600
C 	C 	0.10140 0.64390 0.19010 0.03100
H 	H 	0.11280 0.68010 0.21770 0.04200
C 	C 	0.02750 0.63180 0.19460 -0.10100
H 	H 	0.00360 0.66840 0.17640 0.08600
C 	C 	0.00770 0.62410 0.26580 0.36400
C 	C 	0.08300 0.88150 0.18760 0.28100
C 	C 	0.06820 0.82430 0.22870 0.00100
H 	H 	0.08630 0.78590 0.20790 0.05400
C 	C 	0.10120 0.83180 0.29380 -0.05100
H 	H 	0.14890 0.84030 0.28770 0.08100
C 	C 	0.09330 0.76880 0.33200 0.29600
C 	C 	0.94600 0.81190 0.55200 0.29600
C 	C 	0.90110 0.86880 0.55940 -0.00100
H 	H 	0.87720 0.86480 0.60000 0.06600
C 	C 	0.94220 0.93050 0.56080 -0.04200
H 	H 	0.97730 0.92650 0.59310 0.07600
C 	C 	0.89510 0.98710 0.57910 0.28800
Sb	Sb	0.21244 0.66031 0.62702 0.54700
Sb	Sb	0.22003 0.54790 0.75387 0.56500
Sb	Sb	0.29396 0.70170 0.77388 0.54400
Sb	Sb	0.45066 0.47853 0.55086 0.54300
Sb	Sb	0.52845 0.50330 0.70241 0.56100
Sb	Sb	0.52875 0.62821 0.58696 0.55500
Fe	Fe	0.37238 0.58609 0.66673 1.17300
Fe	Fe	0.36934 0.69001 0.56163 1.21100
Fe	Fe	0.30722 0.45361 0.64318 1.21200
Fe	Fe	0.44098 0.61407 0.79641 1.21100
Mn	Mn	0.29507 0.55319 0.52131 1.29100
Mn	Mn	0.37617 0.46888 0.78602 1.27100
Mn	Mn	0.44637 0.73522 0.69489 1.29100
O 	O 	0.23140 0.64124 0.72413 -0.32500
O 	O 	0.51400 0.53135 0.60840 -0.32300
O 	O 	0.30570 0.63069 0.60906 -0.60400
O 	O 	0.30480 0.52627 0.70859 -0.60000
O 	O 	0.37090 0.65356 0.73771 -0.60300
O 	O 	0.37350 0.51412 0.60014 -0.60300
O 	O 	0.44320 0.54710 0.72431 -0.60000
O 	O 	0.43790 0.64383 0.61900 -0.59600
O 	O 	0.19440 0.61670 0.52660 -0.34600
O 	O 	0.10870 0.56210 0.48500 -0.23400
O 	O 	0.17360 0.57280 0.64210 -0.25200
O 	O 	0.24720 0.48320 0.57360 -0.48100
O 	O 	0.21990 0.42060 0.67580 -0.36400
O 	O 	0.11000 0.41410 0.65580 -0.21100
O 	O 	0.26450 0.46620 0.82280 -0.38700
O 	O 	0.25190 0.45510 0.92710 -0.40100
O 	O 	0.26250 0.59220 0.82950 -0.23800
O 	O 	0.39300 0.54680 0.84400 -0.49300
O 	O 	0.40830 0.66530 0.87130 -0.35800
O 	O 	0.34830 0.66210 0.96090 -0.20800
O 	O 	0.37370 0.78580 0.76590 -0.37800
O 	O 	0.35970 0.89050 0.74480 -0.23200
O 	O 	0.26860 0.75340 0.69560 -0.24500
O 	O 	0.38380 0.76280 0.62090 -0.47800
O 	O 	0.29380 0.74660 0.53620 -0.36300
O 	O 	0.24640 0.84270 0.55010 -0.20500
O 	O 	0.65800 0.87840 0.90750 -0.36900
O 	O 	0.59830 0.78960 0.90300 -0.21200
O 	O 	0.63930 0.90950 0.79110 -0.49700
O 	O 	0.51100 0.92485 0.84090 -0.23400
O 	O 	0.50900 0.93439 0.71470 -0.38200
O 	O 	0.49360 0.83040 0.70180 -0.40400
O 	O 	0.53050 0.58310 0.82800 -0.35200
O 	O 	0.63890 0.60630 0.82930 -0.20900
O 	O 	0.49760 0.68377 0.76340 -0.48700
O 	O 	0.57270 0.61690 0.67350 -0.24900
O 	O 	0.54380 0.73090 0.62910 -0.35700
O 	O 	0.62980 0.77610 0.67880 -0.24600
O 	O 	0.44240 0.71740 0.50110 -0.36900
O 	O 	0.48130 0.70490 0.40310 -0.21600
O 	O 	0.35410 0.62970 0.49010 -0.46900
O 	O 	0.47140 0.55840 0.49840 -0.25000
O 	O 	0.37050 0.48340 0.47000 -0.37200
O 	O 	0.38180 0.50250 0.36480 -0.23900
C 	C 	0.14650 0.57460 0.52920 0.28200
C 	C 	0.14230 0.53810 0.59160 -0.05800
H 	H 	0.09520 0.53120 0.60240 0.08300
C 	C 	0.17670 0.47370 0.58470 -0.00000
H 	H 	0.15770 0.45140 0.54780 0.05700
C 	C 	0.16600 0.43260 0.64320 0.29100
C 	C 	0.26280 0.48750 0.88000 0.36100
C 	C 	0.27980 0.55910 0.88610 -0.09300
H 	H 	0.25510 0.57740 0.92210 0.08500
C 	C 	0.35460 0.56700 0.89770 0.01700
H 	H 	0.36700 0.54040 0.93440 0.04900
C 	C 	0.37120 0.63570 0.91310 0.27300
C 	C 	0.34750 0.83260 0.73610 0.29100
C 	C 	0.29790 0.81390 0.68330 -0.06000
H 	H 	0.26280 0.84650 0.68070 0.08300
C 	C 	0.33530 0.81140 0.62050 0.01600
H 	H 	0.35810 0.85250 0.61450 0.05900
C 	C 	0.28930 0.80130 0.56510 0.26900
C 	C 	0.62050 0.83940 0.87890 0.28600
C 	C 	0.60140 0.85610 0.80990 0.03100
H 	H 	0.61280 0.81990 0.78230 0.04200
C 	C 	0.52750 0.86820 0.80540 -0.10200
H 	H 	0.50360 0.83160 0.82360 0.08700
C 	C 	0.50770 0.87590 0.73420 0.36600
C 	C 	0.58300 0.61850 0.81240 0.28100
C 	C 	0.56820 0.67570 0.77130 0.00300
H 	H 	0.58630 0.71410 0.79210 0.05400
C 	C 	0.60120 0.66820 0.70620 -0.05200
H 	H 	0.64890 0.65970 0.71230 0.08100
C 	C 	0.59330 0.73120 0.66800 0.29700
C 	C 	0.44600 0.68810 0.44800 0.29600
C 	C 	0.40110 0.63120 0.44060 -0.00100
H 	H 	0.37720 0.63520 0.40000 0.06600
C 	C 	0.44220 0.56950 0.43920 -0.04200
H 	H 	0.47730 0.57350 0.40690 0.07600
C 	C 	0.39510 0.51290 0.42090 0.28800
Sb	Sb	0.28756 0.33969 0.12702 0.54700
Sb	Sb	0.27997 0.45210 0.25387 0.56500
Sb	Sb	0.20604 0.29830 0.27388 0.54400
Sb	Sb	0.04934 0.52147 0.05086 0.54000
Sb	Sb	0.97155 0.49670 0.20241 0.56300
Sb	Sb	0.97125 0.37179 0.08696 0.55500
Fe	Fe	0.12762 0.41391 0.16673 1.17300
Fe	Fe	0.13066 0.30999 0.06163 1.21000
Fe	Fe	0.19278 0.54639 0.14318 1.21200
Fe	Fe	0.05902 0.38593 0.29641 1.21100
Mn	Mn	0.20493 0.44681 0.02131 1.29100
Mn	Mn	0.12383 0.53112 0.28602 1.27100
Mn	Mn	0.05363 0.26478 0.19489 1.29100
O 	O 	0.26860 0.35876 0.22413 -0.32500
O 	O 	0.98600 0.46865 0.10840 -0.32200
O 	O 	0.19430 0.36931 0.10906 -0.60400
O 	O 	0.19520 0.47373 0.20859 -0.60000
O 	O 	0.12910 0.34644 0.23771 -0.60300
O 	O 	0.12650 0.48588 0.10014 -0.60300
O 	O 	0.05680 0.45290 0.22431 -0.60000
O 	O 	0.06210 0.35617 0.11900 -0.59700
O 	O 	0.30560 0.38330 0.02660 -0.34700
O 	O 	0.39130 0.43790 0.98500 -0.23300
O 	O 	0.32640 0.42720 0.14210 -0.25200
O 	O 	0.25280 0.51680 0.07360 -0.48100
O 	O 	0.28010 0.57940 0.17580 -0.36400
O 	O 	0.39000 0.58590 0.15580 -0.21100
O 	O 	0.23550 0.53380 0.32280 -0.38700
O 	O 	0.24810 0.54490 0.42710 -0.40200
O 	O 	0.23750 0.40780 0.32950 -0.23900
O 	O 	0.10700 0.45320 0.34400 -0.49300
O 	O 	0.09170 0.33470 0.37130 -0.35800
O 	O 	0.15170 0.33790 0.46090 -0.20800
O 	O 	0.12630 0.21420 0.26590 -0.37800
O 	O 	0.14030 0.10950 0.24480 -0.23100
O 	O 	0.23140 0.24660 0.19560 -0.24400
O 	O 	0.11620 0.23720 0.12090 -0.47800
O 	O 	0.20620 0.25340 0.03620 -0.36300
O 	O 	0.25360 0.15730 0.05010 -0.20500
O 	O 	0.84200 0.12160 0.40750 -0.36800
O 	O 	0.90170 0.21040 0.40300 -0.21200
O 	O 	0.86070 0.09050 0.29110 -0.49700
O 	O 	0.98900 0.07515 0.34090 -0.23400
O 	O 	0.99100 0.06561 0.21470 -0.38100
O 	O 	0.00640 0.16960 0.20180 -0.40400
O 	O 	0.96950 0.41690 0.32800 -0.35200
O 	O 	0.86110 0.39370 0.32930 -0.20800
O 	O 	0.00240 0.31623 0.26340 -0.48700
O 	O 	0.92730 0.38310 0.17350 -0.24900
O 	O 	0.95620 0.26910 0.12910 -0.35700
O 	O 	0.87020 0.22390 0.17880 -0.24600
O 	O 	0.05760 0.28260 0.00110 -0.37100
O 	O 	0.01870 0.29510 0.90310 -0.21600
O 	O 	0.14590 0.37030 0.99010 -0.46800
O 	O 	0.02860 0.44160 0.99840 -0.24900
O 	O 	0.12950 0.51660 0.97000 -0.37100
O 	O 	0.11820 0.49750 0.86480 -0.23900
C 	C 	0.35350 0.42540 0.02920 0.28100
C 	C 	0.35770 0.46190 0.09160 -0.05700
H 	H 	0.40480 0.46880 0.10240 0.08300
C 	C 	0.32330 0.52630 0.08470 -0.00000
H 	H 	0.34230 0.54860 0.04780 0.05700
C 	C 	0.33400 0.56740 0.14320 0.29100
C 	C 	0.23720 0.51250 0.38000 0.36100
C 	C 	0.22020 0.44090 0.38610 -0.09300
H 	H 	0.24490 0.42260 0.42210 0.08400
C 	C 	0.14540 0.43300 0.39770 0.01700
H 	H 	0.13300 0.45960 0.43440 0.04900
C 	C 	0.12880 0.36430 0.41310 0.27300
C 	C 	0.15250 0.16740 0.23610 0.29100
C 	C 	0.20210 0.18610 0.18330 -0.06000
H 	H 	0.23720 0.15350 0.18070 0.08300
C 	C 	0.16470 0.18860 0.12050 0.01600
H 	H 	0.14190 0.14750 0.11450 0.05900
C 	C 	0.21070 0.19870 0.06510 0.26900
C 	C 	0.87950 0.16060 0.37890 0.28600
C 	C 	0.89860 0.14390 0.30990 0.03100
H 	H 	0.88720 0.18010 0.28230 0.04200
C 	C 	0.97250 0.13180 0.30540 -0.10200
H 	H 	0.99640 0.16840 0.32360 0.08700
C 	C 	0.99230 0.12410 0.23420 0.36600
C 	C 	0.91700 0.38150 0.31240 0.28100
C 	C 	0.93180 0.32430 0.27130 0.00300
H 	H 	0.91370 0.28590 0.29210 0.05400
C 	C 	0.89880 0.33180 0.20620 -0.05200
H 	H 	0.85110 0.34030 0.21230 0.08100
C 	C 	0.90670 0.26880 0.16800 0.29700
C 	C 	0.05400 0.31190 0.94800 0.29800
C 	C 	0.09890 0.36880 0.94060 -0.00200
H 	H 	0.12280 0.36480 0.90000 0.06600
C 	C 	0.05780 0.43050 0.93920 -0.04200
H 	H 	0.02270 0.42650 0.90690 0.07600
C 	C 	0.10490 0.48710 0.92090 0.28800
