data_crystal

_cell_length_a 5.70700
_cell_length_b 8.74900
_cell_length_c 13.44200
_cell_angle_alpha 90.00000
_cell_angle_beta  90.00000
_cell_angle_gamma 90.00000

_symmetry_space_group_name_	'P 1'
_symmetry_space_group_name_H-M	'P 1'

loop_
_symmetry_equiv_pos_as_xyz
  x,y,z

loop_
_atom_site_label
_atom_site_type_symbol
_atom_site_fract_x
_atom_site_fract_y
_atom_site_fract_z
_atom_site_charge
Np	Np	0.50000 0.67307 0.47682 0.02600
Np	Np	-0.00000 0.32693 0.52318 0.04500
Np	Np	0.50000 0.82693 0.97682 0.02800
Np	Np	0.00000 0.17307 0.02318 0.04300
C 	C 	0.49500 0.76130 0.23540 0.24600
C 	C 	0.34100 0.62700 0.23000 0.10500
C 	C 	0.99500 0.23870 0.76460 0.13900
C 	C 	0.84100 0.37300 0.77000 0.11200
C 	C 	0.49500 0.73870 0.73540 0.24600
C 	C 	0.34100 0.87300 0.73000 0.10700
C 	C 	0.99500 0.26130 0.26460 0.13900
C 	C 	0.84100 0.12700 0.27000 0.11100
O 	O 	0.73200 0.52950 0.47100 -0.04200
O 	O 	0.60500 0.78800 0.31540 -0.14400
O 	O 	0.54800 0.83480 0.15560 -0.13300
O 	O 	0.31800 0.56700 0.32540 -0.07900
O 	O 	0.23200 0.47050 0.52900 -0.01600
O 	O 	0.10500 0.21200 0.68460 -0.08400
O 	O 	0.04800 0.16520 0.84440 -0.07500
O 	O 	0.81800 0.43300 0.67460 -0.10100
O 	O 	0.73200 0.97050 0.97100 -0.03800
O 	O 	0.60500 0.71200 0.81540 -0.14400
O 	O 	0.54800 0.66520 0.65560 -0.13300
O 	O 	0.31800 0.93300 0.82540 -0.07700
O 	O 	0.23200 0.02950 0.02900 -0.01900
O 	O 	0.10500 0.28800 0.18460 -0.08400
O 	O 	0.04800 0.33480 0.34440 -0.07500
O 	O 	0.81800 0.06700 0.17460 -0.10300
