data_crystal

_cell_length_a 13.61800
_cell_length_b 13.66400
_cell_length_c 16.95400
_cell_angle_alpha 110.74000
_cell_angle_beta  90.00000
_cell_angle_gamma 90.00000

_symmetry_space_group_name_	'P 1'
_symmetry_space_group_name_H-M	'P 1'

loop_
_symmetry_equiv_pos_as_xyz
  x,y,z

loop_
_atom_site_label
_atom_site_type_symbol
_atom_site_fract_x
_atom_site_fract_y
_atom_site_fract_z
_atom_site_charge
Mn	Mn	0.18944 0.77151 0.66034 1.19500
Mn	Mn	0.28431 0.33393 0.19512 1.20100
Mn	Mn	0.68944 0.22849 0.83966 1.19600
Mn	Mn	0.78431 0.66607 0.30488 1.20100
Mn	Mn	0.81056 0.22849 0.33966 1.19600
Mn	Mn	0.71569 0.66607 0.80488 1.20200
Mn	Mn	0.31056 0.77151 0.16034 1.19700
Mn	Mn	0.21569 0.33393 0.69512 1.20200
Ru	Ru	0.52629 0.99838 0.43641 0.91600
Ru	Ru	0.07782 0.98922 0.47537 0.96100
Ru	Ru	0.50202 0.56695 0.47573 0.95800
Ru	Ru	0.02629 0.00162 0.06359 0.90500
Ru	Ru	0.57782 0.01078 0.02463 0.95300
Ru	Ru	0.00202 0.43305 0.02427 0.95500
Ru	Ru	0.47371 0.00162 0.56359 0.91600
Ru	Ru	0.92218 0.01078 0.52463 0.96100
Ru	Ru	0.49798 0.43305 0.52427 0.95800
Ru	Ru	0.97371 0.99838 0.93641 0.90500
Ru	Ru	0.42218 0.98922 0.97537 0.95300
Ru	Ru	0.99798 0.56695 0.97573 0.95500
C 	C 	0.50760 0.79070 0.44640 0.49100
C 	C 	0.31480 0.98330 0.44540 0.48800
C 	C 	0.95520 0.80820 0.39580 0.49900
C 	C 	0.05270 0.92760 0.62090 0.50300
C 	C 	0.37180 0.39900 0.37860 0.52100
C 	C 	0.65140 0.40930 0.39960 0.51300
C 	C 	0.00760 0.20930 0.05360 0.47900
C 	C 	0.81480 0.01670 0.05460 0.47700
C 	C 	0.45520 0.19180 0.10420 0.50000
C 	C 	0.55270 0.07240 0.87910 0.49800
C 	C 	0.87180 0.60100 0.12140 0.52100
C 	C 	0.15140 0.59070 0.10040 0.51300
C 	C 	0.49240 0.20930 0.55360 0.49100
C 	C 	0.68520 0.01670 0.55460 0.48800
C 	C 	0.04480 0.19180 0.60420 0.49900
C 	C 	0.94730 0.07240 0.37910 0.50300
C 	C 	0.62820 0.60100 0.62140 0.52100
C 	C 	0.34860 0.59070 0.60040 0.51300
C 	C 	0.99240 0.79070 0.94640 0.47900
C 	C 	0.18520 0.98330 0.94540 0.47700
C 	C 	0.54480 0.80820 0.89580 0.50000
C 	C 	0.44730 0.92760 0.12090 0.49800
C 	C 	0.12820 0.39900 0.87860 0.52100
C 	C 	0.84860 0.40930 0.89960 0.51300
O 	O 	0.53120 0.84030 0.39610 -0.47100
O 	O 	0.47990 0.84250 0.52330 -0.43700
O 	O 	0.51170 0.69200 0.41740 -0.39300
O 	O 	0.38610 0.98800 0.39570 -0.43900
O 	O 	0.33230 0.99130 0.52270 -0.45200
O 	O 	0.22860 0.97070 0.41560 -0.36800
O 	O 	0.04510 0.84160 0.39810 -0.43000
O 	O 	0.88990 0.86430 0.44700 -0.48400
O 	O 	0.93290 0.72060 0.34040 -0.48900
O 	O 	0.11720 0.93650 0.56850 -0.47900
O 	O 	0.96210 0.95570 0.61650 -0.43100
O 	O 	0.07600 0.89160 0.67780 -0.49700
O 	O 	0.40500 0.49020 0.38380 -0.46800
O 	O 	0.31160 0.34960 0.32220 -0.51300
O 	O 	0.40120 0.35700 0.43290 -0.42900
O 	O 	0.61700 0.49860 0.40030 -0.46600
O 	O 	0.61100 0.36370 0.44690 -0.46700
O 	O 	0.72370 0.36790 0.35250 -0.53400
O 	O 	0.03120 0.15970 0.10390 -0.47100
O 	O 	0.97990 0.15750 0.97670 -0.42500
O 	O 	0.01170 0.30800 0.08260 -0.39200
O 	O 	0.88610 0.01200 0.10430 -0.43700
O 	O 	0.83230 0.00870 0.97730 -0.43800
O 	O 	0.72860 0.02930 0.08440 -0.36900
O 	O 	0.54510 0.15840 0.10190 -0.43400
O 	O 	0.38990 0.13570 0.05300 -0.48700
O 	O 	0.43290 0.27940 0.15960 -0.49100
O 	O 	0.61720 0.06350 0.93150 -0.47200
O 	O 	0.46210 0.04430 0.88350 -0.41900
O 	O 	0.57600 0.10840 0.82220 -0.49500
O 	O 	0.90500 0.50980 0.11620 -0.46600
O 	O 	0.81160 0.65040 0.17780 -0.51100
O 	O 	0.90120 0.64300 0.06710 -0.42600
O 	O 	0.11700 0.50140 0.09970 -0.46600
O 	O 	0.11100 0.63630 0.05310 -0.46600
O 	O 	0.22370 0.63210 0.14750 -0.53400
O 	O 	0.46880 0.15970 0.60390 -0.47100
O 	O 	0.52010 0.15750 0.47670 -0.43700
O 	O 	0.48830 0.30800 0.58260 -0.39300
O 	O 	0.61390 0.01200 0.60430 -0.43900
O 	O 	0.66770 0.00870 0.47730 -0.45200
O 	O 	0.77140 0.02930 0.58440 -0.36800
O 	O 	0.95490 0.15840 0.60190 -0.43000
O 	O 	0.11010 0.13570 0.55300 -0.48400
O 	O 	0.06710 0.27940 0.65960 -0.48900
O 	O 	0.88280 0.06350 0.43150 -0.47900
O 	O 	0.03790 0.04430 0.38350 -0.43100
O 	O 	0.92400 0.10840 0.32220 -0.49700
O 	O 	0.59500 0.50980 0.61620 -0.46800
O 	O 	0.68840 0.65040 0.67780 -0.51300
O 	O 	0.59880 0.64300 0.56710 -0.42900
O 	O 	0.38300 0.50140 0.59970 -0.46600
O 	O 	0.38900 0.63630 0.55310 -0.46700
O 	O 	0.27630 0.63210 0.64750 -0.53400
O 	O 	0.96880 0.84030 0.89610 -0.47100
O 	O 	0.02010 0.84250 0.02330 -0.42500
O 	O 	0.98830 0.69200 0.91740 -0.39200
O 	O 	0.11390 0.98800 0.89570 -0.43700
O 	O 	0.16770 0.99130 0.02270 -0.43800
O 	O 	0.27140 0.97070 0.91560 -0.36900
O 	O 	0.45490 0.84160 0.89810 -0.43400
O 	O 	0.61010 0.86430 0.94700 -0.48700
O 	O 	0.56710 0.72060 0.84040 -0.49100
O 	O 	0.38280 0.93650 0.06850 -0.47200
O 	O 	0.53790 0.95570 0.11650 -0.41900
O 	O 	0.42400 0.89160 0.17780 -0.49500
O 	O 	0.09500 0.49020 0.88380 -0.46600
O 	O 	0.18840 0.34960 0.82220 -0.51100
O 	O 	0.09880 0.35700 0.93290 -0.42600
O 	O 	0.88300 0.49860 0.90030 -0.46600
O 	O 	0.88900 0.36370 0.94690 -0.46600
O 	O 	0.77630 0.36790 0.85250 -0.53400
