data_crystal

_cell_length_a 23.64900
_cell_length_b 15.76540
_cell_length_c 16.21820
_cell_angle_alpha 90.00000
_cell_angle_beta  124.27200
_cell_angle_gamma 90.00000

_symmetry_space_group_name_	'P 1'
_symmetry_space_group_name_H-M	'P 1'

loop_
_symmetry_equiv_pos_as_xyz
  x,y,z

loop_
_atom_site_label
_atom_site_type_symbol
_atom_site_fract_x
_atom_site_fract_y
_atom_site_fract_z
_atom_site_charge
Nd	Nd	0.68931 0.32871 0.87863 2.05000
C 	C 	0.40210 0.22260 0.46970 -0.08700
C 	C 	0.41620 0.18760 0.40410 -0.10000
H 	H 	0.38070 0.16210 0.34370 0.09100
C 	C 	0.48230 0.19040 0.42770 0.18000
C 	C 	0.53430 0.22780 0.51460 -0.12000
H 	H 	0.57920 0.23060 0.52900 0.11100
C 	C 	0.52070 0.26150 0.58140 -0.03600
C 	C 	0.45470 0.25820 0.55930 0.00400
H 	H 	0.44560 0.28010 0.60520 0.01400
C 	C 	0.45480 0.09470 0.29920 0.18300
C 	C 	0.40140 0.11100 0.20120 -0.01500
C 	C 	0.35990 0.04490 0.14060 0.03800
H 	H 	0.32300 0.05620 0.07380 0.04100
C 	C 	0.37160 0.96270 0.17670 -0.17500
C 	C 	0.42720 0.94720 0.27370 0.10900
H 	H 	0.43680 0.89080 0.29860 0.00700
C 	C 	0.46860 0.01260 0.33420 -0.19700
H 	H 	0.50660 0.00090 0.40010 0.11000
C 	C 	0.32940 0.22080 0.43920 0.40900
C 	C 	0.32440 0.89220 0.11310 0.48300
C 	C 	0.57820 0.29810 0.67740 0.29400
N 	N 	0.38460 0.19620 0.15820 0.01300
O 	O 	0.31220 0.26050 0.48990 -0.59600
O 	O 	0.28684 0.17900 0.36300 -0.47000
O 	O 	0.40750 0.25720 0.21370 -0.10900
O 	O 	0.34830 0.20270 0.06720 -0.11600
O 	O 	0.27962 0.90910 0.02340 -0.53200
O 	O 	0.33320 0.82240 0.15610 -0.50400
O 	O 	0.63704 0.30110 0.69470 -0.40300
O 	O 	0.56653 0.32400 0.74070 -0.45200
O 	O 	0.49892 0.15800 0.36410 -0.22100
Nd	Nd	0.18931 0.82871 0.87863 2.04200
C 	C 	0.90210 0.72260 0.46970 -0.08800
C 	C 	0.91620 0.68760 0.40410 -0.10000
H 	H 	0.88070 0.66210 0.34370 0.09100
C 	C 	0.98230 0.69040 0.42770 0.18000
C 	C 	0.03430 0.72780 0.51460 -0.12000
H 	H 	0.07920 0.73060 0.52900 0.11000
C 	C 	0.02070 0.76150 0.58140 -0.03700
C 	C 	0.95470 0.75820 0.55930 0.00500
H 	H 	0.94560 0.78010 0.60520 0.01400
C 	C 	0.95480 0.59470 0.29920 0.18400
C 	C 	0.90140 0.61100 0.20120 -0.01600
C 	C 	0.85990 0.54490 0.14060 0.04100
H 	H 	0.82300 0.55620 0.07380 0.04000
C 	C 	0.87160 0.46270 0.17670 -0.17700
C 	C 	0.92720 0.44720 0.27370 0.10900
H 	H 	0.93680 0.39080 0.29860 0.00600
C 	C 	0.96860 0.51260 0.33420 -0.19700
H 	H 	0.00660 0.50090 0.40010 0.11000
C 	C 	0.82940 0.72080 0.43920 0.40900
C 	C 	0.82440 0.39220 0.11310 0.48400
C 	C 	0.07820 0.79810 0.67740 0.29400
N 	N 	0.88460 0.69620 0.15820 0.01300
O 	O 	0.81220 0.76050 0.48990 -0.59600
O 	O 	0.78684 0.67900 0.36300 -0.47000
O 	O 	0.90750 0.75720 0.21370 -0.10900
O 	O 	0.84830 0.70270 0.06720 -0.11500
O 	O 	0.77962 0.40910 0.02340 -0.53500
O 	O 	0.83320 0.32240 0.15610 -0.50400
O 	O 	0.13704 0.80110 0.69470 -0.40200
O 	O 	0.06653 0.82400 0.74070 -0.45200
O 	O 	0.99892 0.65800 0.36410 -0.22100
Nd	Nd	0.31069 0.32871 0.62137 2.04700
C 	C 	0.59790 0.22260 0.03030 -0.09100
C 	C 	0.58380 0.18760 0.09590 -0.09700
H 	H 	0.61930 0.16210 0.15630 0.09000
C 	C 	0.51770 0.19040 0.07230 0.17600
C 	C 	0.46570 0.22780 0.98540 -0.11600
H 	H 	0.42080 0.23060 0.97100 0.11000
C 	C 	0.47930 0.26150 0.91860 -0.03900
C 	C 	0.54530 0.25820 0.94070 0.00900
H 	H 	0.55440 0.28010 0.89480 0.01300
C 	C 	0.54520 0.09470 0.20080 0.18400
C 	C 	0.59860 0.11100 0.29880 -0.01600
C 	C 	0.64010 0.04490 0.35940 0.04000
H 	H 	0.67700 0.05620 0.42620 0.04100
C 	C 	0.62840 0.96270 0.32330 -0.17700
C 	C 	0.57280 0.94720 0.22630 0.11100
H 	H 	0.56320 0.89080 0.20140 0.00600
C 	C 	0.53140 0.01260 0.16580 -0.19800
H 	H 	0.49340 0.00090 0.09990 0.11000
C 	C 	0.67060 0.22080 0.06080 0.41000
C 	C 	0.67560 0.89220 0.38690 0.48400
C 	C 	0.42180 0.29810 0.82260 0.29500
N 	N 	0.61540 0.19620 0.34180 0.01300
O 	O 	0.68780 0.26050 0.01010 -0.59800
O 	O 	0.71316 0.17900 0.13700 -0.47000
O 	O 	0.59250 0.25720 0.28630 -0.10900
O 	O 	0.65170 0.20270 0.43280 -0.11500
O 	O 	0.72038 0.90910 0.47660 -0.53400
O 	O 	0.66680 0.82240 0.34390 -0.50400
O 	O 	0.36296 0.30110 0.80530 -0.40300
O 	O 	0.43347 0.32400 0.75930 -0.45200
O 	O 	0.50108 0.15800 0.13590 -0.22100
Nd	Nd	0.81069 0.82871 0.62137 2.04700
C 	C 	0.09790 0.72260 0.03030 -0.08200
C 	C 	0.08380 0.68760 0.09590 -0.10400
H 	H 	0.11930 0.66210 0.15630 0.09300
C 	C 	0.01770 0.69040 0.07230 0.18400
C 	C 	0.96570 0.72780 0.98540 -0.12500
H 	H 	0.92080 0.73060 0.97100 0.11200
C 	C 	0.97930 0.76150 0.91860 -0.03100
C 	C 	0.04530 0.75820 0.94070 -0.00400
H 	H 	0.05440 0.78010 0.89480 0.01600
C 	C 	0.04520 0.59470 0.20080 0.18200
C 	C 	0.09860 0.61100 0.29880 -0.01500
C 	C 	0.14010 0.54490 0.35940 0.04000
H 	H 	0.17700 0.55620 0.42620 0.04100
C 	C 	0.12840 0.46270 0.32330 -0.17600
C 	C 	0.07280 0.44720 0.22630 0.10700
H 	H 	0.06320 0.39080 0.20140 0.00700
C 	C 	0.03140 0.51260 0.16580 -0.19300
H 	H 	0.99340 0.50090 0.09990 0.10800
C 	C 	0.17060 0.72080 0.06080 0.40700
C 	C 	0.17560 0.39220 0.38690 0.48400
C 	C 	0.92180 0.79810 0.82260 0.29200
N 	N 	0.11540 0.69620 0.34180 0.01300
O 	O 	0.18780 0.76050 0.01010 -0.59400
O 	O 	0.21316 0.67900 0.13700 -0.46900
O 	O 	0.09250 0.75720 0.28630 -0.10800
O 	O 	0.15170 0.70270 0.43280 -0.11500
O 	O 	0.22038 0.40910 0.47660 -0.53400
O 	O 	0.16680 0.32240 0.34390 -0.50400
O 	O 	0.86296 0.80110 0.80530 -0.40200
O 	O 	0.93347 0.82400 0.75930 -0.45100
O 	O 	0.00108 0.65800 0.13590 -0.22100
Nd	Nd	0.31069 0.67129 0.12137 2.04900
C 	C 	0.59790 0.77740 0.53030 -0.08800
C 	C 	0.58380 0.81240 0.59590 -0.10000
H 	H 	0.61930 0.83790 0.65630 0.09100
C 	C 	0.51770 0.80960 0.57230 0.18000
C 	C 	0.46570 0.77220 0.48540 -0.12000
H 	H 	0.42080 0.76940 0.47100 0.11100
C 	C 	0.47930 0.73850 0.41860 -0.03600
C 	C 	0.54530 0.74180 0.44070 0.00400
H 	H 	0.55440 0.71990 0.39480 0.01400
C 	C 	0.54520 0.90530 0.70080 0.18300
C 	C 	0.59860 0.88900 0.79880 -0.01500
C 	C 	0.64010 0.95510 0.85940 0.03800
H 	H 	0.67700 0.94380 0.92620 0.04100
C 	C 	0.62840 0.03730 0.82330 -0.17500
C 	C 	0.57280 0.05280 0.72630 0.10900
H 	H 	0.56320 0.10920 0.70140 0.00700
C 	C 	0.53140 0.98740 0.66580 -0.19700
H 	H 	0.49340 0.99910 0.59990 0.11000
C 	C 	0.67060 0.77920 0.56080 0.40900
C 	C 	0.67560 0.10780 0.88690 0.48300
C 	C 	0.42180 0.70190 0.32260 0.29400
N 	N 	0.61540 0.80380 0.84180 0.01300
O 	O 	0.68780 0.73950 0.51010 -0.59600
O 	O 	0.71316 0.82100 0.63700 -0.47000
O 	O 	0.59250 0.74280 0.78630 -0.10900
O 	O 	0.65170 0.79730 0.93280 -0.11600
O 	O 	0.72038 0.09090 0.97660 -0.53200
O 	O 	0.66680 0.17760 0.84390 -0.50400
O 	O 	0.36296 0.69890 0.30530 -0.40300
O 	O 	0.43347 0.67600 0.25930 -0.45200
O 	O 	0.50108 0.84200 0.63590 -0.22100
Nd	Nd	0.81069 0.17129 0.12137 2.04200
C 	C 	0.09790 0.27740 0.53030 -0.08800
C 	C 	0.08380 0.31240 0.59590 -0.10000
H 	H 	0.11930 0.33790 0.65630 0.09100
C 	C 	0.01770 0.30960 0.57230 0.18000
C 	C 	0.96570 0.27220 0.48540 -0.12000
H 	H 	0.92080 0.26940 0.47100 0.11000
C 	C 	0.97930 0.23850 0.41860 -0.03700
C 	C 	0.04530 0.24180 0.44070 0.00500
H 	H 	0.05440 0.21990 0.39480 0.01400
C 	C 	0.04520 0.40530 0.70080 0.18400
C 	C 	0.09860 0.38900 0.79880 -0.01600
C 	C 	0.14010 0.45510 0.85940 0.04100
H 	H 	0.17700 0.44380 0.92620 0.04000
C 	C 	0.12840 0.53730 0.82330 -0.17700
C 	C 	0.07280 0.55280 0.72630 0.10900
H 	H 	0.06320 0.60920 0.70140 0.00600
C 	C 	0.03140 0.48740 0.66580 -0.19700
H 	H 	0.99340 0.49910 0.59990 0.11000
C 	C 	0.17060 0.27920 0.56080 0.40900
C 	C 	0.17560 0.60780 0.88690 0.48400
C 	C 	0.92180 0.20190 0.32260 0.29400
N 	N 	0.11540 0.30380 0.84180 0.01300
O 	O 	0.18780 0.23950 0.51010 -0.59600
O 	O 	0.21316 0.32100 0.63700 -0.47000
O 	O 	0.09250 0.24280 0.78630 -0.10900
O 	O 	0.15170 0.29730 0.93280 -0.11500
O 	O 	0.22038 0.59090 0.97660 -0.53500
O 	O 	0.16680 0.67760 0.84390 -0.50400
O 	O 	0.86296 0.19890 0.30530 -0.40200
O 	O 	0.93347 0.17600 0.25930 -0.45200
O 	O 	0.00108 0.34200 0.63590 -0.22100
Nd	Nd	0.68931 0.67129 0.37863 2.04700
C 	C 	0.40210 0.77740 0.96970 -0.09100
C 	C 	0.41620 0.81240 0.90410 -0.09700
H 	H 	0.38070 0.83790 0.84370 0.09000
C 	C 	0.48230 0.80960 0.92770 0.17600
C 	C 	0.53430 0.77220 0.01460 -0.11600
H 	H 	0.57920 0.76940 0.02900 0.11000
C 	C 	0.52070 0.73850 0.08140 -0.03900
C 	C 	0.45470 0.74180 0.05930 0.00900
H 	H 	0.44560 0.71990 0.10520 0.01300
C 	C 	0.45480 0.90530 0.79920 0.18400
C 	C 	0.40140 0.88900 0.70120 -0.01600
C 	C 	0.35990 0.95510 0.64060 0.04000
H 	H 	0.32300 0.94380 0.57380 0.04100
C 	C 	0.37160 0.03730 0.67670 -0.17700
C 	C 	0.42720 0.05280 0.77370 0.11100
H 	H 	0.43680 0.10920 0.79860 0.00600
C 	C 	0.46860 0.98740 0.83420 -0.19800
H 	H 	0.50660 0.99910 0.90010 0.11000
C 	C 	0.32940 0.77920 0.93920 0.41000
C 	C 	0.32440 0.10780 0.61310 0.48400
C 	C 	0.57820 0.70190 0.17740 0.29500
N 	N 	0.38460 0.80380 0.65820 0.01300
O 	O 	0.31220 0.73950 0.98990 -0.59800
O 	O 	0.28684 0.82100 0.86300 -0.47000
O 	O 	0.40750 0.74280 0.71370 -0.10900
O 	O 	0.34830 0.79730 0.56720 -0.11500
O 	O 	0.27962 0.09090 0.52340 -0.53400
O 	O 	0.33320 0.17760 0.65610 -0.50400
O 	O 	0.63704 0.69890 0.19470 -0.40300
O 	O 	0.56653 0.67600 0.24070 -0.45200
O 	O 	0.49892 0.84200 0.86410 -0.22100
Nd	Nd	0.18931 0.17129 0.37863 2.04700
C 	C 	0.90210 0.27740 0.96970 -0.08200
C 	C 	0.91620 0.31240 0.90410 -0.10400
H 	H 	0.88070 0.33790 0.84370 0.09300
C 	C 	0.98230 0.30960 0.92770 0.18400
C 	C 	0.03430 0.27220 0.01460 -0.12500
H 	H 	0.07920 0.26940 0.02900 0.11200
C 	C 	0.02070 0.23850 0.08140 -0.03100
C 	C 	0.95470 0.24180 0.05930 -0.00400
H 	H 	0.94560 0.21990 0.10520 0.01600
C 	C 	0.95480 0.40530 0.79920 0.18200
C 	C 	0.90140 0.38900 0.70120 -0.01500
C 	C 	0.85990 0.45510 0.64060 0.04000
H 	H 	0.82300 0.44380 0.57380 0.04100
C 	C 	0.87160 0.53730 0.67670 -0.17600
C 	C 	0.92720 0.55280 0.77370 0.10700
H 	H 	0.93680 0.60920 0.79860 0.00700
C 	C 	0.96860 0.48740 0.83420 -0.19300
H 	H 	0.00660 0.49910 0.90010 0.10800
C 	C 	0.82940 0.27920 0.93920 0.40700
C 	C 	0.82440 0.60780 0.61310 0.48400
C 	C 	0.07820 0.20190 0.17740 0.29200
N 	N 	0.88460 0.30380 0.65820 0.01300
O 	O 	0.81220 0.23950 0.98990 -0.59400
O 	O 	0.78684 0.32100 0.86300 -0.46900
O 	O 	0.90750 0.24280 0.71370 -0.10800
O 	O 	0.84830 0.29730 0.56720 -0.11500
O 	O 	0.77962 0.59090 0.52340 -0.53400
O 	O 	0.83320 0.67760 0.65610 -0.50400
O 	O 	0.13704 0.19890 0.19470 -0.40200
O 	O 	0.06653 0.17600 0.24070 -0.45100
O 	O 	0.99892 0.34200 0.86410 -0.22100
