data_crystal

_cell_length_a 14.21660
_cell_length_b 14.21660
_cell_length_c 15.83020
_cell_angle_alpha 82.48300
_cell_angle_beta  65.05750
_cell_angle_gamma 112.62900

_symmetry_space_group_name_	'P 1'
_symmetry_space_group_name_H-M	'P 1'

loop_
_symmetry_equiv_pos_as_xyz
  x,y,z

loop_
_atom_site_label
_atom_site_type_symbol
_atom_site_fract_x
_atom_site_fract_y
_atom_site_fract_z
_atom_site_charge
Ce	Ce	0.85928 0.35910 0.12150 2.11000
Ce	Ce	0.98060 0.98078 0.37850 2.10700
Ce	Ce	0.14072 0.64090 0.87850 2.11000
Ce	Ce	0.01940 0.01922 0.62150 2.10700
H 	H 	0.87840 0.16510 0.39570 0.01700
H 	H 	0.71860 0.34930 0.47230 0.11400
H 	H 	0.80380 0.22230 0.65490 0.09600
H 	H 	0.69370 0.26770 0.92400 0.04700
H 	H 	0.97320 0.54480 0.70120 0.01400
H 	H 	0.89460 0.50790 0.60030 0.10800
H 	H 	0.06080 0.27410 0.10430 0.01400
H 	H 	0.32160 0.19090 0.02770 0.11200
H 	H 	0.37720 0.45870 0.84510 0.09300
H 	H 	0.69170 0.61770 0.57600 0.04600
H 	H 	0.74600 0.67440 0.79880 0.01400
H 	H 	0.60820 0.49490 0.89970 0.10800
H 	H 	0.12160 0.83490 0.60430 0.01700
H 	H 	0.28140 0.65070 0.52770 0.11400
H 	H 	0.19620 0.77770 0.34510 0.09600
H 	H 	0.30630 0.73230 0.07600 0.04700
H 	H 	0.02680 0.45520 0.29880 0.01400
H 	H 	0.10540 0.49210 0.39970 0.10800
H 	H 	0.93920 0.72590 0.89570 0.01400
H 	H 	0.67840 0.80910 0.97230 0.11200
H 	H 	0.62280 0.54130 0.15490 0.09300
H 	H 	0.30830 0.38230 0.42400 0.04600
H 	H 	0.25400 0.32560 0.20120 0.01400
H 	H 	0.39180 0.50510 0.10030 0.10800
C 	C 	0.84630 0.18150 0.53020 -0.07700
C 	C 	0.84640 0.19720 0.44120 -0.00600
C 	C 	0.79870 0.26050 0.41940 -0.02900
C 	C 	0.75250 0.30770 0.48600 -0.12300
C 	C 	0.75640 0.29340 0.57200 0.18600
C 	C 	0.80230 0.23110 0.59500 -0.10400
C 	C 	0.75030 0.36220 0.69950 0.18200
C 	C 	0.69030 0.29190 0.79640 -0.01100
C 	C 	0.73590 0.31580 0.85730 0.03100
C 	C 	0.84220 0.40880 0.82200 -0.15600
C 	C 	0.90050 0.47990 0.72580 0.09800
C 	C 	0.85460 0.45750 0.66570 -0.18700
C 	C 	0.89000 0.11150 0.56050 0.38500
C 	C 	0.79980 0.27910 0.32350 0.29100
C 	C 	0.89660 0.43070 0.88630 0.45500
C 	C 	0.21170 0.37650 0.96980 -0.08700
C 	C 	0.13840 0.28760 0.05880 0.00200
C 	C 	0.17990 0.21810 0.08060 -0.03400
C 	C 	0.29370 0.23850 0.01400 -0.11800
C 	C 	0.36540 0.32840 0.92800 0.18100
C 	C 	0.32610 0.39730 0.90500 -0.09900
C 	C 	0.56170 0.44980 0.80050 0.18100
C 	C 	0.58830 0.48670 0.70360 -0.01100
C 	C 	0.67310 0.59320 0.64270 0.03000
C 	C 	0.73080 0.66420 0.67800 -0.15500
C 	C 	0.70570 0.62630 0.77420 0.09700
C 	C 	0.62320 0.52030 0.83430 -0.18700
C 	C 	0.17200 0.45050 0.93950 0.38800
C 	C 	0.10260 0.12330 0.17650 0.29300
C 	C 	0.81700 0.78290 0.61370 0.45000
C 	C 	0.15370 0.81850 0.46980 -0.07700
C 	C 	0.15360 0.80280 0.55880 -0.00600
C 	C 	0.20130 0.73950 0.58060 -0.02900
C 	C 	0.24750 0.69230 0.51400 -0.12300
C 	C 	0.24360 0.70660 0.42800 0.18600
C 	C 	0.19770 0.76890 0.40500 -0.10400
C 	C 	0.24970 0.63780 0.30050 0.18200
C 	C 	0.30970 0.70810 0.20360 -0.01100
C 	C 	0.26410 0.68420 0.14270 0.03100
C 	C 	0.15780 0.59120 0.17800 -0.15600
C 	C 	0.09950 0.52010 0.27420 0.09800
C 	C 	0.14540 0.54250 0.33430 -0.18700
C 	C 	0.11000 0.88850 0.43950 0.38500
C 	C 	0.20020 0.72090 0.67650 0.29100
C 	C 	0.10340 0.56930 0.11370 0.45500
C 	C 	0.78830 0.62350 0.03020 -0.08700
C 	C 	0.86160 0.71240 0.94120 0.00200
C 	C 	0.82010 0.78190 0.91940 -0.03400
C 	C 	0.70630 0.76150 0.98600 -0.11800
C 	C 	0.63460 0.67160 0.07200 0.18100
C 	C 	0.67390 0.60270 0.09500 -0.09900
C 	C 	0.43830 0.55020 0.19950 0.18100
C 	C 	0.41170 0.51330 0.29640 -0.01100
C 	C 	0.32690 0.40680 0.35730 0.03000
C 	C 	0.26920 0.33580 0.32200 -0.15500
C 	C 	0.29430 0.37370 0.22580 0.09700
C 	C 	0.37680 0.47970 0.16570 -0.18700
C 	C 	0.82800 0.54950 0.06050 0.38800
C 	C 	0.89740 0.87670 0.82350 0.29300
C 	C 	0.18300 0.21710 0.38630 0.45000
N 	N 	0.57860 0.19010 0.83850 0.01300
N 	N 	0.52860 0.41710 0.66150 0.01300
N 	N 	0.42140 0.80990 0.16150 0.01300
N 	N 	0.47140 0.58290 0.33850 0.01300
O 	O 	0.89790 0.11090 0.63660 -0.46400
O 	O 	0.91797 0.05443 0.51060 -0.60500
O 	O 	0.84760 0.24040 0.26140 -0.46000
O 	O 	0.75445 0.33385 0.30710 -0.41600
O 	O 	0.54990 0.15360 0.78270 -0.10800
O 	O 	0.51840 0.14630 0.92890 -0.11500
O 	O 	0.83490 0.36930 0.97480 -0.53600
O 	O 	0.00010 0.50900 0.84430 -0.50900
O 	O 	0.70940 0.34380 0.63440 -0.22300
O 	O 	0.24750 0.53450 0.86340 -0.47000
O 	O 	0.06503 0.42857 0.98940 -0.61400
O 	O 	0.00180 0.10900 0.23860 -0.46200
O 	O 	0.14095 0.06155 0.19290 -0.41800
O 	O 	0.43630 0.33260 0.71730 -0.10800
O 	O 	0.57520 0.44730 0.57110 -0.11500
O 	O 	0.84410 0.80970 0.52520 -0.54000
O 	O 	0.85330 0.84440 0.65570 -0.50700
O 	O 	0.47820 0.34380 0.86560 -0.22200
O 	O 	0.10210 0.88910 0.36340 -0.46400
O 	O 	0.08203 0.94557 0.48940 -0.60500
O 	O 	0.15240 0.75960 0.73860 -0.46000
O 	O 	0.24555 0.66615 0.69290 -0.41600
O 	O 	0.45010 0.84640 0.21730 -0.10800
O 	O 	0.48160 0.85370 0.07110 -0.11500
O 	O 	0.16510 0.63070 0.02520 -0.53600
O 	O 	0.99990 0.49100 0.15570 -0.50900
O 	O 	0.29060 0.65620 0.36560 -0.22300
O 	O 	0.75250 0.46550 0.13660 -0.47000
O 	O 	0.93497 0.57143 0.01060 -0.61400
O 	O 	0.99820 0.89100 0.76140 -0.46200
O 	O 	0.85905 0.93845 0.80710 -0.41800
O 	O 	0.56370 0.66740 0.28270 -0.10800
O 	O 	0.42480 0.55270 0.42890 -0.11500
O 	O 	0.15590 0.19030 0.47480 -0.54000
O 	O 	0.14670 0.15560 0.34430 -0.50700
O 	O 	0.52180 0.65620 0.13440 -0.22200
