data_crystal

_cell_length_a 23.70460
_cell_length_b 15.79870
_cell_length_c 16.23980
_cell_angle_alpha 90.00000
_cell_angle_beta  124.20400
_cell_angle_gamma 90.00000

_symmetry_space_group_name_	'P 1'
_symmetry_space_group_name_H-M	'P 1'

loop_
_symmetry_equiv_pos_as_xyz
  x,y,z

loop_
_atom_site_label
_atom_site_type_symbol
_atom_site_fract_x
_atom_site_fract_y
_atom_site_fract_z
_atom_site_charge
Pr	Pr	0.81085 0.82930 0.62146 2.03700
C 	C 	0.12780 0.46310 0.32250 -0.14100
C 	C 	0.13990 0.54500 0.35910 0.02000
H 	H 	0.17660 0.55620 0.42590 0.05100
C 	C 	0.09830 0.61080 0.29800 -0.00400
C 	C 	0.04410 0.59470 0.20010 0.17500
C 	C 	0.03110 0.51200 0.16530 -0.17400
H 	H 	0.99330 0.50020 0.09950 0.10300
C 	C 	0.07260 0.44690 0.22570 0.08300
H 	H 	0.06340 0.39050 0.20110 0.02000
C 	C 	0.01800 0.69030 0.07290 0.19100
C 	C 	0.08370 0.68700 0.09580 -0.11100
H 	H 	0.11910 0.66100 0.15570 0.09800
C 	C 	0.09766 0.72210 0.03060 -0.06400
C 	C 	0.04522 0.75810 0.94120 -0.02000
H 	H 	0.05430 0.78020 0.89530 0.02400
C 	C 	0.97928 0.76130 0.91950 -0.01900
C 	C 	0.96551 0.72760 0.98580 -0.13000
H 	H 	0.92080 0.73030 0.97150 0.11700
C 	C 	0.17580 0.39240 0.38680 0.43400
C 	C 	0.17012 0.71990 0.06080 0.37600
C 	C 	0.92194 0.79870 0.82330 0.28200
N 	N 	0.11450 0.69590 0.34040 0.01100
O 	O 	0.16684 0.32285 0.34360 -0.49000
O 	O 	0.22042 0.40942 0.47600 -0.52300
O 	O 	0.15100 0.70230 0.43150 -0.11200
O 	O 	0.09180 0.75690 0.28540 -0.10600
O 	O 	0.21266 0.67820 0.13690 -0.45700
O 	O 	0.18734 0.75944 0.01050 -0.59400
O 	O 	0.93390 0.82467 0.76070 -0.45000
O 	O 	0.86339 0.80175 0.80648 -0.40400
O 	O 	0.00074 0.65720 0.13540 -0.22200
Pr	Pr	0.31085 0.32930 0.62146 2.03800
C 	C 	0.62780 0.96310 0.32250 -0.14000
C 	C 	0.63990 0.04500 0.35910 0.02000
H 	H 	0.67660 0.05620 0.42590 0.05100
C 	C 	0.59830 0.11080 0.29800 -0.00400
C 	C 	0.54410 0.09470 0.20010 0.17600
C 	C 	0.53110 0.01200 0.16530 -0.17900
H 	H 	0.49330 0.00020 0.09950 0.10500
C 	C 	0.57260 0.94690 0.22570 0.08700
H 	H 	0.56340 0.89050 0.20110 0.01900
C 	C 	0.51800 0.19030 0.07290 0.18400
C 	C 	0.58370 0.18700 0.09580 -0.10500
H 	H 	0.61910 0.16100 0.15570 0.09600
C 	C 	0.59766 0.22210 0.03060 -0.07300
C 	C 	0.54522 0.25810 0.94120 -0.00900
H 	H 	0.55430 0.28020 0.89530 0.02100
C 	C 	0.47928 0.26130 0.91950 -0.02600
C 	C 	0.46551 0.22760 0.98580 -0.12100
H 	H 	0.42080 0.23030 0.97150 0.11500
C 	C 	0.67580 0.89240 0.38680 0.43400
C 	C 	0.67012 0.21990 0.06080 0.37800
C 	C 	0.42194 0.29870 0.82330 0.28400
N 	N 	0.61450 0.19590 0.34040 0.01100
O 	O 	0.66684 0.82285 0.34360 -0.49000
O 	O 	0.72042 0.90942 0.47600 -0.52300
O 	O 	0.65100 0.20230 0.43150 -0.11300
O 	O 	0.59180 0.25690 0.28540 -0.10600
O 	O 	0.71266 0.17820 0.13690 -0.45900
O 	O 	0.68734 0.25944 0.01050 -0.59700
O 	O 	0.43390 0.32467 0.76070 -0.45000
O 	O 	0.36339 0.30175 0.80648 -0.40400
O 	O 	0.50074 0.15720 0.13540 -0.22100
Pr	Pr	0.18915 0.82930 0.87854 2.03700
C 	C 	0.87220 0.46310 0.17750 -0.14100
C 	C 	0.86010 0.54500 0.14090 0.02100
H 	H 	0.82340 0.55620 0.07410 0.05100
C 	C 	0.90170 0.61080 0.20200 -0.00400
C 	C 	0.95590 0.59470 0.29990 0.17600
C 	C 	0.96890 0.51200 0.33470 -0.17800
H 	H 	0.00670 0.50020 0.40050 0.10500
C 	C 	0.92740 0.44690 0.27430 0.08500
H 	H 	0.93660 0.39050 0.29890 0.01900
C 	C 	0.98200 0.69030 0.42710 0.18700
C 	C 	0.91630 0.68700 0.40420 -0.10700
H 	H 	0.88090 0.66100 0.34430 0.09700
C 	C 	0.90234 0.72210 0.46940 -0.06900
C 	C 	0.95478 0.75810 0.55880 -0.01200
H 	H 	0.94570 0.78020 0.60470 0.02200
C 	C 	0.02072 0.76130 0.58050 -0.02400
C 	C 	0.03449 0.72760 0.51420 -0.12500
H 	H 	0.07920 0.73030 0.52850 0.11500
C 	C 	0.82420 0.39240 0.11320 0.43400
C 	C 	0.82988 0.71990 0.43920 0.37700
C 	C 	0.07806 0.79870 0.67670 0.28400
N 	N 	0.88550 0.69590 0.15960 0.01100
O 	O 	0.83316 0.32285 0.15640 -0.49100
O 	O 	0.77958 0.40942 0.02400 -0.52400
O 	O 	0.84900 0.70230 0.06850 -0.11300
O 	O 	0.90820 0.75690 0.21460 -0.10600
O 	O 	0.78734 0.67820 0.36310 -0.45800
O 	O 	0.81266 0.75944 0.48950 -0.59500
O 	O 	0.06610 0.82467 0.73930 -0.45100
O 	O 	0.13661 0.80175 0.69352 -0.40400
O 	O 	0.99926 0.65720 0.36460 -0.22200
Pr	Pr	0.68915 0.32930 0.87854 2.03800
C 	C 	0.37220 0.96310 0.17750 -0.13800
C 	C 	0.36010 0.04500 0.14090 0.01800
H 	H 	0.32340 0.05620 0.07410 0.05100
C 	C 	0.40170 0.11080 0.20200 -0.00400
C 	C 	0.45590 0.09470 0.29990 0.17600
C 	C 	0.46890 0.01200 0.33470 -0.17800
H 	H 	0.50670 0.00020 0.40050 0.10500
C 	C 	0.42740 0.94690 0.27430 0.08500
H 	H 	0.43660 0.89050 0.29890 0.01900
C 	C 	0.48200 0.19030 0.42710 0.18700
C 	C 	0.41630 0.18700 0.40420 -0.10700
H 	H 	0.38090 0.16100 0.34430 0.09700
C 	C 	0.40234 0.22210 0.46940 -0.06900
C 	C 	0.45478 0.25810 0.55880 -0.01300
H 	H 	0.44570 0.28020 0.60470 0.02200
C 	C 	0.52072 0.26130 0.58050 -0.02300
C 	C 	0.53449 0.22760 0.51420 -0.12500
H 	H 	0.57920 0.23030 0.52850 0.11600
C 	C 	0.32420 0.89240 0.11320 0.43400
C 	C 	0.32988 0.21990 0.43920 0.37700
C 	C 	0.57806 0.29870 0.67670 0.28300
N 	N 	0.38550 0.19590 0.15960 0.01100
O 	O 	0.33316 0.82285 0.15640 -0.49000
O 	O 	0.27958 0.90942 0.02400 -0.52200
O 	O 	0.34900 0.20230 0.06850 -0.11300
O 	O 	0.40820 0.25690 0.21460 -0.10600
O 	O 	0.28734 0.17820 0.36310 -0.45800
O 	O 	0.31266 0.25944 0.48950 -0.59500
O 	O 	0.56610 0.32467 0.73930 -0.45000
O 	O 	0.63661 0.30175 0.69352 -0.40400
O 	O 	0.49926 0.15720 0.36460 -0.22200
Pr	Pr	0.18915 0.17070 0.37854 2.03800
C 	C 	0.87220 0.53690 0.67750 -0.14000
C 	C 	0.86010 0.45500 0.64090 0.02000
H 	H 	0.82340 0.44380 0.57410 0.05100
C 	C 	0.90170 0.38920 0.70200 -0.00400
C 	C 	0.95590 0.40530 0.79990 0.17500
C 	C 	0.96890 0.48800 0.83470 -0.17400
H 	H 	0.00670 0.49980 0.90050 0.10300
C 	C 	0.92740 0.55310 0.77430 0.08300
H 	H 	0.93660 0.60950 0.79890 0.02000
C 	C 	0.98200 0.30970 0.92710 0.19100
C 	C 	0.91630 0.31300 0.90420 -0.11100
H 	H 	0.88090 0.33900 0.84430 0.09800
C 	C 	0.90234 0.27790 0.96940 -0.06400
C 	C 	0.95478 0.24190 0.05880 -0.02000
H 	H 	0.94570 0.21980 0.10470 0.02400
C 	C 	0.02072 0.23870 0.08050 -0.01900
C 	C 	0.03449 0.27240 0.01420 -0.13000
H 	H 	0.07920 0.26970 0.02850 0.11700
C 	C 	0.82420 0.60760 0.61320 0.43400
C 	C 	0.82988 0.28010 0.93920 0.37600
C 	C 	0.07806 0.20130 0.17670 0.28200
N 	N 	0.88550 0.30410 0.65960 0.01100
O 	O 	0.83316 0.67715 0.65640 -0.49000
O 	O 	0.77958 0.59058 0.52400 -0.52300
O 	O 	0.84900 0.29770 0.56850 -0.11200
O 	O 	0.90820 0.24310 0.71460 -0.10600
O 	O 	0.78734 0.32180 0.86310 -0.45700
O 	O 	0.81266 0.24056 0.98950 -0.59400
O 	O 	0.06610 0.17533 0.23930 -0.45000
O 	O 	0.13661 0.19825 0.19352 -0.40400
O 	O 	0.99926 0.34280 0.86460 -0.22200
Pr	Pr	0.68915 0.67070 0.37854 2.03800
C 	C 	0.37220 0.03690 0.67750 -0.14000
C 	C 	0.36010 0.95500 0.64090 0.02000
H 	H 	0.32340 0.94380 0.57410 0.05100
C 	C 	0.40170 0.88920 0.70200 -0.00400
C 	C 	0.45590 0.90530 0.79990 0.17600
C 	C 	0.46890 0.98800 0.83470 -0.17900
H 	H 	0.50670 0.99980 0.90050 0.10500
C 	C 	0.42740 0.05310 0.77430 0.08700
H 	H 	0.43660 0.10950 0.79890 0.01900
C 	C 	0.48200 0.80970 0.92710 0.18400
C 	C 	0.41630 0.81300 0.90420 -0.10500
H 	H 	0.38090 0.83900 0.84430 0.09600
C 	C 	0.40234 0.77790 0.96940 -0.07300
C 	C 	0.45478 0.74190 0.05880 -0.00900
H 	H 	0.44570 0.71980 0.10470 0.02100
C 	C 	0.52072 0.73870 0.08050 -0.02600
C 	C 	0.53449 0.77240 0.01420 -0.12100
H 	H 	0.57920 0.76970 0.02850 0.11500
C 	C 	0.32420 0.10760 0.61320 0.43400
C 	C 	0.32988 0.78010 0.93920 0.37800
C 	C 	0.57806 0.70130 0.17670 0.28400
N 	N 	0.38550 0.80410 0.65960 0.01100
O 	O 	0.33316 0.17715 0.65640 -0.49000
O 	O 	0.27958 0.09058 0.52400 -0.52300
O 	O 	0.34900 0.79770 0.56850 -0.11300
O 	O 	0.40820 0.74310 0.71460 -0.10600
O 	O 	0.28734 0.82180 0.86310 -0.45900
O 	O 	0.31266 0.74056 0.98950 -0.59700
O 	O 	0.56610 0.67533 0.23930 -0.45000
O 	O 	0.63661 0.69825 0.19352 -0.40400
O 	O 	0.49926 0.84280 0.86460 -0.22100
Pr	Pr	0.81085 0.17070 0.12146 2.03700
C 	C 	0.12780 0.53690 0.82250 -0.14100
C 	C 	0.13990 0.45500 0.85910 0.02100
H 	H 	0.17660 0.44380 0.92590 0.05100
C 	C 	0.09830 0.38920 0.79800 -0.00400
C 	C 	0.04410 0.40530 0.70010 0.17600
C 	C 	0.03110 0.48800 0.66530 -0.17800
H 	H 	0.99330 0.49980 0.59950 0.10500
C 	C 	0.07260 0.55310 0.72570 0.08500
H 	H 	0.06340 0.60950 0.70110 0.01900
C 	C 	0.01800 0.30970 0.57290 0.18700
C 	C 	0.08370 0.31300 0.59580 -0.10700
H 	H 	0.11910 0.33900 0.65570 0.09700
C 	C 	0.09766 0.27790 0.53060 -0.06900
C 	C 	0.04522 0.24190 0.44120 -0.01200
H 	H 	0.05430 0.21980 0.39530 0.02200
C 	C 	0.97928 0.23870 0.41950 -0.02400
C 	C 	0.96551 0.27240 0.48580 -0.12500
H 	H 	0.92080 0.26970 0.47150 0.11500
C 	C 	0.17580 0.60760 0.88680 0.43400
C 	C 	0.17012 0.28010 0.56080 0.37700
C 	C 	0.92194 0.20130 0.32330 0.28400
N 	N 	0.11450 0.30410 0.84040 0.01100
O 	O 	0.16684 0.67715 0.84360 -0.49100
O 	O 	0.22042 0.59058 0.97600 -0.52400
O 	O 	0.15100 0.29770 0.93150 -0.11300
O 	O 	0.09180 0.24310 0.78540 -0.10600
O 	O 	0.21266 0.32180 0.63690 -0.45800
O 	O 	0.18734 0.24056 0.51050 -0.59500
O 	O 	0.93390 0.17533 0.26070 -0.45100
O 	O 	0.86339 0.19825 0.30648 -0.40400
O 	O 	0.00074 0.34280 0.63540 -0.22200
Pr	Pr	0.31085 0.67070 0.12146 2.03800
C 	C 	0.62780 0.03690 0.82250 -0.13800
C 	C 	0.63990 0.95500 0.85910 0.01800
H 	H 	0.67660 0.94380 0.92590 0.05100
C 	C 	0.59830 0.88920 0.79800 -0.00400
C 	C 	0.54410 0.90530 0.70010 0.17600
C 	C 	0.53110 0.98800 0.66530 -0.17800
H 	H 	0.49330 0.99980 0.59950 0.10500
C 	C 	0.57260 0.05310 0.72570 0.08500
H 	H 	0.56340 0.10950 0.70110 0.01900
C 	C 	0.51800 0.80970 0.57290 0.18700
C 	C 	0.58370 0.81300 0.59580 -0.10700
H 	H 	0.61910 0.83900 0.65570 0.09700
C 	C 	0.59766 0.77790 0.53060 -0.06900
C 	C 	0.54522 0.74190 0.44120 -0.01300
H 	H 	0.55430 0.71980 0.39530 0.02200
C 	C 	0.47928 0.73870 0.41950 -0.02300
C 	C 	0.46551 0.77240 0.48580 -0.12500
H 	H 	0.42080 0.76970 0.47150 0.11600
C 	C 	0.67580 0.10760 0.88680 0.43400
C 	C 	0.67012 0.78010 0.56080 0.37700
C 	C 	0.42194 0.70130 0.32330 0.28300
N 	N 	0.61450 0.80410 0.84040 0.01100
O 	O 	0.66684 0.17715 0.84360 -0.49000
O 	O 	0.72042 0.09058 0.97600 -0.52200
O 	O 	0.65100 0.79770 0.93150 -0.11300
O 	O 	0.59180 0.74310 0.78540 -0.10600
O 	O 	0.71266 0.82180 0.63690 -0.45800
O 	O 	0.68734 0.74056 0.51050 -0.59500
O 	O 	0.43390 0.67533 0.26070 -0.45000
O 	O 	0.36339 0.69825 0.30648 -0.40400
O 	O 	0.50074 0.84280 0.63540 -0.22200
