data_crystal

_cell_length_a 23.73690
_cell_length_b 15.82160
_cell_length_c 16.28900
_cell_angle_alpha 90.00000
_cell_angle_beta  124.05400
_cell_angle_gamma 90.00000

_symmetry_space_group_name_	'P 1'
_symmetry_space_group_name_H-M	'P 1'

loop_
_symmetry_equiv_pos_as_xyz
  x,y,z

loop_
_atom_site_label
_atom_site_type_symbol
_atom_site_fract_x
_atom_site_fract_y
_atom_site_fract_z
_atom_site_charge
La	La	0.18874 0.33044 0.37841 1.60800
C 	C 	0.02020 0.26110 0.07910 -0.02100
C 	C 	0.95470 0.25760 0.05740 -0.02000
H 	H 	0.94530 0.28020 0.10250 0.03100
C 	C 	0.90330 0.22100 0.96940 -0.05500
C 	C 	0.91730 0.18530 0.90500 -0.11700
H 	H 	0.88230 0.15890 0.84550 0.10000
C 	C 	0.98280 0.18870 0.92860 0.19200
C 	C 	0.03470 0.22680 0.01400 -0.12800
H 	H 	0.07940 0.22970 0.02830 0.11600
C 	C 	0.95660 0.09320 0.80130 0.17800
C 	C 	0.90310 0.10990 0.70420 -0.00300
C 	C 	0.86130 0.04490 0.64310 0.01800
H 	H 	0.82490 0.05660 0.57670 0.05500
C 	C 	0.87270 0.96300 0.67880 -0.13600
C 	C 	0.92750 0.94630 0.77480 0.08600
H 	H 	0.93620 0.89000 0.79920 0.01700
C 	C 	0.96940 0.01080 0.83490 -0.18100
H 	H 	0.00740 0.99850 0.89980 0.10800
C 	C 	0.07770 0.29970 0.17520 0.28700
C 	C 	0.83090 0.21800 0.93910 0.34600
C 	C 	0.82470 0.89330 0.61530 0.40500
N 	N 	0.88680 0.19540 0.66250 0.01000
O 	O 	0.13566 0.30280 0.19150 -0.35000
O 	O 	0.06467 0.32590 0.23610 -0.38600
O 	O 	0.81316 0.25790 0.98870 -0.48100
O 	O 	0.78893 0.17580 0.86390 -0.38700
O 	O 	0.91060 0.25600 0.71780 -0.10000
O 	O 	0.85020 0.20260 0.57180 -0.10900
O 	O 	0.77990 0.91130 0.52660 -0.43900
O 	O 	0.83298 0.82360 0.65630 -0.42000
O 	O 	0.00012 0.15540 0.86580 -0.22200
La	La	0.68874 0.83044 0.37841 1.60800
C 	C 	0.52020 0.76110 0.07910 -0.01900
C 	C 	0.45470 0.75760 0.05740 -0.02200
H 	H 	0.44530 0.78020 0.10250 0.03100
C 	C 	0.40330 0.72100 0.96940 -0.05300
C 	C 	0.41730 0.68530 0.90500 -0.11800
H 	H 	0.38230 0.65890 0.84550 0.10000
C 	C 	0.48280 0.68870 0.92860 0.19400
C 	C 	0.53470 0.72680 0.01400 -0.13100
H 	H 	0.57940 0.72970 0.02830 0.11700
C 	C 	0.45660 0.59320 0.80130 0.17600
C 	C 	0.40310 0.60990 0.70420 -0.00300
C 	C 	0.36130 0.54490 0.64310 0.01700
H 	H 	0.32490 0.55660 0.57670 0.05500
C 	C 	0.37270 0.46300 0.67880 -0.13600
C 	C 	0.42750 0.44630 0.77480 0.08300
H 	H 	0.43620 0.39000 0.79920 0.01800
C 	C 	0.46940 0.51080 0.83490 -0.17800
H 	H 	0.50740 0.49850 0.89980 0.10600
C 	C 	0.57770 0.79970 0.17520 0.28700
C 	C 	0.33090 0.71800 0.93910 0.34500
C 	C 	0.32470 0.39330 0.61530 0.40400
N 	N 	0.38680 0.69540 0.66250 0.01000
O 	O 	0.63566 0.80280 0.19150 -0.35000
O 	O 	0.56467 0.82590 0.23610 -0.38600
O 	O 	0.31316 0.75790 0.98870 -0.48000
O 	O 	0.28893 0.67580 0.86390 -0.38700
O 	O 	0.41060 0.75600 0.71780 -0.10000
O 	O 	0.35020 0.70260 0.57180 -0.10900
O 	O 	0.27990 0.41130 0.52660 -0.43900
O 	O 	0.33298 0.32360 0.65630 -0.42000
O 	O 	0.50012 0.65540 0.86580 -0.22100
La	La	0.81126 0.33044 0.12159 1.60800
C 	C 	0.97980 0.26110 0.42090 -0.02100
C 	C 	0.04530 0.25760 0.44260 -0.02000
H 	H 	0.05470 0.28020 0.39750 0.03100
C 	C 	0.09670 0.22100 0.53060 -0.05400
C 	C 	0.08270 0.18530 0.59500 -0.11700
H 	H 	0.11770 0.15890 0.65450 0.10000
C 	C 	0.01720 0.18870 0.57140 0.19200
C 	C 	0.96530 0.22680 0.48600 -0.12900
H 	H 	0.92060 0.22970 0.47170 0.11600
C 	C 	0.04340 0.09320 0.69870 0.17600
C 	C 	0.09690 0.10990 0.79580 -0.00300
C 	C 	0.13870 0.04490 0.85690 0.01600
H 	H 	0.17510 0.05660 0.92330 0.05500
C 	C 	0.12730 0.96300 0.82120 -0.13500
C 	C 	0.07250 0.94630 0.72520 0.08400
H 	H 	0.06380 0.89000 0.70080 0.01800
C 	C 	0.03060 0.01080 0.66510 -0.18000
H 	H 	0.99260 0.99850 0.60020 0.10700
C 	C 	0.92230 0.29970 0.32480 0.28700
C 	C 	0.16910 0.21800 0.56090 0.34600
C 	C 	0.17530 0.89330 0.88470 0.40400
N 	N 	0.11320 0.19540 0.83750 0.01000
O 	O 	0.86434 0.30280 0.30850 -0.35000
O 	O 	0.93533 0.32590 0.26390 -0.38600
O 	O 	0.18684 0.25790 0.51130 -0.48100
O 	O 	0.21107 0.17580 0.63610 -0.38700
O 	O 	0.08940 0.25600 0.78220 -0.10100
O 	O 	0.14980 0.20260 0.92820 -0.10900
O 	O 	0.22010 0.91130 0.97340 -0.43800
O 	O 	0.16702 0.82360 0.84370 -0.42000
O 	O 	0.99988 0.15540 0.63420 -0.22100
La	La	0.31126 0.83044 0.12159 1.60800
C 	C 	0.47980 0.76110 0.42090 -0.02000
C 	C 	0.54530 0.75760 0.44260 -0.02000
H 	H 	0.55470 0.78020 0.39750 0.03100
C 	C 	0.59670 0.72100 0.53060 -0.05400
C 	C 	0.58270 0.68530 0.59500 -0.11700
H 	H 	0.61770 0.65890 0.65450 0.10000
C 	C 	0.51720 0.68870 0.57140 0.19300
C 	C 	0.46530 0.72680 0.48600 -0.12900
H 	H 	0.42060 0.72970 0.47170 0.11600
C 	C 	0.54340 0.59320 0.69870 0.17600
C 	C 	0.59690 0.60990 0.79580 -0.00300
C 	C 	0.63870 0.54490 0.85690 0.01700
H 	H 	0.67510 0.55660 0.92330 0.05500
C 	C 	0.62730 0.46300 0.82120 -0.13600
C 	C 	0.57250 0.44630 0.72520 0.08300
H 	H 	0.56380 0.39000 0.70080 0.01800
C 	C 	0.53060 0.51080 0.66510 -0.17800
H 	H 	0.49260 0.49850 0.60020 0.10600
C 	C 	0.42230 0.79970 0.32480 0.28700
C 	C 	0.66910 0.71800 0.56090 0.34600
C 	C 	0.67530 0.39330 0.88470 0.40400
N 	N 	0.61320 0.69540 0.83750 0.01000
O 	O 	0.36434 0.80280 0.30850 -0.35000
O 	O 	0.43533 0.82590 0.26390 -0.38600
O 	O 	0.68684 0.75790 0.51130 -0.48100
O 	O 	0.71107 0.67580 0.63610 -0.38700
O 	O 	0.58940 0.75600 0.78220 -0.10000
O 	O 	0.64980 0.70260 0.92820 -0.10800
O 	O 	0.72010 0.41130 0.97340 -0.43900
O 	O 	0.66702 0.32360 0.84370 -0.42000
O 	O 	0.49988 0.65540 0.63420 -0.22100
La	La	0.81126 0.66956 0.62159 1.60800
C 	C 	0.97980 0.73890 0.92090 -0.02100
C 	C 	0.04530 0.74240 0.94260 -0.02000
H 	H 	0.05470 0.71980 0.89750 0.03100
C 	C 	0.09670 0.77900 0.03060 -0.05500
C 	C 	0.08270 0.81470 0.09500 -0.11700
H 	H 	0.11770 0.84110 0.15450 0.10000
C 	C 	0.01720 0.81130 0.07140 0.19200
C 	C 	0.96530 0.77320 0.98600 -0.12800
H 	H 	0.92060 0.77030 0.97170 0.11600
C 	C 	0.04340 0.90680 0.19870 0.17800
C 	C 	0.09690 0.89010 0.29580 -0.00300
C 	C 	0.13870 0.95510 0.35690 0.01800
H 	H 	0.17510 0.94340 0.42330 0.05500
C 	C 	0.12730 0.03700 0.32120 -0.13600
C 	C 	0.07250 0.05370 0.22520 0.08600
H 	H 	0.06380 0.11000 0.20080 0.01700
C 	C 	0.03060 0.98920 0.16510 -0.18100
H 	H 	0.99260 0.00150 0.10020 0.10800
C 	C 	0.92230 0.70030 0.82480 0.28700
C 	C 	0.16910 0.78200 0.06090 0.34600
C 	C 	0.17530 0.10670 0.38470 0.40500
N 	N 	0.11320 0.80460 0.33750 0.01000
O 	O 	0.86434 0.69720 0.80850 -0.35000
O 	O 	0.93533 0.67410 0.76390 -0.38600
O 	O 	0.18684 0.74210 0.01130 -0.48100
O 	O 	0.21107 0.82420 0.13610 -0.38700
O 	O 	0.08940 0.74400 0.28220 -0.10000
O 	O 	0.14980 0.79740 0.42820 -0.10900
O 	O 	0.22010 0.08870 0.47340 -0.43900
O 	O 	0.16702 0.17640 0.34370 -0.42000
O 	O 	0.99988 0.84460 0.13420 -0.22200
La	La	0.31126 0.16956 0.62159 1.60800
C 	C 	0.47980 0.23890 0.92090 -0.01900
C 	C 	0.54530 0.24240 0.94260 -0.02200
H 	H 	0.55470 0.21980 0.89750 0.03100
C 	C 	0.59670 0.27900 0.03060 -0.05300
C 	C 	0.58270 0.31470 0.09500 -0.11800
H 	H 	0.61770 0.34110 0.15450 0.10000
C 	C 	0.51720 0.31130 0.07140 0.19400
C 	C 	0.46530 0.27320 0.98600 -0.13100
H 	H 	0.42060 0.27030 0.97170 0.11700
C 	C 	0.54340 0.40680 0.19870 0.17600
C 	C 	0.59690 0.39010 0.29580 -0.00300
C 	C 	0.63870 0.45510 0.35690 0.01700
H 	H 	0.67510 0.44340 0.42330 0.05500
C 	C 	0.62730 0.53700 0.32120 -0.13600
C 	C 	0.57250 0.55370 0.22520 0.08300
H 	H 	0.56380 0.61000 0.20080 0.01800
C 	C 	0.53060 0.48920 0.16510 -0.17800
H 	H 	0.49260 0.50150 0.10020 0.10600
C 	C 	0.42230 0.20030 0.82480 0.28700
C 	C 	0.66910 0.28200 0.06090 0.34500
C 	C 	0.67530 0.60670 0.38470 0.40400
N 	N 	0.61320 0.30460 0.33750 0.01000
O 	O 	0.36434 0.19720 0.80850 -0.35000
O 	O 	0.43533 0.17410 0.76390 -0.38600
O 	O 	0.68684 0.24210 0.01130 -0.48000
O 	O 	0.71107 0.32420 0.13610 -0.38700
O 	O 	0.58940 0.24400 0.28220 -0.10000
O 	O 	0.64980 0.29740 0.42820 -0.10900
O 	O 	0.72010 0.58870 0.47340 -0.43900
O 	O 	0.66702 0.67640 0.34370 -0.42000
O 	O 	0.49988 0.34460 0.13420 -0.22100
La	La	0.18874 0.66956 0.87841 1.60800
C 	C 	0.02020 0.73890 0.57910 -0.02100
C 	C 	0.95470 0.74240 0.55740 -0.02000
H 	H 	0.94530 0.71980 0.60250 0.03100
C 	C 	0.90330 0.77900 0.46940 -0.05400
C 	C 	0.91730 0.81470 0.40500 -0.11700
H 	H 	0.88230 0.84110 0.34550 0.10000
C 	C 	0.98280 0.81130 0.42860 0.19200
C 	C 	0.03470 0.77320 0.51400 -0.12900
H 	H 	0.07940 0.77030 0.52830 0.11600
C 	C 	0.95660 0.90680 0.30130 0.17600
C 	C 	0.90310 0.89010 0.20420 -0.00300
C 	C 	0.86130 0.95510 0.14310 0.01600
H 	H 	0.82490 0.94340 0.07670 0.05500
C 	C 	0.87270 0.03700 0.17880 -0.13500
C 	C 	0.92750 0.05370 0.27480 0.08400
H 	H 	0.93620 0.11000 0.29920 0.01800
C 	C 	0.96940 0.98920 0.33490 -0.18000
H 	H 	0.00740 0.00150 0.39980 0.10700
C 	C 	0.07770 0.70030 0.67520 0.28700
C 	C 	0.83090 0.78200 0.43910 0.34600
C 	C 	0.82470 0.10670 0.11530 0.40400
N 	N 	0.88680 0.80460 0.16250 0.01000
O 	O 	0.13566 0.69720 0.69150 -0.35000
O 	O 	0.06467 0.67410 0.73610 -0.38600
O 	O 	0.81316 0.74210 0.48870 -0.48100
O 	O 	0.78893 0.82420 0.36390 -0.38700
O 	O 	0.91060 0.74400 0.21780 -0.10100
O 	O 	0.85020 0.79740 0.07180 -0.10900
O 	O 	0.77990 0.08870 0.02660 -0.43800
O 	O 	0.83298 0.17640 0.15630 -0.42000
O 	O 	0.00012 0.84460 0.36580 -0.22100
La	La	0.68874 0.16956 0.87841 1.60800
C 	C 	0.52020 0.23890 0.57910 -0.02000
C 	C 	0.45470 0.24240 0.55740 -0.02000
H 	H 	0.44530 0.21980 0.60250 0.03100
C 	C 	0.40330 0.27900 0.46940 -0.05400
C 	C 	0.41730 0.31470 0.40500 -0.11700
H 	H 	0.38230 0.34110 0.34550 0.10000
C 	C 	0.48280 0.31130 0.42860 0.19300
C 	C 	0.53470 0.27320 0.51400 -0.12900
H 	H 	0.57940 0.27030 0.52830 0.11600
C 	C 	0.45660 0.40680 0.30130 0.17600
C 	C 	0.40310 0.39010 0.20420 -0.00300
C 	C 	0.36130 0.45510 0.14310 0.01700
H 	H 	0.32490 0.44340 0.07670 0.05500
C 	C 	0.37270 0.53700 0.17880 -0.13600
C 	C 	0.42750 0.55370 0.27480 0.08300
H 	H 	0.43620 0.61000 0.29920 0.01800
C 	C 	0.46940 0.48920 0.33490 -0.17800
H 	H 	0.50740 0.50150 0.39980 0.10600
C 	C 	0.57770 0.20030 0.67520 0.28700
C 	C 	0.33090 0.28200 0.43910 0.34600
C 	C 	0.32470 0.60670 0.11530 0.40400
N 	N 	0.38680 0.30460 0.16250 0.01000
O 	O 	0.63566 0.19720 0.69150 -0.35000
O 	O 	0.56467 0.17410 0.73610 -0.38600
O 	O 	0.31316 0.24210 0.48870 -0.48100
O 	O 	0.28893 0.32420 0.36390 -0.38700
O 	O 	0.41060 0.24400 0.21780 -0.10000
O 	O 	0.35020 0.29740 0.07180 -0.10800
O 	O 	0.27990 0.58870 0.02660 -0.43900
O 	O 	0.33298 0.67640 0.15630 -0.42000
O 	O 	0.50012 0.34460 0.36580 -0.22100
