data_crystal

_cell_length_a 23.61080
_cell_length_b 15.72880
_cell_length_c 16.16120
_cell_angle_alpha 90.00000
_cell_angle_beta  124.29100
_cell_angle_gamma 90.00000

_symmetry_space_group_name_	'P 1'
_symmetry_space_group_name_H-M	'P 1'

loop_
_symmetry_equiv_pos_as_xyz
  x,y,z

loop_
_atom_site_label
_atom_site_type_symbol
_atom_site_fract_x
_atom_site_fract_y
_atom_site_fract_z
_atom_site_charge
Sm	Sm	0.81046 0.82814 0.12169 1.89600
C 	C 	0.09830 0.72340 0.53030 -0.08200
C 	C 	0.08440 0.68840 0.59640 -0.10600
H 	H 	0.12010 0.66260 0.65690 0.09300
C 	C 	0.01870 0.69120 0.57350 0.18700
C 	C 	0.96570 0.72770 0.48570 -0.12700
H 	H 	0.92080 0.72970 0.47130 0.11400
C 	C 	0.97900 0.76160 0.41820 -0.02900
C 	C 	0.04490 0.75810 0.43950 -0.00300
H 	H 	0.05350 0.77920 0.39260 0.02400
C 	C 	0.04560 0.59520 0.70180 0.18400
C 	C 	0.09990 0.61020 0.80010 -0.01400
C 	C 	0.14090 0.54460 0.86040 0.03500
H 	H 	0.17750 0.55580 0.92780 0.04500
C 	C 	0.12930 0.46270 0.82390 -0.16300
C 	C 	0.07390 0.44680 0.72670 0.10000
H 	H 	0.06460 0.39040 0.70150 0.01100
C 	C 	0.03200 0.51270 0.66620 -0.19000
H 	H 	0.99390 0.50110 0.60000 0.10900
C 	C 	0.17050 0.72230 0.55900 0.41200
C 	C 	0.17710 0.39090 0.88770 0.47000
C 	C 	0.92080 0.79770 0.32100 0.29200
N 	N 	0.11610 0.69590 0.84330 0.01300
O 	O 	0.18694 0.76150 0.50780 -0.57000
O 	O 	0.21358 0.68160 0.63640 -0.45300
O 	O 	0.09370 0.75720 0.78760 -0.10500
O 	O 	0.15240 0.70220 0.93440 -0.11200
O 	O 	0.22096 0.40770 0.97890 -0.51200
O 	O 	0.16829 0.32210 0.84420 -0.48500
O 	O 	0.86215 0.80050 0.30460 -0.38500
O 	O 	0.93235 0.82270 0.25750 -0.43500
O 	O 	0.00225 0.65840 0.63690 -0.22400
Sm	Sm	0.31046 0.32814 0.12169 1.90300
C 	C 	0.59830 0.22340 0.53030 -0.08100
C 	C 	0.58440 0.18840 0.59640 -0.10500
H 	H 	0.62010 0.16260 0.65690 0.09400
C 	C 	0.51870 0.19120 0.57350 0.18800
C 	C 	0.46570 0.22770 0.48570 -0.12600
H 	H 	0.42080 0.22970 0.47130 0.11400
C 	C 	0.47900 0.26160 0.41820 -0.02800
C 	C 	0.54490 0.25810 0.43950 -0.00400
H 	H 	0.55350 0.27920 0.39260 0.02400
C 	C 	0.54560 0.09520 0.70180 0.18400
C 	C 	0.59990 0.11020 0.80010 -0.01400
C 	C 	0.64090 0.04460 0.86040 0.03300
H 	H 	0.67750 0.05580 0.92780 0.04500
C 	C 	0.62930 0.96270 0.82390 -0.16100
C 	C 	0.57390 0.94680 0.72670 0.10000
H 	H 	0.56460 0.89040 0.70150 0.01100
C 	C 	0.53200 0.01270 0.66620 -0.19000
H 	H 	0.49390 0.00110 0.60000 0.10900
C 	C 	0.67050 0.22230 0.55900 0.41200
C 	C 	0.67710 0.89090 0.88770 0.47000
C 	C 	0.42080 0.29770 0.32100 0.29200
N 	N 	0.61610 0.19590 0.84330 0.01200
O 	O 	0.68694 0.26150 0.50780 -0.57000
O 	O 	0.71358 0.18160 0.63640 -0.45300
O 	O 	0.59370 0.25720 0.78760 -0.10500
O 	O 	0.65240 0.20220 0.93440 -0.11300
O 	O 	0.72096 0.90770 0.97890 -0.50900
O 	O 	0.66829 0.82210 0.84420 -0.48400
O 	O 	0.36215 0.30050 0.30460 -0.38500
O 	O 	0.43235 0.32270 0.25750 -0.43500
O 	O 	0.50225 0.15840 0.63690 -0.22400
Sm	Sm	0.18954 0.82814 0.37831 1.90200
C 	C 	0.90170 0.72340 0.96970 -0.07600
C 	C 	0.91560 0.68840 0.90360 -0.10800
H 	H 	0.87990 0.66260 0.84310 0.09600
C 	C 	0.98130 0.69120 0.92650 0.19100
C 	C 	0.03430 0.72770 0.01430 -0.13000
H 	H 	0.07920 0.72970 0.02870 0.11600
C 	C 	0.02100 0.76160 0.08180 -0.02300
C 	C 	0.95510 0.75810 0.06050 -0.01100
H 	H 	0.94650 0.77920 0.10740 0.02600
C 	C 	0.95440 0.59520 0.79820 0.18300
C 	C 	0.90010 0.61020 0.69990 -0.01400
C 	C 	0.85910 0.54460 0.63960 0.03400
H 	H 	0.82250 0.55580 0.57220 0.04500
C 	C 	0.87070 0.46270 0.67610 -0.16200
C 	C 	0.92610 0.44680 0.77330 0.09800
H 	H 	0.93540 0.39040 0.79850 0.01200
C 	C 	0.96800 0.51270 0.83380 -0.18700
H 	H 	0.00610 0.50110 0.90000 0.10600
C 	C 	0.82950 0.72230 0.94100 0.41000
C 	C 	0.82290 0.39090 0.61230 0.47000
C 	C 	0.07920 0.79770 0.17900 0.29000
N 	N 	0.88390 0.69590 0.65670 0.01200
O 	O 	0.81306 0.76150 0.99220 -0.56900
O 	O 	0.78642 0.68160 0.86360 -0.45200
O 	O 	0.90630 0.75720 0.71240 -0.10500
O 	O 	0.84760 0.70220 0.56560 -0.11200
O 	O 	0.77904 0.40770 0.52110 -0.51100
O 	O 	0.83171 0.32210 0.65580 -0.48500
O 	O 	0.13785 0.80050 0.19540 -0.38500
O 	O 	0.06765 0.82270 0.24250 -0.43400
O 	O 	0.99775 0.65840 0.86310 -0.22500
Sm	Sm	0.68954 0.32814 0.37831 1.90200
C 	C 	0.40170 0.22340 0.96970 -0.08500
C 	C 	0.41560 0.18840 0.90360 -0.10300
H 	H 	0.37990 0.16260 0.84310 0.09400
C 	C 	0.48130 0.19120 0.92650 0.18500
C 	C 	0.53430 0.22770 0.01430 -0.12200
H 	H 	0.57920 0.22970 0.02870 0.11400
C 	C 	0.52100 0.26160 0.08180 -0.03000
C 	C 	0.45510 0.25810 0.06050 -0.00000
H 	H 	0.44650 0.27920 0.10740 0.02300
C 	C 	0.45440 0.09520 0.79820 0.18400
C 	C 	0.40010 0.11020 0.69990 -0.01400
C 	C 	0.35910 0.04460 0.63960 0.03400
H 	H 	0.32250 0.05580 0.57220 0.04500
C 	C 	0.37070 0.96270 0.67610 -0.16200
C 	C 	0.42610 0.94680 0.77330 0.10200
H 	H 	0.43540 0.89040 0.79850 0.01100
C 	C 	0.46800 0.01270 0.83380 -0.19200
H 	H 	0.50610 0.00110 0.90000 0.10800
C 	C 	0.32950 0.22230 0.94100 0.41300
C 	C 	0.32290 0.89090 0.61230 0.47000
C 	C 	0.57920 0.29770 0.17900 0.29300
N 	N 	0.38390 0.19590 0.65670 0.01300
O 	O 	0.31306 0.26150 0.99220 -0.57200
O 	O 	0.28642 0.18160 0.86360 -0.45300
O 	O 	0.40630 0.25720 0.71240 -0.10500
O 	O 	0.34760 0.20220 0.56560 -0.11200
O 	O 	0.27904 0.90770 0.52110 -0.51100
O 	O 	0.33171 0.82210 0.65580 -0.48500
O 	O 	0.63785 0.30050 0.19540 -0.38500
O 	O 	0.56765 0.32270 0.24250 -0.43500
O 	O 	0.49775 0.15840 0.86310 -0.22400
Sm	Sm	0.18954 0.17186 0.87831 1.89700
C 	C 	0.90170 0.27660 0.46970 -0.08100
C 	C 	0.91560 0.31160 0.40360 -0.10500
H 	H 	0.87990 0.33740 0.34310 0.09400
C 	C 	0.98130 0.30880 0.42650 0.18800
C 	C 	0.03430 0.27230 0.51430 -0.12600
H 	H 	0.07920 0.27030 0.52870 0.11400
C 	C 	0.02100 0.23840 0.58180 -0.02900
C 	C 	0.95510 0.24190 0.56050 -0.00300
H 	H 	0.94650 0.22080 0.60740 0.02400
C 	C 	0.95440 0.40480 0.29820 0.18400
C 	C 	0.90010 0.38980 0.19990 -0.01400
C 	C 	0.85910 0.45540 0.13960 0.03500
H 	H 	0.82250 0.44420 0.07220 0.04500
C 	C 	0.87070 0.53730 0.17610 -0.16300
C 	C 	0.92610 0.55320 0.27330 0.10000
H 	H 	0.93540 0.60960 0.29850 0.01100
C 	C 	0.96800 0.48730 0.33380 -0.19000
H 	H 	0.00610 0.49890 0.40000 0.10900
C 	C 	0.82950 0.27770 0.44100 0.41200
C 	C 	0.82290 0.60910 0.11230 0.47000
C 	C 	0.07920 0.20230 0.67900 0.29200
N 	N 	0.88390 0.30410 0.15670 0.01300
O 	O 	0.81306 0.23850 0.49220 -0.57000
O 	O 	0.78642 0.31840 0.36360 -0.45300
O 	O 	0.90630 0.24280 0.21240 -0.10500
O 	O 	0.84760 0.29780 0.06560 -0.11200
O 	O 	0.77904 0.59230 0.02110 -0.51200
O 	O 	0.83171 0.67790 0.15580 -0.48500
O 	O 	0.13785 0.19950 0.69540 -0.38500
O 	O 	0.06765 0.17730 0.74250 -0.43500
O 	O 	0.99775 0.34160 0.36310 -0.22400
Sm	Sm	0.68954 0.67186 0.87831 1.90300
C 	C 	0.40170 0.77660 0.46970 -0.08100
C 	C 	0.41560 0.81160 0.40360 -0.10500
H 	H 	0.37990 0.83740 0.34310 0.09400
C 	C 	0.48130 0.80880 0.42650 0.18800
C 	C 	0.53430 0.77230 0.51430 -0.12600
H 	H 	0.57920 0.77030 0.52870 0.11400
C 	C 	0.52100 0.73840 0.58180 -0.02800
C 	C 	0.45510 0.74190 0.56050 -0.00400
H 	H 	0.44650 0.72080 0.60740 0.02400
C 	C 	0.45440 0.90480 0.29820 0.18400
C 	C 	0.40010 0.88980 0.19990 -0.01400
C 	C 	0.35910 0.95540 0.13960 0.03300
H 	H 	0.32250 0.94420 0.07220 0.04500
C 	C 	0.37070 0.03730 0.17610 -0.16100
C 	C 	0.42610 0.05320 0.27330 0.10000
H 	H 	0.43540 0.10960 0.29850 0.01100
C 	C 	0.46800 0.98730 0.33380 -0.19000
H 	H 	0.50610 0.99890 0.40000 0.10900
C 	C 	0.32950 0.77770 0.44100 0.41200
C 	C 	0.32290 0.10910 0.11230 0.47000
C 	C 	0.57920 0.70230 0.67900 0.29200
N 	N 	0.38390 0.80410 0.15670 0.01200
O 	O 	0.31306 0.73850 0.49220 -0.57000
O 	O 	0.28642 0.81840 0.36360 -0.45300
O 	O 	0.40630 0.74280 0.21240 -0.10500
O 	O 	0.34760 0.79780 0.06560 -0.11300
O 	O 	0.27904 0.09230 0.02110 -0.50900
O 	O 	0.33171 0.17790 0.15580 -0.48400
O 	O 	0.63785 0.69950 0.69540 -0.38500
O 	O 	0.56765 0.67730 0.74250 -0.43500
O 	O 	0.49775 0.84160 0.36310 -0.22400
Sm	Sm	0.81046 0.17186 0.62169 1.90200
C 	C 	0.09830 0.27660 0.03030 -0.07600
C 	C 	0.08440 0.31160 0.09640 -0.10800
H 	H 	0.12010 0.33740 0.15690 0.09600
C 	C 	0.01870 0.30880 0.07350 0.19100
C 	C 	0.96570 0.27230 0.98570 -0.13000
H 	H 	0.92080 0.27030 0.97130 0.11600
C 	C 	0.97900 0.23840 0.91820 -0.02300
C 	C 	0.04490 0.24190 0.93950 -0.01100
H 	H 	0.05350 0.22080 0.89260 0.02600
C 	C 	0.04560 0.40480 0.20180 0.18300
C 	C 	0.09990 0.38980 0.30010 -0.01400
C 	C 	0.14090 0.45540 0.36040 0.03400
H 	H 	0.17750 0.44420 0.42780 0.04500
C 	C 	0.12930 0.53730 0.32390 -0.16200
C 	C 	0.07390 0.55320 0.22670 0.09800
H 	H 	0.06460 0.60960 0.20150 0.01200
C 	C 	0.03200 0.48730 0.16620 -0.18700
H 	H 	0.99390 0.49890 0.10000 0.10600
C 	C 	0.17050 0.27770 0.05900 0.41000
C 	C 	0.17710 0.60910 0.38770 0.47000
C 	C 	0.92080 0.20230 0.82100 0.29000
N 	N 	0.11610 0.30410 0.34330 0.01200
O 	O 	0.18694 0.23850 0.00780 -0.56900
O 	O 	0.21358 0.31840 0.13640 -0.45200
O 	O 	0.09370 0.24280 0.28760 -0.10500
O 	O 	0.15240 0.29780 0.43440 -0.11200
O 	O 	0.22096 0.59230 0.47890 -0.51100
O 	O 	0.16829 0.67790 0.34420 -0.48500
O 	O 	0.86215 0.19950 0.80460 -0.38500
O 	O 	0.93235 0.17730 0.75750 -0.43400
O 	O 	0.00225 0.34160 0.13690 -0.22500
Sm	Sm	0.31046 0.67186 0.62169 1.90200
C 	C 	0.59830 0.77660 0.03030 -0.08500
C 	C 	0.58440 0.81160 0.09640 -0.10300
H 	H 	0.62010 0.83740 0.15690 0.09400
C 	C 	0.51870 0.80880 0.07350 0.18500
C 	C 	0.46570 0.77230 0.98570 -0.12200
H 	H 	0.42080 0.77030 0.97130 0.11400
C 	C 	0.47900 0.73840 0.91820 -0.03000
C 	C 	0.54490 0.74190 0.93950 -0.00000
H 	H 	0.55350 0.72080 0.89260 0.02300
C 	C 	0.54560 0.90480 0.20180 0.18400
C 	C 	0.59990 0.88980 0.30010 -0.01400
C 	C 	0.64090 0.95540 0.36040 0.03400
H 	H 	0.67750 0.94420 0.42780 0.04500
C 	C 	0.62930 0.03730 0.32390 -0.16200
C 	C 	0.57390 0.05320 0.22670 0.10200
H 	H 	0.56460 0.10960 0.20150 0.01100
C 	C 	0.53200 0.98730 0.16620 -0.19200
H 	H 	0.49390 0.99890 0.10000 0.10800
C 	C 	0.67050 0.77770 0.05900 0.41300
C 	C 	0.67710 0.10910 0.38770 0.47000
C 	C 	0.42080 0.70230 0.82100 0.29300
N 	N 	0.61610 0.80410 0.34330 0.01300
O 	O 	0.68694 0.73850 0.00780 -0.57200
O 	O 	0.71358 0.81840 0.13640 -0.45300
O 	O 	0.59370 0.74280 0.28760 -0.10500
O 	O 	0.65240 0.79780 0.43440 -0.11200
O 	O 	0.72096 0.09230 0.47890 -0.51100
O 	O 	0.66829 0.17790 0.34420 -0.48500
O 	O 	0.36215 0.69950 0.80460 -0.38500
O 	O 	0.43235 0.67730 0.75750 -0.43500
O 	O 	0.50225 0.84160 0.13690 -0.22400
