data_crystal

_cell_length_a 23.57100
_cell_length_b 15.67300
_cell_length_c 16.08200
_cell_angle_alpha 90.00000
_cell_angle_beta  124.15400
_cell_angle_gamma 90.00000

_symmetry_space_group_name_	'P 1'
_symmetry_space_group_name_H-M	'P 1'

loop_
_symmetry_equiv_pos_as_xyz
  x,y,z

loop_
_atom_site_label
_atom_site_type_symbol
_atom_site_fract_x
_atom_site_fract_y
_atom_site_fract_z
_atom_site_charge
Dy	Dy	0.81048 0.67198 0.62354 1.71000
C 	C 	0.13280 0.03950 0.32650 -0.15600
C 	C 	0.14360 0.95730 0.36270 0.03100
H 	H 	0.17990 0.94600 0.43040 0.05000
C 	C 	0.10240 0.89110 0.30250 -0.00700
C 	C 	0.04790 0.90690 0.20340 0.18100
C 	C 	0.03440 0.99000 0.16750 -0.18700
H 	H 	0.99600 0.00190 0.10160 0.10900
C 	C 	0.07700 0.05540 0.22780 0.09600
H 	H 	0.06830 0.11190 0.20210 0.01400
C 	C 	0.01940 0.81020 0.07350 0.19000
C 	C 	0.08500 0.81060 0.09570 -0.11000
H 	H 	0.12160 0.83480 0.15680 0.09700
C 	C 	0.09720 0.77530 0.02800 -0.06800
C 	C 	0.04350 0.74060 0.93790 -0.01500
H 	H 	0.05140 0.71830 0.89030 0.03900
C 	C 	0.97770 0.73920 0.91840 -0.01700
C 	C 	0.96620 0.77340 0.98740 -0.13200
H 	H 	0.92180 0.77120 0.97500 0.11900
C 	C 	0.17970 0.11080 0.39070 0.45800
C 	C 	0.16930 0.77420 0.05530 0.40400
C 	C 	0.91900 0.70380 0.82010 0.28500
N 	N 	0.11770 0.80540 0.34480 0.01000
O 	O 	0.17250 0.17970 0.34560 -0.45200
O 	O 	0.22210 0.09580 0.48210 -0.48600
O 	O 	0.15330 0.79950 0.43700 -0.10900
O 	O 	0.09490 0.74370 0.28880 -0.10100
O 	O 	0.21430 0.81260 0.13300 -0.43600
O 	O 	0.18250 0.73420 0.99950 -0.52100
O 	O 	0.92950 0.67900 0.75470 -0.41300
O 	O 	0.86050 0.70100 0.80430 -0.36000
O 	O 	0.00350 0.84390 0.13870 -0.22100
Dy	Dy	0.31048 0.17198 0.62354 1.70900
C 	C 	0.63280 0.53950 0.32650 -0.15600
C 	C 	0.64360 0.45730 0.36270 0.03000
H 	H 	0.67990 0.44600 0.43040 0.04900
C 	C 	0.60240 0.39110 0.30250 -0.00800
C 	C 	0.54790 0.40690 0.20340 0.17900
C 	C 	0.53440 0.49000 0.16750 -0.18300
H 	H 	0.49600 0.50190 0.10160 0.10700
C 	C 	0.57700 0.55540 0.22780 0.09400
H 	H 	0.56830 0.61190 0.20210 0.01500
C 	C 	0.51940 0.31020 0.07350 0.19300
C 	C 	0.58500 0.31060 0.09570 -0.11200
H 	H 	0.62160 0.33480 0.15680 0.09800
C 	C 	0.59720 0.27530 0.02800 -0.06600
C 	C 	0.54350 0.24060 0.93790 -0.01700
H 	H 	0.55140 0.21830 0.89030 0.04000
C 	C 	0.47770 0.23920 0.91840 -0.01500
C 	C 	0.46620 0.27340 0.98740 -0.13400
H 	H 	0.42180 0.27120 0.97500 0.11900
C 	C 	0.67970 0.61080 0.39070 0.45800
C 	C 	0.66930 0.27420 0.05530 0.40500
C 	C 	0.41900 0.20380 0.82010 0.28500
N 	N 	0.61770 0.30540 0.34480 0.01000
O 	O 	0.67250 0.67970 0.34560 -0.45200
O 	O 	0.72210 0.59580 0.48210 -0.48600
O 	O 	0.65330 0.29950 0.43700 -0.10900
O 	O 	0.59490 0.24370 0.28880 -0.10100
O 	O 	0.71430 0.31260 0.13300 -0.43600
O 	O 	0.68250 0.23420 0.99950 -0.52200
O 	O 	0.42950 0.17900 0.75470 -0.41300
O 	O 	0.36050 0.20100 0.80430 -0.36000
O 	O 	0.50350 0.34390 0.13870 -0.22100
Dy	Dy	0.18952 0.67198 0.87646 1.70900
C 	C 	0.86720 0.03950 0.17350 -0.15500
C 	C 	0.85640 0.95730 0.13730 0.02900
H 	H 	0.82010 0.94600 0.06960 0.04900
C 	C 	0.89760 0.89110 0.19750 -0.00800
C 	C 	0.95210 0.90690 0.29660 0.17900
C 	C 	0.96560 0.99000 0.33250 -0.18500
H 	H 	0.00400 0.00190 0.39840 0.10800
C 	C 	0.92300 0.05540 0.27220 0.09500
H 	H 	0.93170 0.11190 0.29790 0.01500
C 	C 	0.98060 0.81020 0.42650 0.19100
C 	C 	0.91500 0.81060 0.40430 -0.11100
H 	H 	0.87840 0.83480 0.34320 0.09800
C 	C 	0.90280 0.77530 0.47200 -0.06700
C 	C 	0.95650 0.74060 0.56210 -0.01600
H 	H 	0.94860 0.71830 0.60970 0.03900
C 	C 	0.02230 0.73920 0.58160 -0.01600
C 	C 	0.03380 0.77340 0.51260 -0.13300
H 	H 	0.07820 0.77120 0.52500 0.11900
C 	C 	0.82030 0.11080 0.10930 0.45800
C 	C 	0.83070 0.77420 0.44470 0.40500
C 	C 	0.08100 0.70380 0.67990 0.28500
N 	N 	0.88230 0.80540 0.15520 0.01000
O 	O 	0.82750 0.17970 0.15440 -0.45100
O 	O 	0.77790 0.09580 0.01790 -0.48500
O 	O 	0.84670 0.79950 0.06300 -0.10900
O 	O 	0.90510 0.74370 0.21120 -0.10100
O 	O 	0.78570 0.81260 0.36700 -0.43600
O 	O 	0.81750 0.73420 0.50050 -0.52100
O 	O 	0.07050 0.67900 0.74530 -0.41300
O 	O 	0.13950 0.70100 0.69570 -0.36000
O 	O 	0.99650 0.84390 0.36130 -0.22100
Dy	Dy	0.68952 0.17198 0.87646 1.70800
C 	C 	0.36720 0.53950 0.17350 -0.15600
C 	C 	0.35640 0.45730 0.13730 0.03000
H 	H 	0.32010 0.44600 0.06960 0.04900
C 	C 	0.39760 0.39110 0.19750 -0.00800
C 	C 	0.45210 0.40690 0.29660 0.17900
C 	C 	0.46560 0.49000 0.33250 -0.18300
H 	H 	0.50400 0.50190 0.39840 0.10800
C 	C 	0.42300 0.55540 0.27220 0.09400
H 	H 	0.43170 0.61190 0.29790 0.01500
C 	C 	0.48060 0.31020 0.42650 0.19100
C 	C 	0.41500 0.31060 0.40430 -0.11100
H 	H 	0.37840 0.33480 0.34320 0.09800
C 	C 	0.40280 0.27530 0.47200 -0.06700
C 	C 	0.45650 0.24060 0.56210 -0.01600
H 	H 	0.44860 0.21830 0.60970 0.03900
C 	C 	0.52230 0.23920 0.58160 -0.01600
C 	C 	0.53380 0.27340 0.51260 -0.13300
H 	H 	0.57820 0.27120 0.52500 0.11900
C 	C 	0.32030 0.61080 0.10930 0.45800
C 	C 	0.33070 0.27420 0.44470 0.40500
C 	C 	0.58100 0.20380 0.67990 0.28500
N 	N 	0.38230 0.30540 0.15520 0.01000
O 	O 	0.32750 0.67970 0.15440 -0.45200
O 	O 	0.27790 0.59580 0.01790 -0.48600
O 	O 	0.34670 0.29950 0.06300 -0.10900
O 	O 	0.40510 0.24370 0.21120 -0.10100
O 	O 	0.28570 0.31260 0.36700 -0.43600
O 	O 	0.31750 0.23420 0.50050 -0.52100
O 	O 	0.57050 0.17900 0.74530 -0.41300
O 	O 	0.63950 0.20100 0.69570 -0.35900
O 	O 	0.49650 0.34390 0.36130 -0.22100
Dy	Dy	0.18952 0.32802 0.37646 1.70900
C 	C 	0.86720 0.96050 0.67350 -0.15700
C 	C 	0.85640 0.04270 0.63730 0.03000
H 	H 	0.82010 0.05400 0.56960 0.04900
C 	C 	0.89760 0.10890 0.69750 -0.00800
C 	C 	0.95210 0.09310 0.79660 0.18000
C 	C 	0.96560 0.01000 0.83250 -0.18700
H 	H 	0.00400 0.99810 0.89840 0.10900
C 	C 	0.92300 0.94460 0.77220 0.09600
H 	H 	0.93170 0.88810 0.79790 0.01400
C 	C 	0.98060 0.18980 0.92650 0.19000
C 	C 	0.91500 0.18940 0.90430 -0.11000
H 	H 	0.87840 0.16520 0.84320 0.09700
C 	C 	0.90280 0.22470 0.97200 -0.06800
C 	C 	0.95650 0.25940 0.06210 -0.01500
H 	H 	0.94860 0.28170 0.10970 0.03900
C 	C 	0.02230 0.26080 0.08160 -0.01700
C 	C 	0.03380 0.22660 0.01260 -0.13200
H 	H 	0.07820 0.22880 0.02500 0.11900
C 	C 	0.82030 0.88920 0.60930 0.45800
C 	C 	0.83070 0.22580 0.94470 0.40400
C 	C 	0.08100 0.29620 0.17990 0.28500
N 	N 	0.88230 0.19460 0.65520 0.01000
O 	O 	0.82750 0.82030 0.65440 -0.45200
O 	O 	0.77790 0.90420 0.51790 -0.48600
O 	O 	0.84670 0.20050 0.56300 -0.10900
O 	O 	0.90510 0.25630 0.71120 -0.10100
O 	O 	0.78570 0.18740 0.86700 -0.43600
O 	O 	0.81750 0.26580 0.00050 -0.52100
O 	O 	0.07050 0.32100 0.24530 -0.41300
O 	O 	0.13950 0.29900 0.19570 -0.36000
O 	O 	0.99650 0.15610 0.86130 -0.22100
Dy	Dy	0.68952 0.82802 0.37646 1.70900
C 	C 	0.36720 0.46050 0.67350 -0.15600
C 	C 	0.35640 0.54270 0.63730 0.03000
H 	H 	0.32010 0.55400 0.56960 0.04900
C 	C 	0.39760 0.60890 0.69750 -0.00800
C 	C 	0.45210 0.59310 0.79660 0.17900
C 	C 	0.46560 0.51000 0.83250 -0.18300
H 	H 	0.50400 0.49810 0.89840 0.10700
C 	C 	0.42300 0.44460 0.77220 0.09400
H 	H 	0.43170 0.38810 0.79790 0.01500
C 	C 	0.48060 0.68980 0.92650 0.19300
C 	C 	0.41500 0.68940 0.90430 -0.11200
H 	H 	0.37840 0.66520 0.84320 0.09800
C 	C 	0.40280 0.72470 0.97200 -0.06600
C 	C 	0.45650 0.75940 0.06210 -0.01700
H 	H 	0.44860 0.78170 0.10970 0.04000
C 	C 	0.52230 0.76080 0.08160 -0.01500
C 	C 	0.53380 0.72660 0.01260 -0.13400
H 	H 	0.57820 0.72880 0.02500 0.11900
C 	C 	0.32030 0.38920 0.60930 0.45800
C 	C 	0.33070 0.72580 0.94470 0.40500
C 	C 	0.58100 0.79620 0.17990 0.28500
N 	N 	0.38230 0.69460 0.65520 0.01000
O 	O 	0.32750 0.32030 0.65440 -0.45200
O 	O 	0.27790 0.40420 0.51790 -0.48600
O 	O 	0.34670 0.70050 0.56300 -0.10900
O 	O 	0.40510 0.75630 0.71120 -0.10100
O 	O 	0.28570 0.68740 0.86700 -0.43600
O 	O 	0.31750 0.76580 0.00050 -0.52200
O 	O 	0.57050 0.82100 0.24530 -0.41300
O 	O 	0.63950 0.79900 0.19570 -0.36000
O 	O 	0.49650 0.65610 0.86130 -0.22100
Dy	Dy	0.81048 0.32802 0.12354 1.70900
C 	C 	0.13280 0.96050 0.82650 -0.15500
C 	C 	0.14360 0.04270 0.86270 0.02900
H 	H 	0.17990 0.05400 0.93040 0.04900
C 	C 	0.10240 0.10890 0.80250 -0.00800
C 	C 	0.04790 0.09310 0.70340 0.17900
C 	C 	0.03440 0.01000 0.66750 -0.18500
H 	H 	0.99600 0.99810 0.60160 0.10800
C 	C 	0.07700 0.94460 0.72780 0.09500
H 	H 	0.06830 0.88810 0.70210 0.01500
C 	C 	0.01940 0.18980 0.57350 0.19100
C 	C 	0.08500 0.18940 0.59570 -0.11100
H 	H 	0.12160 0.16520 0.65680 0.09800
C 	C 	0.09720 0.22470 0.52800 -0.06700
C 	C 	0.04350 0.25940 0.43790 -0.01600
H 	H 	0.05140 0.28170 0.39030 0.03900
C 	C 	0.97770 0.26080 0.41840 -0.01600
C 	C 	0.96620 0.22660 0.48740 -0.13300
H 	H 	0.92180 0.22880 0.47500 0.11900
C 	C 	0.17970 0.88920 0.89070 0.45800
C 	C 	0.16930 0.22580 0.55530 0.40500
C 	C 	0.91900 0.29620 0.32010 0.28500
N 	N 	0.11770 0.19460 0.84480 0.01000
O 	O 	0.17250 0.82030 0.84560 -0.45100
O 	O 	0.22210 0.90420 0.98210 -0.48500
O 	O 	0.15330 0.20050 0.93700 -0.10900
O 	O 	0.09490 0.25630 0.78880 -0.10100
O 	O 	0.21430 0.18740 0.63300 -0.43600
O 	O 	0.18250 0.26580 0.49950 -0.52100
O 	O 	0.92950 0.32100 0.25470 -0.41300
O 	O 	0.86050 0.29900 0.30430 -0.36000
O 	O 	0.00350 0.15610 0.63870 -0.22100
Dy	Dy	0.31048 0.82802 0.12354 1.70800
C 	C 	0.63280 0.46050 0.82650 -0.15600
C 	C 	0.64360 0.54270 0.86270 0.03000
H 	H 	0.67990 0.55400 0.93040 0.04900
C 	C 	0.60240 0.60890 0.80250 -0.00800
C 	C 	0.54790 0.59310 0.70340 0.17900
C 	C 	0.53440 0.51000 0.66750 -0.18300
H 	H 	0.49600 0.49810 0.60160 0.10800
C 	C 	0.57700 0.44460 0.72780 0.09400
H 	H 	0.56830 0.38810 0.70210 0.01500
C 	C 	0.51940 0.68980 0.57350 0.19100
C 	C 	0.58500 0.68940 0.59570 -0.11100
H 	H 	0.62160 0.66520 0.65680 0.09800
C 	C 	0.59720 0.72470 0.52800 -0.06700
C 	C 	0.54350 0.75940 0.43790 -0.01600
H 	H 	0.55140 0.78170 0.39030 0.03900
C 	C 	0.47770 0.76080 0.41840 -0.01600
C 	C 	0.46620 0.72660 0.48740 -0.13300
H 	H 	0.42180 0.72880 0.47500 0.11900
C 	C 	0.67970 0.38920 0.89070 0.45800
C 	C 	0.66930 0.72580 0.55530 0.40500
C 	C 	0.41900 0.79620 0.32010 0.28500
N 	N 	0.61770 0.69460 0.84480 0.01000
O 	O 	0.67250 0.32030 0.84560 -0.45200
O 	O 	0.72210 0.40420 0.98210 -0.48600
O 	O 	0.65330 0.70050 0.93700 -0.10900
O 	O 	0.59490 0.75630 0.78880 -0.10100
O 	O 	0.71430 0.68740 0.63300 -0.43600
O 	O 	0.68250 0.76580 0.49950 -0.52100
O 	O 	0.42950 0.82100 0.25470 -0.41300
O 	O 	0.36050 0.79900 0.30430 -0.35900
O 	O 	0.50350 0.65610 0.63870 -0.22100
