data_crystal

_cell_length_a 23.58620
_cell_length_b 15.70790
_cell_length_c 16.09330
_cell_angle_alpha 90.00000
_cell_angle_beta  124.16000
_cell_angle_gamma 90.00000

_symmetry_space_group_name_	'P 1'
_symmetry_space_group_name_H-M	'P 1'

loop_
_symmetry_equiv_pos_as_xyz
  x,y,z

loop_
_atom_site_label
_atom_site_type_symbol
_atom_site_fract_x
_atom_site_fract_y
_atom_site_fract_z
_atom_site_charge
Tb	Tb	0.68945 0.82761 0.87687 1.75200
C 	C 	0.36830 0.46120 0.17370 -0.15300
C 	C 	0.35680 0.54340 0.13660 0.02700
H 	H 	0.32030 0.55460 0.06900 0.04900
C 	C 	0.39830 0.60970 0.19790 -0.00600
C 	C 	0.45270 0.59380 0.29690 0.17800
C 	C 	0.46540 0.51090 0.33210 -0.18300
H 	H 	0.50320 0.49920 0.39860 0.10700
C 	C 	0.42380 0.44510 0.27180 0.09300
H 	H 	0.43300 0.38860 0.29710 0.01400
C 	C 	0.48050 0.69120 0.42520 0.18900
C 	C 	0.41490 0.68970 0.40360 -0.10800
H 	H 	0.37850 0.66480 0.34300 0.09700
C 	C 	0.40270 0.72470 0.47110 -0.07000
C 	C 	0.45610 0.75890 0.56140 -0.01200
H 	H 	0.44790 0.78070 0.60880 0.03500
C 	C 	0.52180 0.76090 0.58150 -0.02100
C 	C 	0.53410 0.72750 0.51280 -0.12800
H 	H 	0.57870 0.72950 0.52610 0.11700
C 	C 	0.32040 0.38970 0.10970 0.45800
C 	C 	0.33020 0.72470 0.44340 0.40800
C 	C 	0.58070 0.79610 0.67960 0.29100
N 	N 	0.38260 0.69470 0.15450 0.01100
O 	O 	0.32793 0.32110 0.15450 -0.45900
O 	O 	0.27744 0.40530 0.01830 -0.49100
O 	O 	0.34750 0.70130 0.06320 -0.10900
O 	O 	0.40470 0.75620 0.21100 -0.10200
O 	O 	0.28568 0.68560 0.36590 -0.44100
O 	O 	0.31630 0.76380 0.49820 -0.53400
O 	O 	0.56967 0.82020 0.74450 -0.41900
O 	O 	0.63896 0.79920 0.69560 -0.36800
O 	O 	0.49657 0.65740 0.36090 -0.22100
Tb	Tb	0.18945 0.32761 0.87687 1.75300
C 	C 	0.86830 0.96120 0.17370 -0.15200
C 	C 	0.85680 0.04340 0.13660 0.02600
H 	H 	0.82030 0.05460 0.06900 0.04900
C 	C 	0.89830 0.10970 0.19790 -0.00700
C 	C 	0.95270 0.09380 0.29690 0.17900
C 	C 	0.96540 0.01090 0.33210 -0.18600
H 	H 	0.00320 0.99920 0.39860 0.10800
C 	C 	0.92380 0.94510 0.27180 0.09500
H 	H 	0.93300 0.88860 0.29710 0.01400
C 	C 	0.98050 0.19120 0.42520 0.18900
C 	C 	0.91490 0.18970 0.40360 -0.10800
H 	H 	0.87850 0.16480 0.34300 0.09600
C 	C 	0.90270 0.22470 0.47110 -0.07100
C 	C 	0.95610 0.25890 0.56140 -0.01100
H 	H 	0.94790 0.28070 0.60880 0.03500
C 	C 	0.02180 0.26090 0.58150 -0.02200
C 	C 	0.03410 0.22750 0.51280 -0.12800
H 	H 	0.07870 0.22950 0.52610 0.11700
C 	C 	0.82040 0.88970 0.10970 0.45700
C 	C 	0.83020 0.22470 0.44340 0.40800
C 	C 	0.08070 0.29610 0.67960 0.29100
N 	N 	0.88260 0.19470 0.15450 0.01100
O 	O 	0.82793 0.82110 0.15450 -0.45900
O 	O 	0.77744 0.90530 0.01830 -0.49000
O 	O 	0.84750 0.20130 0.06320 -0.11000
O 	O 	0.90470 0.25620 0.21100 -0.10200
O 	O 	0.78568 0.18560 0.36590 -0.44100
O 	O 	0.81630 0.26380 0.49820 -0.53400
O 	O 	0.06967 0.32020 0.74450 -0.41900
O 	O 	0.13896 0.29920 0.69560 -0.36800
O 	O 	0.99657 0.15740 0.36090 -0.22200
Tb	Tb	0.31055 0.82761 0.62313 1.75300
C 	C 	0.63170 0.46120 0.32630 -0.15300
C 	C 	0.64320 0.54340 0.36340 0.02700
H 	H 	0.67970 0.55460 0.43100 0.04900
C 	C 	0.60170 0.60970 0.30210 -0.00600
C 	C 	0.54730 0.59380 0.20310 0.17800
C 	C 	0.53460 0.51090 0.16790 -0.18300
H 	H 	0.49680 0.49920 0.10140 0.10700
C 	C 	0.57620 0.44510 0.22820 0.09300
H 	H 	0.56700 0.38860 0.20290 0.01400
C 	C 	0.51950 0.69120 0.07480 0.19100
C 	C 	0.58510 0.68970 0.09640 -0.11000
H 	H 	0.62150 0.66480 0.15700 0.09700
C 	C 	0.59730 0.72470 0.02890 -0.06900
C 	C 	0.54390 0.75890 0.93860 -0.01300
H 	H 	0.55210 0.78070 0.89120 0.03600
C 	C 	0.47820 0.76090 0.91850 -0.02000
C 	C 	0.46590 0.72750 0.98720 -0.13000
H 	H 	0.42130 0.72950 0.97390 0.11700
C 	C 	0.67960 0.38970 0.39030 0.45800
C 	C 	0.66980 0.72470 0.05660 0.40800
C 	C 	0.41930 0.79610 0.82040 0.29000
N 	N 	0.61740 0.69470 0.34550 0.01100
O 	O 	0.67207 0.32110 0.34550 -0.45900
O 	O 	0.72256 0.40530 0.48170 -0.49100
O 	O 	0.65250 0.70130 0.43680 -0.10900
O 	O 	0.59530 0.75620 0.28900 -0.10200
O 	O 	0.71432 0.68560 0.13410 -0.44100
O 	O 	0.68370 0.76380 0.00180 -0.53400
O 	O 	0.43033 0.82020 0.75550 -0.41900
O 	O 	0.36104 0.79920 0.80440 -0.36800
O 	O 	0.50343 0.65740 0.13910 -0.22100
Tb	Tb	0.81055 0.32761 0.62313 1.75300
C 	C 	0.13170 0.96120 0.32630 -0.15300
C 	C 	0.14320 0.04340 0.36340 0.02700
H 	H 	0.17970 0.05460 0.43100 0.04900
C 	C 	0.10170 0.10970 0.30210 -0.00700
C 	C 	0.04730 0.09380 0.20310 0.17900
C 	C 	0.03460 0.01090 0.16790 -0.18500
H 	H 	0.99680 0.99920 0.10140 0.10800
C 	C 	0.07620 0.94510 0.22820 0.09500
H 	H 	0.06700 0.88860 0.20290 0.01400
C 	C 	0.01950 0.19120 0.07480 0.18800
C 	C 	0.08510 0.18970 0.09640 -0.10900
H 	H 	0.12150 0.16480 0.15700 0.09700
C 	C 	0.09730 0.22470 0.02890 -0.07000
C 	C 	0.04390 0.25890 0.93860 -0.01300
H 	H 	0.05210 0.28070 0.89120 0.03500
C 	C 	0.97820 0.26090 0.91850 -0.02000
C 	C 	0.96590 0.22750 0.98720 -0.12800
H 	H 	0.92130 0.22950 0.97390 0.11700
C 	C 	0.17960 0.88970 0.39030 0.45800
C 	C 	0.16980 0.22470 0.05660 0.40800
C 	C 	0.91930 0.29610 0.82040 0.29000
N 	N 	0.11740 0.19470 0.34550 0.01100
O 	O 	0.17207 0.82110 0.34550 -0.45900
O 	O 	0.22256 0.90530 0.48170 -0.49100
O 	O 	0.15250 0.20130 0.43680 -0.10900
O 	O 	0.09530 0.25620 0.28900 -0.10200
O 	O 	0.21432 0.18560 0.13410 -0.44100
O 	O 	0.18370 0.26380 0.00180 -0.53400
O 	O 	0.93033 0.32020 0.75550 -0.41900
O 	O 	0.86104 0.29920 0.80440 -0.36800
O 	O 	0.00343 0.15740 0.13910 -0.22100
Tb	Tb	0.31055 0.17239 0.12313 1.75200
C 	C 	0.63170 0.53880 0.82630 -0.15300
C 	C 	0.64320 0.45660 0.86340 0.02700
H 	H 	0.67970 0.44540 0.93100 0.04900
C 	C 	0.60170 0.39030 0.80210 -0.00600
C 	C 	0.54730 0.40620 0.70310 0.17800
C 	C 	0.53460 0.48910 0.66790 -0.18300
H 	H 	0.49680 0.50080 0.60140 0.10700
C 	C 	0.57620 0.55490 0.72820 0.09300
H 	H 	0.56700 0.61140 0.70290 0.01400
C 	C 	0.51950 0.30880 0.57480 0.18900
C 	C 	0.58510 0.31030 0.59640 -0.10800
H 	H 	0.62150 0.33520 0.65700 0.09700
C 	C 	0.59730 0.27530 0.52890 -0.07000
C 	C 	0.54390 0.24110 0.43860 -0.01200
H 	H 	0.55210 0.21930 0.39120 0.03500
C 	C 	0.47820 0.23910 0.41850 -0.02100
C 	C 	0.46590 0.27250 0.48720 -0.12800
H 	H 	0.42130 0.27050 0.47390 0.11700
C 	C 	0.67960 0.61030 0.89030 0.45800
C 	C 	0.66980 0.27530 0.55660 0.40800
C 	C 	0.41930 0.20390 0.32040 0.29100
N 	N 	0.61740 0.30530 0.84550 0.01100
O 	O 	0.67207 0.67890 0.84550 -0.45900
O 	O 	0.72256 0.59470 0.98170 -0.49100
O 	O 	0.65250 0.29870 0.93680 -0.10900
O 	O 	0.59530 0.24380 0.78900 -0.10200
O 	O 	0.71432 0.31440 0.63410 -0.44100
O 	O 	0.68370 0.23620 0.50180 -0.53400
O 	O 	0.43033 0.17980 0.25550 -0.41900
O 	O 	0.36104 0.20080 0.30440 -0.36800
O 	O 	0.50343 0.34260 0.63910 -0.22100
Tb	Tb	0.81055 0.67239 0.12313 1.75300
C 	C 	0.13170 0.03880 0.82630 -0.15200
C 	C 	0.14320 0.95660 0.86340 0.02600
H 	H 	0.17970 0.94540 0.93100 0.04900
C 	C 	0.10170 0.89030 0.80210 -0.00700
C 	C 	0.04730 0.90620 0.70310 0.17900
C 	C 	0.03460 0.98910 0.66790 -0.18600
H 	H 	0.99680 0.00080 0.60140 0.10800
C 	C 	0.07620 0.05490 0.72820 0.09500
H 	H 	0.06700 0.11140 0.70290 0.01400
C 	C 	0.01950 0.80880 0.57480 0.18900
C 	C 	0.08510 0.81030 0.59640 -0.10800
H 	H 	0.12150 0.83520 0.65700 0.09600
C 	C 	0.09730 0.77530 0.52890 -0.07100
C 	C 	0.04390 0.74110 0.43860 -0.01100
H 	H 	0.05210 0.71930 0.39120 0.03500
C 	C 	0.97820 0.73910 0.41850 -0.02200
C 	C 	0.96590 0.77250 0.48720 -0.12800
H 	H 	0.92130 0.77050 0.47390 0.11700
C 	C 	0.17960 0.11030 0.89030 0.45700
C 	C 	0.16980 0.77530 0.55660 0.40800
C 	C 	0.91930 0.70390 0.32040 0.29100
N 	N 	0.11740 0.80530 0.84550 0.01100
O 	O 	0.17207 0.17890 0.84550 -0.45900
O 	O 	0.22256 0.09470 0.98170 -0.49000
O 	O 	0.15250 0.79870 0.93680 -0.11000
O 	O 	0.09530 0.74380 0.78900 -0.10200
O 	O 	0.21432 0.81440 0.63410 -0.44100
O 	O 	0.18370 0.73620 0.50180 -0.53400
O 	O 	0.93033 0.67980 0.25550 -0.41900
O 	O 	0.86104 0.70080 0.30440 -0.36800
O 	O 	0.00343 0.84260 0.63910 -0.22200
Tb	Tb	0.68945 0.17239 0.37687 1.75300
C 	C 	0.36830 0.53880 0.67370 -0.15300
C 	C 	0.35680 0.45660 0.63660 0.02700
H 	H 	0.32030 0.44540 0.56900 0.04900
C 	C 	0.39830 0.39030 0.69790 -0.00600
C 	C 	0.45270 0.40620 0.79690 0.17800
C 	C 	0.46540 0.48910 0.83210 -0.18300
H 	H 	0.50320 0.50080 0.89860 0.10700
C 	C 	0.42380 0.55490 0.77180 0.09300
H 	H 	0.43300 0.61140 0.79710 0.01400
C 	C 	0.48050 0.30880 0.92520 0.19100
C 	C 	0.41490 0.31030 0.90360 -0.11000
H 	H 	0.37850 0.33520 0.84300 0.09700
C 	C 	0.40270 0.27530 0.97110 -0.06900
C 	C 	0.45610 0.24110 0.06140 -0.01300
H 	H 	0.44790 0.21930 0.10880 0.03600
C 	C 	0.52180 0.23910 0.08150 -0.02000
C 	C 	0.53410 0.27250 0.01280 -0.13000
H 	H 	0.57870 0.27050 0.02610 0.11700
C 	C 	0.32040 0.61030 0.60970 0.45800
C 	C 	0.33020 0.27530 0.94340 0.40800
C 	C 	0.58070 0.20390 0.17960 0.29000
N 	N 	0.38260 0.30530 0.65450 0.01100
O 	O 	0.32793 0.67890 0.65450 -0.45900
O 	O 	0.27744 0.59470 0.51830 -0.49100
O 	O 	0.34750 0.29870 0.56320 -0.10900
O 	O 	0.40470 0.24380 0.71100 -0.10200
O 	O 	0.28568 0.31440 0.86590 -0.44100
O 	O 	0.31630 0.23620 0.99820 -0.53400
O 	O 	0.56967 0.17980 0.24450 -0.41900
O 	O 	0.63896 0.20080 0.19560 -0.36800
O 	O 	0.49657 0.34260 0.86090 -0.22100
Tb	Tb	0.18945 0.67239 0.37687 1.75300
C 	C 	0.86830 0.03880 0.67370 -0.15300
C 	C 	0.85680 0.95660 0.63660 0.02700
H 	H 	0.82030 0.94540 0.56900 0.04900
C 	C 	0.89830 0.89030 0.69790 -0.00700
C 	C 	0.95270 0.90620 0.79690 0.17900
C 	C 	0.96540 0.98910 0.83210 -0.18500
H 	H 	0.00320 0.00080 0.89860 0.10800
C 	C 	0.92380 0.05490 0.77180 0.09500
H 	H 	0.93300 0.11140 0.79710 0.01400
C 	C 	0.98050 0.80880 0.92520 0.18800
C 	C 	0.91490 0.81030 0.90360 -0.10900
H 	H 	0.87850 0.83520 0.84300 0.09700
C 	C 	0.90270 0.77530 0.97110 -0.07000
C 	C 	0.95610 0.74110 0.06140 -0.01300
H 	H 	0.94790 0.71930 0.10880 0.03500
C 	C 	0.02180 0.73910 0.08150 -0.02000
C 	C 	0.03410 0.77250 0.01280 -0.12800
H 	H 	0.07870 0.77050 0.02610 0.11700
C 	C 	0.82040 0.11030 0.60970 0.45800
C 	C 	0.83020 0.77530 0.94340 0.40800
C 	C 	0.08070 0.70390 0.17960 0.29000
N 	N 	0.88260 0.80530 0.65450 0.01100
O 	O 	0.82793 0.17890 0.65450 -0.45900
O 	O 	0.77744 0.09470 0.51830 -0.49100
O 	O 	0.84750 0.79870 0.56320 -0.10900
O 	O 	0.90470 0.74380 0.71100 -0.10200
O 	O 	0.78568 0.81440 0.86590 -0.44100
O 	O 	0.81630 0.73620 0.99820 -0.53400
O 	O 	0.06967 0.67980 0.24450 -0.41900
O 	O 	0.13896 0.70080 0.19560 -0.36800
O 	O 	0.99657 0.84260 0.86090 -0.22100
