data_crystal

_cell_length_a 23.56340
_cell_length_b 15.69400
_cell_length_c 16.04030
_cell_angle_alpha 90.00000
_cell_angle_beta  124.08300
_cell_angle_gamma 90.00000

_symmetry_space_group_name_	'P 1'
_symmetry_space_group_name_H-M	'P 1'

loop_
_symmetry_equiv_pos_as_xyz
  x,y,z

loop_
_atom_site_label
_atom_site_type_symbol
_atom_site_fract_x
_atom_site_fract_y
_atom_site_fract_z
_atom_site_charge
Ho	Ho	0.81081 0.32768 0.62435 1.67700
C 	C 	0.13300 0.96030 0.32730 -0.14800
C 	C 	0.14450 0.04230 0.36460 0.02500
H 	H 	0.18100 0.05340 0.43230 0.05100
C 	C 	0.10280 0.10850 0.30350 -0.00600
C 	C 	0.04850 0.09300 0.20430 0.18000
C 	C 	0.03550 0.01000 0.16900 -0.18300
H 	H 	0.99730 0.99820 0.10270 0.10800
C 	C 	0.07770 0.94380 0.22930 0.09100
H 	H 	0.06890 0.88720 0.20380 0.01600
C 	C 	0.02000 0.19030 0.07500 0.18500
C 	C 	0.08560 0.18960 0.09620 -0.10500
H 	H 	0.12230 0.16490 0.15690 0.09500
C 	C 	0.09720 0.22530 0.02850 -0.07100
C 	C 	0.04300 0.25910 0.93780 -0.01200
H 	H 	0.05060 0.28090 0.88960 0.04000
C 	C 	0.97750 0.26080 0.91860 -0.02000
C 	C 	0.96580 0.22670 0.98800 -0.12500
H 	H 	0.92140 0.22850 0.97570 0.11700
C 	C 	0.18080 0.88810 0.39180 0.45200
C 	C 	0.16900 0.22680 0.05420 0.41100
C 	C 	0.91830 0.29580 0.82020 0.29100
N 	N 	0.11840 0.19360 0.34660 0.01000
O 	O 	0.17360 0.81970 0.34630 -0.44800
O 	O 	0.22316 0.90310 0.48360 -0.48100
O 	O 	0.15340 0.20010 0.43910 -0.10800
O 	O 	0.09630 0.25510 0.29040 -0.10000
O 	O 	0.21494 0.18890 0.13240 -0.43400
O 	O 	0.18153 0.26650 0.99820 -0.51600
O 	O 	0.92920 0.32010 0.75500 -0.41200
O 	O 	0.86015 0.29830 0.80440 -0.35900
O 	O 	0.00440 0.15570 0.14040 -0.22100
Ho	Ho	0.31081 0.82768 0.62435 1.67800
C 	C 	0.63300 0.46030 0.32730 -0.14700
C 	C 	0.64450 0.54230 0.36460 0.02400
H 	H 	0.68100 0.55340 0.43230 0.05100
C 	C 	0.60280 0.60850 0.30350 -0.00500
C 	C 	0.54850 0.59300 0.20430 0.17900
C 	C 	0.53550 0.51000 0.16900 -0.18000
H 	H 	0.49730 0.49820 0.10270 0.10600
C 	C 	0.57770 0.44380 0.22930 0.08800
H 	H 	0.56890 0.38720 0.20380 0.01700
C 	C 	0.52000 0.69030 0.07500 0.18700
C 	C 	0.58560 0.68960 0.09620 -0.10600
H 	H 	0.62230 0.66490 0.15690 0.09600
C 	C 	0.59720 0.72530 0.02850 -0.06900
C 	C 	0.54300 0.75910 0.93780 -0.01400
H 	H 	0.55060 0.78090 0.88960 0.04100
C 	C 	0.47750 0.76080 0.91860 -0.01900
C 	C 	0.46580 0.72670 0.98800 -0.12800
H 	H 	0.42140 0.72850 0.97570 0.11800
C 	C 	0.68080 0.38810 0.39180 0.45100
C 	C 	0.66900 0.72680 0.05420 0.41200
C 	C 	0.41830 0.79580 0.82020 0.29000
N 	N 	0.61840 0.69360 0.34660 0.01000
O 	O 	0.67360 0.31970 0.34630 -0.44800
O 	O 	0.72316 0.40310 0.48360 -0.48100
O 	O 	0.65340 0.70010 0.43910 -0.10800
O 	O 	0.59630 0.75510 0.29040 -0.10000
O 	O 	0.71494 0.68890 0.13240 -0.43400
O 	O 	0.68153 0.76650 0.99820 -0.51700
O 	O 	0.42920 0.82010 0.75500 -0.41200
O 	O 	0.36015 0.79830 0.80440 -0.35900
O 	O 	0.50440 0.65570 0.14040 -0.22100
Ho	Ho	0.18919 0.32768 0.87565 1.67800
C 	C 	0.86700 0.96030 0.17270 -0.14600
C 	C 	0.85550 0.04230 0.13540 0.02300
H 	H 	0.81900 0.05340 0.06770 0.05100
C 	C 	0.89720 0.10850 0.19650 -0.00500
C 	C 	0.95150 0.09300 0.29570 0.17900
C 	C 	0.96450 0.01000 0.33100 -0.18100
H 	H 	0.00270 0.99820 0.39730 0.10700
C 	C 	0.92230 0.94380 0.27070 0.08900
H 	H 	0.93110 0.88720 0.29620 0.01700
C 	C 	0.98000 0.19030 0.42500 0.18600
C 	C 	0.91440 0.18960 0.40380 -0.10500
H 	H 	0.87770 0.16490 0.34310 0.09600
C 	C 	0.90280 0.22530 0.47150 -0.07000
C 	C 	0.95700 0.25910 0.56220 -0.01300
H 	H 	0.94940 0.28090 0.61040 0.04000
C 	C 	0.02250 0.26080 0.58140 -0.02000
C 	C 	0.03420 0.22670 0.51200 -0.12600
H 	H 	0.07860 0.22850 0.52430 0.11700
C 	C 	0.81920 0.88810 0.10820 0.45100
C 	C 	0.83100 0.22680 0.44580 0.41100
C 	C 	0.08170 0.29580 0.67980 0.29000
N 	N 	0.88160 0.19360 0.15340 0.01000
O 	O 	0.82640 0.81970 0.15370 -0.44800
O 	O 	0.77684 0.90310 0.01640 -0.48000
O 	O 	0.84660 0.20010 0.06090 -0.10800
O 	O 	0.90370 0.25510 0.20960 -0.10000
O 	O 	0.78506 0.18890 0.36760 -0.43400
O 	O 	0.81847 0.26650 0.50180 -0.51700
O 	O 	0.07080 0.32010 0.74500 -0.41200
O 	O 	0.13985 0.29830 0.69560 -0.35900
O 	O 	0.99560 0.15570 0.35960 -0.22100
Ho	Ho	0.68919 0.82768 0.87565 1.67800
C 	C 	0.36700 0.46030 0.17270 -0.14700
C 	C 	0.35550 0.54230 0.13540 0.02400
H 	H 	0.31900 0.55340 0.06770 0.05100
C 	C 	0.39720 0.60850 0.19650 -0.00500
C 	C 	0.45150 0.59300 0.29570 0.17900
C 	C 	0.46450 0.51000 0.33100 -0.18000
H 	H 	0.50270 0.49820 0.39730 0.10600
C 	C 	0.42230 0.44380 0.27070 0.08800
H 	H 	0.43110 0.38720 0.29620 0.01700
C 	C 	0.48000 0.69030 0.42500 0.18600
C 	C 	0.41440 0.68960 0.40380 -0.10500
H 	H 	0.37770 0.66490 0.34310 0.09600
C 	C 	0.40280 0.72530 0.47150 -0.07000
C 	C 	0.45700 0.75910 0.56220 -0.01300
H 	H 	0.44940 0.78090 0.61040 0.04100
C 	C 	0.52250 0.76080 0.58140 -0.02000
C 	C 	0.53420 0.72670 0.51200 -0.12600
H 	H 	0.57860 0.72850 0.52430 0.11700
C 	C 	0.31920 0.38810 0.10820 0.45100
C 	C 	0.33100 0.72680 0.44580 0.41100
C 	C 	0.58170 0.79580 0.67980 0.29000
N 	N 	0.38160 0.69360 0.15340 0.01000
O 	O 	0.32640 0.31970 0.15370 -0.44800
O 	O 	0.27684 0.40310 0.01640 -0.48100
O 	O 	0.34660 0.70010 0.06090 -0.10800
O 	O 	0.40370 0.75510 0.20960 -0.10000
O 	O 	0.28506 0.68890 0.36760 -0.43400
O 	O 	0.31847 0.76650 0.50180 -0.51700
O 	O 	0.57080 0.82010 0.74500 -0.41200
O 	O 	0.63985 0.79830 0.69560 -0.35900
O 	O 	0.49560 0.65570 0.35960 -0.22100
Ho	Ho	0.18919 0.67232 0.37565 1.67800
C 	C 	0.86700 0.03970 0.67270 -0.14700
C 	C 	0.85550 0.95770 0.63540 0.02500
H 	H 	0.81900 0.94660 0.56770 0.05100
C 	C 	0.89720 0.89150 0.69650 -0.00600
C 	C 	0.95150 0.90700 0.79570 0.18000
C 	C 	0.96450 0.99000 0.83100 -0.18300
H 	H 	0.00270 0.00180 0.89730 0.10800
C 	C 	0.92230 0.05620 0.77070 0.09100
H 	H 	0.93110 0.11280 0.79620 0.01600
C 	C 	0.98000 0.80970 0.92500 0.18500
C 	C 	0.91440 0.81040 0.90380 -0.10500
H 	H 	0.87770 0.83510 0.84310 0.09500
C 	C 	0.90280 0.77470 0.97150 -0.07100
C 	C 	0.95700 0.74090 0.06220 -0.01200
H 	H 	0.94940 0.71910 0.11040 0.04000
C 	C 	0.02250 0.73920 0.08140 -0.02000
C 	C 	0.03420 0.77330 0.01200 -0.12500
H 	H 	0.07860 0.77150 0.02430 0.11700
C 	C 	0.81920 0.11190 0.60820 0.45200
C 	C 	0.83100 0.77320 0.94580 0.41100
C 	C 	0.08170 0.70420 0.17980 0.29100
N 	N 	0.88160 0.80640 0.65340 0.01000
O 	O 	0.82640 0.18030 0.65370 -0.44800
O 	O 	0.77684 0.09690 0.51640 -0.48100
O 	O 	0.84660 0.79990 0.56090 -0.10800
O 	O 	0.90370 0.74490 0.70960 -0.10000
O 	O 	0.78506 0.81110 0.86760 -0.43400
O 	O 	0.81847 0.73350 0.00180 -0.51600
O 	O 	0.07080 0.67990 0.24500 -0.41200
O 	O 	0.13985 0.70170 0.19560 -0.35900
O 	O 	0.99560 0.84430 0.85960 -0.22100
Ho	Ho	0.68919 0.17232 0.37565 1.67800
C 	C 	0.36700 0.53970 0.67270 -0.14700
C 	C 	0.35550 0.45770 0.63540 0.02400
H 	H 	0.31900 0.44660 0.56770 0.05100
C 	C 	0.39720 0.39150 0.69650 -0.00500
C 	C 	0.45150 0.40700 0.79570 0.17900
C 	C 	0.46450 0.49000 0.83100 -0.18000
H 	H 	0.50270 0.50180 0.89730 0.10600
C 	C 	0.42230 0.55620 0.77070 0.08800
H 	H 	0.43110 0.61280 0.79620 0.01700
C 	C 	0.48000 0.30970 0.92500 0.18700
C 	C 	0.41440 0.31040 0.90380 -0.10600
H 	H 	0.37770 0.33510 0.84310 0.09600
C 	C 	0.40280 0.27470 0.97150 -0.06900
C 	C 	0.45700 0.24090 0.06220 -0.01400
H 	H 	0.44940 0.21910 0.11040 0.04100
C 	C 	0.52250 0.23920 0.08140 -0.01900
C 	C 	0.53420 0.27330 0.01200 -0.12800
H 	H 	0.57860 0.27150 0.02430 0.11800
C 	C 	0.31920 0.61190 0.60820 0.45100
C 	C 	0.33100 0.27320 0.94580 0.41200
C 	C 	0.58170 0.20420 0.17980 0.29000
N 	N 	0.38160 0.30640 0.65340 0.01000
O 	O 	0.32640 0.68030 0.65370 -0.44800
O 	O 	0.27684 0.59690 0.51640 -0.48100
O 	O 	0.34660 0.29990 0.56090 -0.10800
O 	O 	0.40370 0.24490 0.70960 -0.10000
O 	O 	0.28506 0.31110 0.86760 -0.43400
O 	O 	0.31847 0.23350 0.00180 -0.51700
O 	O 	0.57080 0.17990 0.24500 -0.41200
O 	O 	0.63985 0.20170 0.19560 -0.35900
O 	O 	0.49560 0.34430 0.85960 -0.22100
Ho	Ho	0.81081 0.67232 0.12435 1.67800
C 	C 	0.13300 0.03970 0.82730 -0.14600
C 	C 	0.14450 0.95770 0.86460 0.02300
H 	H 	0.18100 0.94660 0.93230 0.05100
C 	C 	0.10280 0.89150 0.80350 -0.00500
C 	C 	0.04850 0.90700 0.70430 0.17900
C 	C 	0.03550 0.99000 0.66900 -0.18100
H 	H 	0.99730 0.00180 0.60270 0.10700
C 	C 	0.07770 0.05620 0.72930 0.08900
H 	H 	0.06890 0.11280 0.70380 0.01700
C 	C 	0.02000 0.80970 0.57500 0.18600
C 	C 	0.08560 0.81040 0.59620 -0.10500
H 	H 	0.12230 0.83510 0.65690 0.09600
C 	C 	0.09720 0.77470 0.52850 -0.07000
C 	C 	0.04300 0.74090 0.43780 -0.01300
H 	H 	0.05060 0.71910 0.38960 0.04000
C 	C 	0.97750 0.73920 0.41860 -0.02000
C 	C 	0.96580 0.77330 0.48800 -0.12600
H 	H 	0.92140 0.77150 0.47570 0.11700
C 	C 	0.18080 0.11190 0.89180 0.45100
C 	C 	0.16900 0.77320 0.55420 0.41100
C 	C 	0.91830 0.70420 0.32020 0.29000
N 	N 	0.11840 0.80640 0.84660 0.01000
O 	O 	0.17360 0.18030 0.84630 -0.44800
O 	O 	0.22316 0.09690 0.98360 -0.48000
O 	O 	0.15340 0.79990 0.93910 -0.10800
O 	O 	0.09630 0.74490 0.79040 -0.10000
O 	O 	0.21494 0.81110 0.63240 -0.43400
O 	O 	0.18153 0.73350 0.49820 -0.51700
O 	O 	0.92920 0.67990 0.25500 -0.41200
O 	O 	0.86015 0.70170 0.30440 -0.35900
O 	O 	0.00440 0.84430 0.64040 -0.22100
Ho	Ho	0.31081 0.17232 0.12435 1.67800
C 	C 	0.63300 0.53970 0.82730 -0.14700
C 	C 	0.64450 0.45770 0.86460 0.02400
H 	H 	0.68100 0.44660 0.93230 0.05100
C 	C 	0.60280 0.39150 0.80350 -0.00500
C 	C 	0.54850 0.40700 0.70430 0.17900
C 	C 	0.53550 0.49000 0.66900 -0.18000
H 	H 	0.49730 0.50180 0.60270 0.10600
C 	C 	0.57770 0.55620 0.72930 0.08800
H 	H 	0.56890 0.61280 0.70380 0.01700
C 	C 	0.52000 0.30970 0.57500 0.18600
C 	C 	0.58560 0.31040 0.59620 -0.10500
H 	H 	0.62230 0.33510 0.65690 0.09600
C 	C 	0.59720 0.27470 0.52850 -0.07000
C 	C 	0.54300 0.24090 0.43780 -0.01300
H 	H 	0.55060 0.21910 0.38960 0.04100
C 	C 	0.47750 0.23920 0.41860 -0.02000
C 	C 	0.46580 0.27330 0.48800 -0.12600
H 	H 	0.42140 0.27150 0.47570 0.11700
C 	C 	0.68080 0.61190 0.89180 0.45100
C 	C 	0.66900 0.27320 0.55420 0.41100
C 	C 	0.41830 0.20420 0.32020 0.29000
N 	N 	0.61840 0.30640 0.84660 0.01000
O 	O 	0.67360 0.68030 0.84630 -0.44800
O 	O 	0.72316 0.59690 0.98360 -0.48100
O 	O 	0.65340 0.29990 0.93910 -0.10800
O 	O 	0.59630 0.24490 0.79040 -0.10000
O 	O 	0.71494 0.31110 0.63240 -0.43400
O 	O 	0.68153 0.23350 0.49820 -0.51700
O 	O 	0.42920 0.17990 0.25500 -0.41200
O 	O 	0.36015 0.20170 0.30440 -0.35900
O 	O 	0.50440 0.34430 0.64040 -0.22100
