data_crystal

_cell_length_a 23.56000
_cell_length_b 15.66000
_cell_length_c 15.99100
_cell_angle_alpha 90.00000
_cell_angle_beta  123.95700
_cell_angle_gamma 90.00000

_symmetry_space_group_name_	'P 1'
_symmetry_space_group_name_H-M	'P 1'

loop_
_symmetry_equiv_pos_as_xyz
  x,y,z

loop_
_atom_site_label
_atom_site_type_symbol
_atom_site_fract_x
_atom_site_fract_y
_atom_site_fract_z
_atom_site_charge
Tm	Tm	0.81077 0.82809 0.62580 1.52100
C 	C 	0.13480 0.45860 0.32890 -0.12300
C 	C 	0.14590 0.54090 0.36510 0.01200
H 	H 	0.18250 0.55270 0.43260 0.05700
C 	C 	0.10380 0.60640 0.30350 -0.00100
C 	C 	0.04990 0.59090 0.20500 0.17300
C 	C 	0.03740 0.50760 0.16990 -0.17100
H 	H 	0.99920 0.49560 0.10370 0.10400
C 	C 	0.07940 0.44200 0.22970 0.07500
H 	H 	0.07100 0.38540 0.20400 0.02500
C 	C 	0.02000 0.68940 0.07550 0.20100
C 	C 	0.08530 0.68970 0.09560 -0.12100
H 	H 	0.12220 0.66480 0.15600 0.10200
C 	C 	0.09650 0.72650 0.02720 -0.04200
C 	C 	0.04130 0.75960 0.93660 -0.03400
H 	H 	0.04820 0.78180 0.88760 0.05600
C 	C 	0.97670 0.75980 0.91860 -0.00600
C 	C 	0.96550 0.72460 0.98840 -0.13800
H 	H 	0.92110 0.72490 0.97590 0.12400
C 	C 	0.18200 0.38670 0.39220 0.39500
C 	C 	0.16750 0.72970 0.05140 0.36100
C 	C 	0.91740 0.79460 0.82020 0.28000
N 	N 	0.11900 0.69200 0.34690 0.00900
O 	O 	0.17580 0.31840 0.34720 -0.40900
O 	O 	0.22410 0.40140 0.48510 -0.43700
O 	O 	0.15360 0.69870 0.43940 -0.10500
O 	O 	0.09700 0.75350 0.29070 -0.09700
O 	O 	0.21480 0.69240 0.12950 -0.39700
O 	O 	0.17760 0.76970 0.99230 -0.46900
O 	O 	0.92750 0.81880 0.75410 -0.38900
O 	O 	0.85940 0.79700 0.80530 -0.34000
O 	O 	0.00520 0.65380 0.14110 -0.22200
Tm	Tm	0.31077 0.32809 0.62580 1.52200
C 	C 	0.63480 0.95860 0.32890 -0.12200
C 	C 	0.64590 0.04090 0.36510 0.01300
H 	H 	0.68250 0.05270 0.43260 0.05800
C 	C 	0.60380 0.10640 0.30350 -0.00000
C 	C 	0.54990 0.09090 0.20500 0.17600
C 	C 	0.53740 0.00760 0.16990 -0.17400
H 	H 	0.49920 0.99560 0.10370 0.10600
C 	C 	0.57940 0.94200 0.22970 0.07700
H 	H 	0.57100 0.88540 0.20400 0.02400
C 	C 	0.52000 0.18940 0.07550 0.19900
C 	C 	0.58530 0.18970 0.09560 -0.11900
H 	H 	0.62220 0.16480 0.15600 0.10200
C 	C 	0.59650 0.22650 0.02720 -0.04400
C 	C 	0.54130 0.25960 0.93660 -0.03100
H 	H 	0.54820 0.28180 0.88760 0.05500
C 	C 	0.47670 0.25980 0.91860 -0.00800
C 	C 	0.46550 0.22460 0.98840 -0.13600
H 	H 	0.42110 0.22490 0.97590 0.12300
C 	C 	0.68200 0.88670 0.39220 0.39500
C 	C 	0.66750 0.22970 0.05140 0.36100
C 	C 	0.41740 0.29460 0.82020 0.28000
N 	N 	0.61900 0.19200 0.34690 0.00900
O 	O 	0.67580 0.81840 0.34720 -0.40900
O 	O 	0.72410 0.90140 0.48510 -0.43700
O 	O 	0.65360 0.19870 0.43940 -0.10500
O 	O 	0.59700 0.25350 0.29070 -0.09700
O 	O 	0.71480 0.19240 0.12950 -0.39700
O 	O 	0.67760 0.26970 0.99230 -0.46800
O 	O 	0.42750 0.31880 0.75410 -0.38900
O 	O 	0.35940 0.29700 0.80530 -0.34000
O 	O 	0.50520 0.15380 0.14110 -0.22200
Tm	Tm	0.18923 0.82809 0.87420 1.52200
C 	C 	0.86520 0.45860 0.17110 -0.12200
C 	C 	0.85410 0.54090 0.13490 0.01300
H 	H 	0.81750 0.55270 0.06740 0.05800
C 	C 	0.89620 0.60640 0.19650 0.00000
C 	C 	0.95010 0.59090 0.29500 0.17400
C 	C 	0.96260 0.50760 0.33010 -0.17100
H 	H 	0.00080 0.49560 0.39630 0.10500
C 	C 	0.92060 0.44200 0.27030 0.07500
H 	H 	0.92900 0.38540 0.29600 0.02500
C 	C 	0.98000 0.68940 0.42450 0.20000
C 	C 	0.91470 0.68970 0.40440 -0.12000
H 	H 	0.87780 0.66480 0.34400 0.10200
C 	C 	0.90350 0.72650 0.47280 -0.04300
C 	C 	0.95870 0.75960 0.56340 -0.03300
H 	H 	0.95180 0.78180 0.61240 0.05600
C 	C 	0.02330 0.75980 0.58140 -0.00700
C 	C 	0.03450 0.72460 0.51160 -0.13700
H 	H 	0.07890 0.72490 0.52410 0.12300
C 	C 	0.81800 0.38670 0.10780 0.39500
C 	C 	0.83250 0.72970 0.44860 0.36100
C 	C 	0.08260 0.79460 0.67980 0.28000
N 	N 	0.88100 0.69200 0.15310 0.00900
O 	O 	0.82420 0.31840 0.15280 -0.40900
O 	O 	0.77590 0.40140 0.01490 -0.43800
O 	O 	0.84640 0.69870 0.06060 -0.10500
O 	O 	0.90300 0.75350 0.20930 -0.09600
O 	O 	0.78520 0.69240 0.37050 -0.39700
O 	O 	0.82240 0.76970 0.50770 -0.46800
O 	O 	0.07250 0.81880 0.74590 -0.38900
O 	O 	0.14060 0.79700 0.69470 -0.34000
O 	O 	0.99480 0.65380 0.35890 -0.22200
Tm	Tm	0.68923 0.32809 0.87420 1.52200
C 	C 	0.36520 0.95860 0.17110 -0.12100
C 	C 	0.35410 0.04090 0.13490 0.01200
H 	H 	0.31750 0.05270 0.06740 0.05800
C 	C 	0.39620 0.10640 0.19650 0.00000
C 	C 	0.45010 0.09090 0.29500 0.17500
C 	C 	0.46260 0.00760 0.33010 -0.17200
H 	H 	0.50080 0.99560 0.39630 0.10500
C 	C 	0.42060 0.94200 0.27030 0.07500
H 	H 	0.42900 0.88540 0.29600 0.02400
C 	C 	0.48000 0.18940 0.42450 0.20000
C 	C 	0.41470 0.18970 0.40440 -0.12000
H 	H 	0.37780 0.16480 0.34400 0.10200
C 	C 	0.40350 0.22650 0.47280 -0.04200
C 	C 	0.45870 0.25960 0.56340 -0.03300
H 	H 	0.45180 0.28180 0.61240 0.05600
C 	C 	0.52330 0.25980 0.58140 -0.00700
C 	C 	0.53450 0.22460 0.51160 -0.13700
H 	H 	0.57890 0.22490 0.52410 0.12300
C 	C 	0.31800 0.88670 0.10780 0.39500
C 	C 	0.33250 0.22970 0.44860 0.36100
C 	C 	0.58260 0.29460 0.67980 0.28000
N 	N 	0.38100 0.19200 0.15310 0.00900
O 	O 	0.32420 0.81840 0.15280 -0.40900
O 	O 	0.27590 0.90140 0.01490 -0.43700
O 	O 	0.34640 0.19870 0.06060 -0.10600
O 	O 	0.40300 0.25350 0.20930 -0.09700
O 	O 	0.28520 0.19240 0.37050 -0.39700
O 	O 	0.32240 0.26970 0.50770 -0.46800
O 	O 	0.57250 0.31880 0.74590 -0.38900
O 	O 	0.64060 0.29700 0.69470 -0.34000
O 	O 	0.49480 0.15380 0.35890 -0.22200
Tm	Tm	0.18923 0.17191 0.37420 1.52200
C 	C 	0.86520 0.54140 0.67110 -0.12200
C 	C 	0.85410 0.45910 0.63490 0.01300
H 	H 	0.81750 0.44730 0.56740 0.05800
C 	C 	0.89620 0.39360 0.69650 0.00000
C 	C 	0.95010 0.40910 0.79500 0.17400
C 	C 	0.96260 0.49240 0.83010 -0.17100
H 	H 	0.00080 0.50440 0.89630 0.10400
C 	C 	0.92060 0.55800 0.77030 0.07500
H 	H 	0.92900 0.61460 0.79600 0.02500
C 	C 	0.98000 0.31060 0.92450 0.20100
C 	C 	0.91470 0.31030 0.90440 -0.12100
H 	H 	0.87780 0.33520 0.84400 0.10200
C 	C 	0.90350 0.27350 0.97280 -0.04200
C 	C 	0.95870 0.24040 0.06340 -0.03400
H 	H 	0.95180 0.21820 0.11240 0.05600
C 	C 	0.02330 0.24020 0.08140 -0.00600
C 	C 	0.03450 0.27540 0.01160 -0.13800
H 	H 	0.07890 0.27510 0.02410 0.12400
C 	C 	0.81800 0.61330 0.60780 0.39500
C 	C 	0.83250 0.27030 0.94860 0.36100
C 	C 	0.08260 0.20540 0.17980 0.28000
N 	N 	0.88100 0.30800 0.65310 0.00900
O 	O 	0.82420 0.68160 0.65280 -0.40900
O 	O 	0.77590 0.59860 0.51490 -0.43700
O 	O 	0.84640 0.30130 0.56060 -0.10500
O 	O 	0.90300 0.24650 0.70930 -0.09700
O 	O 	0.78520 0.30760 0.87050 -0.39700
O 	O 	0.82240 0.23030 0.00770 -0.46900
O 	O 	0.07250 0.18120 0.24590 -0.38900
O 	O 	0.14060 0.20300 0.19470 -0.34000
O 	O 	0.99480 0.34620 0.85890 -0.22200
Tm	Tm	0.68923 0.67191 0.37420 1.52200
C 	C 	0.36520 0.04140 0.67110 -0.12200
C 	C 	0.35410 0.95910 0.63490 0.01300
H 	H 	0.31750 0.94730 0.56740 0.05800
C 	C 	0.39620 0.89360 0.69650 -0.00000
C 	C 	0.45010 0.90910 0.79500 0.17600
C 	C 	0.46260 0.99240 0.83010 -0.17400
H 	H 	0.50080 0.00440 0.89630 0.10600
C 	C 	0.42060 0.05800 0.77030 0.07700
H 	H 	0.42900 0.11460 0.79600 0.02400
C 	C 	0.48000 0.81060 0.92450 0.19900
C 	C 	0.41470 0.81030 0.90440 -0.11900
H 	H 	0.37780 0.83520 0.84400 0.10200
C 	C 	0.40350 0.77350 0.97280 -0.04400
C 	C 	0.45870 0.74040 0.06340 -0.03100
H 	H 	0.45180 0.71820 0.11240 0.05500
C 	C 	0.52330 0.74020 0.08140 -0.00800
C 	C 	0.53450 0.77540 0.01160 -0.13600
H 	H 	0.57890 0.77510 0.02410 0.12300
C 	C 	0.31800 0.11330 0.60780 0.39500
C 	C 	0.33250 0.77030 0.94860 0.36100
C 	C 	0.58260 0.70540 0.17980 0.28000
N 	N 	0.38100 0.80800 0.65310 0.00900
O 	O 	0.32420 0.18160 0.65280 -0.40900
O 	O 	0.27590 0.09860 0.51490 -0.43700
O 	O 	0.34640 0.80130 0.56060 -0.10500
O 	O 	0.40300 0.74650 0.70930 -0.09700
O 	O 	0.28520 0.80760 0.87050 -0.39700
O 	O 	0.32240 0.73030 0.00770 -0.46800
O 	O 	0.57250 0.68120 0.24590 -0.38900
O 	O 	0.64060 0.70300 0.19470 -0.34000
O 	O 	0.49480 0.84620 0.85890 -0.22200
Tm	Tm	0.81077 0.17191 0.12580 1.52200
C 	C 	0.13480 0.54140 0.82890 -0.12200
C 	C 	0.14590 0.45910 0.86510 0.01300
H 	H 	0.18250 0.44730 0.93260 0.05800
C 	C 	0.10380 0.39360 0.80350 0.00000
C 	C 	0.04990 0.40910 0.70500 0.17400
C 	C 	0.03740 0.49240 0.66990 -0.17100
H 	H 	0.99920 0.50440 0.60370 0.10500
C 	C 	0.07940 0.55800 0.72970 0.07500
H 	H 	0.07100 0.61460 0.70400 0.02500
C 	C 	0.02000 0.31060 0.57550 0.20000
C 	C 	0.08530 0.31030 0.59560 -0.12000
H 	H 	0.12220 0.33520 0.65600 0.10200
C 	C 	0.09650 0.27350 0.52720 -0.04300
C 	C 	0.04130 0.24040 0.43660 -0.03300
H 	H 	0.04820 0.21820 0.38760 0.05600
C 	C 	0.97670 0.24020 0.41860 -0.00700
C 	C 	0.96550 0.27540 0.48840 -0.13700
H 	H 	0.92110 0.27510 0.47590 0.12300
C 	C 	0.18200 0.61330 0.89220 0.39500
C 	C 	0.16750 0.27030 0.55140 0.36100
C 	C 	0.91740 0.20540 0.32020 0.28000
N 	N 	0.11900 0.30800 0.84690 0.00900
O 	O 	0.17580 0.68160 0.84720 -0.40900
O 	O 	0.22410 0.59860 0.98510 -0.43800
O 	O 	0.15360 0.30130 0.93940 -0.10500
O 	O 	0.09700 0.24650 0.79070 -0.09600
O 	O 	0.21480 0.30760 0.62950 -0.39700
O 	O 	0.17760 0.23030 0.49230 -0.46800
O 	O 	0.92750 0.18120 0.25410 -0.38900
O 	O 	0.85940 0.20300 0.30530 -0.34000
O 	O 	0.00520 0.34620 0.64110 -0.22200
Tm	Tm	0.31077 0.67191 0.12580 1.52200
C 	C 	0.63480 0.04140 0.82890 -0.12100
C 	C 	0.64590 0.95910 0.86510 0.01200
H 	H 	0.68250 0.94730 0.93260 0.05800
C 	C 	0.60380 0.89360 0.80350 0.00000
C 	C 	0.54990 0.90910 0.70500 0.17500
C 	C 	0.53740 0.99240 0.66990 -0.17200
H 	H 	0.49920 0.00440 0.60370 0.10500
C 	C 	0.57940 0.05800 0.72970 0.07500
H 	H 	0.57100 0.11460 0.70400 0.02400
C 	C 	0.52000 0.81060 0.57550 0.20000
C 	C 	0.58530 0.81030 0.59560 -0.12000
H 	H 	0.62220 0.83520 0.65600 0.10200
C 	C 	0.59650 0.77350 0.52720 -0.04200
C 	C 	0.54130 0.74040 0.43660 -0.03300
H 	H 	0.54820 0.71820 0.38760 0.05600
C 	C 	0.47670 0.74020 0.41860 -0.00700
C 	C 	0.46550 0.77540 0.48840 -0.13700
H 	H 	0.42110 0.77510 0.47590 0.12300
C 	C 	0.68200 0.11330 0.89220 0.39500
C 	C 	0.66750 0.77030 0.55140 0.36100
C 	C 	0.41740 0.70540 0.32020 0.28000
N 	N 	0.61900 0.80800 0.84690 0.00900
O 	O 	0.67580 0.18160 0.84720 -0.40900
O 	O 	0.72410 0.09860 0.98510 -0.43700
O 	O 	0.65360 0.80130 0.93940 -0.10600
O 	O 	0.59700 0.74650 0.79070 -0.09700
O 	O 	0.71480 0.80760 0.62950 -0.39700
O 	O 	0.67760 0.73030 0.49230 -0.46800
O 	O 	0.42750 0.68120 0.25410 -0.38900
O 	O 	0.35940 0.70300 0.30530 -0.34000
O 	O 	0.50520 0.84620 0.64110 -0.22200
