data_crystal

_cell_length_a 23.48300
_cell_length_b 15.62300
_cell_length_c 15.96400
_cell_angle_alpha 90.00000
_cell_angle_beta  124.00800
_cell_angle_gamma 90.00000

_symmetry_space_group_name_	'P 1'
_symmetry_space_group_name_H-M	'P 1'

loop_
_symmetry_equiv_pos_as_xyz
  x,y,z

loop_
_atom_site_label
_atom_site_type_symbol
_atom_site_fract_x
_atom_site_fract_y
_atom_site_fract_z
_atom_site_charge
Er	Er	0.81079 0.32804 0.62501 1.66700
C 	C 	0.13410 0.95860 0.32830 -0.15900
C 	C 	0.14460 0.04190 0.36400 0.03300
H 	H 	0.18120 0.05360 0.43180 0.05000
C 	C 	0.10330 0.10790 0.30380 -0.00900
C 	C 	0.04880 0.09160 0.20410 0.18700
C 	C 	0.03660 0.00820 0.16980 -0.19300
H 	H 	0.99840 0.99620 0.10330 0.11100
C 	C 	0.07860 0.94190 0.22970 0.10200
H 	H 	0.06970 0.88520 0.20400 0.01300
C 	C 	0.01940 0.18960 0.07460 0.19300
C 	C 	0.08470 0.18940 0.09560 -0.10800
H 	H 	0.12150 0.16460 0.15650 0.09600
C 	C 	0.09660 0.22580 0.02690 -0.07600
C 	C 	0.04260 0.25890 0.93750 -0.01000
H 	H 	0.04990 0.28080 0.88880 0.04200
C 	C 	0.97730 0.26010 0.91860 -0.01900
C 	C 	0.96530 0.22550 0.98720 -0.13100
H 	H 	0.92060 0.22640 0.97420 0.12000
C 	C 	0.18170 0.88730 0.39200 0.46600
C 	C 	0.16820 0.22850 0.05260 0.42500
C 	C 	0.91840 0.29570 0.82080 0.28500
N 	N 	0.11810 0.19300 0.34540 0.01100
O 	O 	0.17460 0.81880 0.34700 -0.45300
O 	O 	0.22350 0.90250 0.48440 -0.48300
O 	O 	0.15360 0.19910 0.43840 -0.10800
O 	O 	0.09590 0.25430 0.29010 -0.10000
O 	O 	0.21480 0.19050 0.13050 -0.44000
O 	O 	0.17990 0.26810 0.99560 -0.51700
O 	O 	0.92780 0.32030 0.75370 -0.41300
O 	O 	0.85930 0.29760 0.80470 -0.35200
O 	O 	0.00430 0.15430 0.13980 -0.22600
Er	Er	0.31079 0.82804 0.62501 1.66600
C 	C 	0.63410 0.45860 0.32830 -0.15900
C 	C 	0.64460 0.54190 0.36400 0.03200
H 	H 	0.68120 0.55360 0.43180 0.04900
C 	C 	0.60330 0.60790 0.30380 -0.00900
C 	C 	0.54880 0.59160 0.20410 0.18500
C 	C 	0.53660 0.50820 0.16980 -0.19000
H 	H 	0.49840 0.49620 0.10330 0.10900
C 	C 	0.57860 0.44190 0.22970 0.10000
H 	H 	0.56970 0.38520 0.20400 0.01300
C 	C 	0.51940 0.68960 0.07460 0.19600
C 	C 	0.58470 0.68940 0.09560 -0.10900
H 	H 	0.62150 0.66460 0.15650 0.09700
C 	C 	0.59660 0.72580 0.02690 -0.07400
C 	C 	0.54260 0.75890 0.93750 -0.01200
H 	H 	0.54990 0.78080 0.88880 0.04300
C 	C 	0.47730 0.76010 0.91860 -0.01700
C 	C 	0.46530 0.72550 0.98720 -0.13400
H 	H 	0.42060 0.72640 0.97420 0.12000
C 	C 	0.68170 0.38730 0.39200 0.46600
C 	C 	0.66820 0.72850 0.05260 0.42500
C 	C 	0.41840 0.79570 0.82080 0.28500
N 	N 	0.61810 0.69300 0.34540 0.01100
O 	O 	0.67460 0.31880 0.34700 -0.45300
O 	O 	0.72350 0.40250 0.48440 -0.48300
O 	O 	0.65360 0.69910 0.43840 -0.10800
O 	O 	0.59590 0.75430 0.29010 -0.10000
O 	O 	0.71480 0.69050 0.13050 -0.44000
O 	O 	0.67990 0.76810 0.99560 -0.51800
O 	O 	0.42780 0.82030 0.75370 -0.41300
O 	O 	0.35930 0.79760 0.80470 -0.35200
O 	O 	0.50430 0.65430 0.13980 -0.22600
Er	Er	0.18921 0.32804 0.87499 1.66600
C 	C 	0.86590 0.95860 0.17170 -0.15800
C 	C 	0.85540 0.04190 0.13600 0.03100
H 	H 	0.81880 0.05360 0.06820 0.04900
C 	C 	0.89670 0.10790 0.19620 -0.00900
C 	C 	0.95120 0.09160 0.29590 0.18500
C 	C 	0.96340 0.00820 0.33020 -0.19100
H 	H 	0.00160 0.99620 0.39670 0.11000
C 	C 	0.92140 0.94190 0.27030 0.10100
H 	H 	0.93030 0.88520 0.29600 0.01300
C 	C 	0.98060 0.18960 0.42540 0.19400
C 	C 	0.91530 0.18940 0.40440 -0.10800
H 	H 	0.87850 0.16460 0.34350 0.09600
C 	C 	0.90340 0.22580 0.47310 -0.07500
C 	C 	0.95740 0.25890 0.56250 -0.01100
H 	H 	0.95010 0.28080 0.61120 0.04200
C 	C 	0.02270 0.26010 0.58140 -0.01800
C 	C 	0.03470 0.22550 0.51280 -0.13200
H 	H 	0.07940 0.22640 0.52580 0.12000
C 	C 	0.81830 0.88730 0.10800 0.46600
C 	C 	0.83180 0.22850 0.44740 0.42500
C 	C 	0.08160 0.29570 0.67920 0.28500
N 	N 	0.88190 0.19300 0.15460 0.01100
O 	O 	0.82540 0.81880 0.15300 -0.45300
O 	O 	0.77650 0.90250 0.01560 -0.48300
O 	O 	0.84640 0.19910 0.06160 -0.10900
O 	O 	0.90410 0.25430 0.20990 -0.10000
O 	O 	0.78520 0.19050 0.36950 -0.44000
O 	O 	0.82010 0.26810 0.50440 -0.51700
O 	O 	0.07220 0.32030 0.74630 -0.41300
O 	O 	0.14070 0.29760 0.69530 -0.35200
O 	O 	0.99570 0.15430 0.36020 -0.22600
Er	Er	0.68921 0.82804 0.87499 1.66500
C 	C 	0.36590 0.45860 0.17170 -0.15900
C 	C 	0.35540 0.54190 0.13600 0.03200
H 	H 	0.31880 0.55360 0.06820 0.04900
C 	C 	0.39670 0.60790 0.19620 -0.00900
C 	C 	0.45120 0.59160 0.29590 0.18500
C 	C 	0.46340 0.50820 0.33020 -0.19000
H 	H 	0.50160 0.49620 0.39670 0.11000
C 	C 	0.42140 0.44190 0.27030 0.10000
H 	H 	0.43030 0.38520 0.29600 0.01400
C 	C 	0.48060 0.68960 0.42540 0.19400
C 	C 	0.41530 0.68940 0.40440 -0.10800
H 	H 	0.37850 0.66460 0.34350 0.09600
C 	C 	0.40340 0.72580 0.47310 -0.07500
C 	C 	0.45740 0.75890 0.56250 -0.01100
H 	H 	0.45010 0.78080 0.61120 0.04200
C 	C 	0.52270 0.76010 0.58140 -0.01800
C 	C 	0.53470 0.72550 0.51280 -0.13200
H 	H 	0.57940 0.72640 0.52580 0.12000
C 	C 	0.31830 0.38730 0.10800 0.46600
C 	C 	0.33180 0.72850 0.44740 0.42500
C 	C 	0.58160 0.79570 0.67920 0.28500
N 	N 	0.38190 0.69300 0.15460 0.01100
O 	O 	0.32540 0.31880 0.15300 -0.45300
O 	O 	0.27650 0.40250 0.01560 -0.48400
O 	O 	0.34640 0.69910 0.06160 -0.10800
O 	O 	0.40410 0.75430 0.20990 -0.10000
O 	O 	0.28520 0.69050 0.36950 -0.44000
O 	O 	0.32010 0.76810 0.50440 -0.51700
O 	O 	0.57220 0.82030 0.74630 -0.41300
O 	O 	0.64070 0.79760 0.69530 -0.35200
O 	O 	0.49570 0.65430 0.36020 -0.22500
Er	Er	0.18921 0.67196 0.37499 1.66600
C 	C 	0.86590 0.04140 0.67170 -0.16000
C 	C 	0.85540 0.95810 0.63600 0.03200
H 	H 	0.81880 0.94640 0.56820 0.04900
C 	C 	0.89670 0.89210 0.69620 -0.01000
C 	C 	0.95120 0.90840 0.79590 0.18600
C 	C 	0.96340 0.99180 0.83020 -0.19300
H 	H 	0.00160 0.00380 0.89670 0.11100
C 	C 	0.92140 0.05810 0.77030 0.10200
H 	H 	0.93030 0.11480 0.79600 0.01300
C 	C 	0.98060 0.81040 0.92540 0.19300
C 	C 	0.91530 0.81060 0.90440 -0.10800
H 	H 	0.87850 0.83540 0.84350 0.09600
C 	C 	0.90340 0.77420 0.97310 -0.07600
C 	C 	0.95740 0.74110 0.06250 -0.01000
H 	H 	0.95010 0.71920 0.11120 0.04200
C 	C 	0.02270 0.73990 0.08140 -0.01900
C 	C 	0.03470 0.77450 0.01280 -0.13100
H 	H 	0.07940 0.77360 0.02580 0.12000
C 	C 	0.81830 0.11270 0.60800 0.46600
C 	C 	0.83180 0.77150 0.94740 0.42500
C 	C 	0.08160 0.70430 0.17920 0.28500
N 	N 	0.88190 0.80700 0.65460 0.01100
O 	O 	0.82540 0.18120 0.65300 -0.45300
O 	O 	0.77650 0.09750 0.51560 -0.48300
O 	O 	0.84640 0.80090 0.56160 -0.10800
O 	O 	0.90410 0.74570 0.70990 -0.10000
O 	O 	0.78520 0.80950 0.86950 -0.44000
O 	O 	0.82010 0.73190 0.00440 -0.51700
O 	O 	0.07220 0.67970 0.24630 -0.41300
O 	O 	0.14070 0.70240 0.19530 -0.35200
O 	O 	0.99570 0.84570 0.86020 -0.22600
Er	Er	0.68921 0.17196 0.37499 1.66600
C 	C 	0.36590 0.54140 0.67170 -0.15900
C 	C 	0.35540 0.45810 0.63600 0.03200
H 	H 	0.31880 0.44640 0.56820 0.04900
C 	C 	0.39670 0.39210 0.69620 -0.00900
C 	C 	0.45120 0.40840 0.79590 0.18500
C 	C 	0.46340 0.49180 0.83020 -0.19000
H 	H 	0.50160 0.50380 0.89670 0.10900
C 	C 	0.42140 0.55810 0.77030 0.10000
H 	H 	0.43030 0.61480 0.79600 0.01300
C 	C 	0.48060 0.31040 0.92540 0.19600
C 	C 	0.41530 0.31060 0.90440 -0.10900
H 	H 	0.37850 0.33540 0.84350 0.09700
C 	C 	0.40340 0.27420 0.97310 -0.07400
C 	C 	0.45740 0.24110 0.06250 -0.01200
H 	H 	0.45010 0.21920 0.11120 0.04300
C 	C 	0.52270 0.23990 0.08140 -0.01700
C 	C 	0.53470 0.27450 0.01280 -0.13400
H 	H 	0.57940 0.27360 0.02580 0.12000
C 	C 	0.31830 0.61270 0.60800 0.46600
C 	C 	0.33180 0.27150 0.94740 0.42500
C 	C 	0.58160 0.20430 0.17920 0.28500
N 	N 	0.38190 0.30700 0.65460 0.01100
O 	O 	0.32540 0.68120 0.65300 -0.45300
O 	O 	0.27650 0.59750 0.51560 -0.48300
O 	O 	0.34640 0.30090 0.56160 -0.10800
O 	O 	0.40410 0.24570 0.70990 -0.10000
O 	O 	0.28520 0.30950 0.86950 -0.44000
O 	O 	0.32010 0.23190 0.00440 -0.51800
O 	O 	0.57220 0.17970 0.24630 -0.41300
O 	O 	0.64070 0.20240 0.19530 -0.35200
O 	O 	0.49570 0.34570 0.86020 -0.22600
Er	Er	0.81079 0.67196 0.12501 1.66600
C 	C 	0.13410 0.04140 0.82830 -0.15800
C 	C 	0.14460 0.95810 0.86400 0.03100
H 	H 	0.18120 0.94640 0.93180 0.04900
C 	C 	0.10330 0.89210 0.80380 -0.00900
C 	C 	0.04880 0.90840 0.70410 0.18500
C 	C 	0.03660 0.99180 0.66980 -0.19100
H 	H 	0.99840 0.00380 0.60330 0.11000
C 	C 	0.07860 0.05810 0.72970 0.10100
H 	H 	0.06970 0.11480 0.70400 0.01300
C 	C 	0.01940 0.81040 0.57460 0.19400
C 	C 	0.08470 0.81060 0.59560 -0.10800
H 	H 	0.12150 0.83540 0.65650 0.09600
C 	C 	0.09660 0.77420 0.52690 -0.07500
C 	C 	0.04260 0.74110 0.43750 -0.01100
H 	H 	0.04990 0.71920 0.38880 0.04200
C 	C 	0.97730 0.73990 0.41860 -0.01800
C 	C 	0.96530 0.77450 0.48720 -0.13200
H 	H 	0.92060 0.77360 0.47420 0.12000
C 	C 	0.18170 0.11270 0.89200 0.46600
C 	C 	0.16820 0.77150 0.55260 0.42500
C 	C 	0.91840 0.70430 0.32080 0.28500
N 	N 	0.11810 0.80700 0.84540 0.01100
O 	O 	0.17460 0.18120 0.84700 -0.45300
O 	O 	0.22350 0.09750 0.98440 -0.48300
O 	O 	0.15360 0.80090 0.93840 -0.10900
O 	O 	0.09590 0.74570 0.79010 -0.10000
O 	O 	0.21480 0.80950 0.63050 -0.44000
O 	O 	0.17990 0.73190 0.49560 -0.51700
O 	O 	0.92780 0.67970 0.25370 -0.41300
O 	O 	0.85930 0.70240 0.30470 -0.35200
O 	O 	0.00430 0.84570 0.63980 -0.22600
Er	Er	0.31079 0.17196 0.12501 1.66500
C 	C 	0.63410 0.54140 0.82830 -0.15900
C 	C 	0.64460 0.45810 0.86400 0.03200
H 	H 	0.68120 0.44640 0.93180 0.04900
C 	C 	0.60330 0.39210 0.80380 -0.00900
C 	C 	0.54880 0.40840 0.70410 0.18500
C 	C 	0.53660 0.49180 0.66980 -0.19000
H 	H 	0.49840 0.50380 0.60330 0.11000
C 	C 	0.57860 0.55810 0.72970 0.10000
H 	H 	0.56970 0.61480 0.70400 0.01400
C 	C 	0.51940 0.31040 0.57460 0.19400
C 	C 	0.58470 0.31060 0.59560 -0.10800
H 	H 	0.62150 0.33540 0.65650 0.09600
C 	C 	0.59660 0.27420 0.52690 -0.07500
C 	C 	0.54260 0.24110 0.43750 -0.01100
H 	H 	0.54990 0.21920 0.38880 0.04200
C 	C 	0.47730 0.23990 0.41860 -0.01800
C 	C 	0.46530 0.27450 0.48720 -0.13200
H 	H 	0.42060 0.27360 0.47420 0.12000
C 	C 	0.68170 0.61270 0.89200 0.46600
C 	C 	0.66820 0.27150 0.55260 0.42500
C 	C 	0.41840 0.20430 0.32080 0.28500
N 	N 	0.61810 0.30700 0.84540 0.01100
O 	O 	0.67460 0.68120 0.84700 -0.45300
O 	O 	0.72350 0.59750 0.98440 -0.48400
O 	O 	0.65360 0.30090 0.93840 -0.10800
O 	O 	0.59590 0.24570 0.79010 -0.10000
O 	O 	0.71480 0.30950 0.63050 -0.44000
O 	O 	0.67990 0.23190 0.49560 -0.51700
O 	O 	0.42780 0.17970 0.25370 -0.41300
O 	O 	0.35930 0.20240 0.30470 -0.35200
O 	O 	0.50430 0.34570 0.63980 -0.22500
