data_crystal

_cell_length_a 7.58240
_cell_length_b 17.77130
_cell_length_c 6.41770
_cell_angle_alpha 90.00000
_cell_angle_beta  91.15850
_cell_angle_gamma 90.00000

_symmetry_space_group_name_	'P 1'
_symmetry_space_group_name_H-M	'P 1'

loop_
_symmetry_equiv_pos_as_xyz
  x,y,z

loop_
_atom_site_label
_atom_site_type_symbol
_atom_site_fract_x
_atom_site_fract_y
_atom_site_fract_z
_atom_site_charge
Cl	Cl	0.48380 0.61608 0.26370 -0.54200
Ca	Ca	0.50026 0.44624 0.24070 1.49300
O 	O 	0.69710 0.50460 0.03190 -0.46600
C 	C 	0.73825 0.27771 0.30626 0.21300
N 	N 	0.72829 0.24018 0.48468 -0.09700
O 	O 	0.70416 0.34339 0.27229 -0.36900
C 	C 	0.80883 0.22629 0.12200 0.22700
N 	N 	0.83593 0.26510 0.95213 -0.08400
O 	O 	0.82766 0.15904 0.15490 -0.37300
Cl	Cl	0.01620 0.11608 0.73630 -0.54000
Ca	Ca	0.99974 0.94624 0.75930 1.49200
O 	O 	0.80290 0.00460 0.96810 -0.46500
C 	C 	0.76175 0.77771 0.69374 0.21400
N 	N 	0.77171 0.74018 0.51532 -0.09700
O 	O 	0.79584 0.84339 0.72771 -0.37300
C 	C 	0.69117 0.72629 0.87800 0.22100
N 	N 	0.66407 0.76510 0.04787 -0.08000
O 	O 	0.67234 0.65904 0.84510 -0.37400
Cl	Cl	0.51620 0.38392 0.73630 -0.54200
Ca	Ca	0.49974 0.55376 0.75930 1.49300
O 	O 	0.30290 0.49540 0.96810 -0.46600
C 	C 	0.26175 0.72229 0.69374 0.21300
N 	N 	0.27171 0.75982 0.51532 -0.09700
O 	O 	0.29584 0.65661 0.72771 -0.36900
C 	C 	0.19117 0.77371 0.87800 0.22700
N 	N 	0.16407 0.73490 0.04787 -0.08400
O 	O 	0.17234 0.84096 0.84510 -0.37300
Cl	Cl	0.98380 0.88392 0.26370 -0.54000
Ca	Ca	0.00026 0.05376 0.24070 1.49200
O 	O 	0.19710 0.99540 0.03190 -0.46500
C 	C 	0.23825 0.22229 0.30626 0.21400
N 	N 	0.22829 0.25982 0.48468 -0.09700
O 	O 	0.20416 0.15661 0.27229 -0.37300
C 	C 	0.30883 0.27371 0.12200 0.22100
N 	N 	0.33593 0.23490 0.95213 -0.08000
O 	O 	0.32766 0.34096 0.15490 -0.37400
