data_crystal

_cell_length_a 6.29790
_cell_length_b 7.20480
_cell_length_c 10.62710
_cell_angle_alpha 94.46700
_cell_angle_beta  100.32000
_cell_angle_gamma 97.74100

_symmetry_space_group_name_	'P 1'
_symmetry_space_group_name_H-M	'P 1'

loop_
_symmetry_equiv_pos_as_xyz
  x,y,z

loop_
_atom_site_label
_atom_site_type_symbol
_atom_site_fract_x
_atom_site_fract_y
_atom_site_fract_z
_atom_site_charge
Rb	Rb	0.33584 0.35043 0.22507 1.23800
O 	O 	0.22080 0.65730 0.06430 -0.22500
O 	O 	0.16060 0.83930 0.85010 -0.13600
O 	O 	0.26270 0.11320 0.97563 -0.09200
O 	O 	0.31400 0.93510 0.18317 -0.45900
C 	C 	0.25200 0.82720 0.07430 0.33700
C 	C 	0.22250 0.93980 0.95640 0.16500
H 	H 	0.33600 0.87460 0.24000 0.34100
H 	H 	0.45790 0.47330 0.27050 -0.17600
H 	H 	0.27700 0.39070 0.13840 -0.19100
H 	H 	0.29220 0.26990 0.23810 -0.80900
H 	H 	0.45870 0.29260 0.16390 -0.01900
O 	O 	0.26310 0.59840 0.57387 -0.18000
O 	O 	0.00490 0.42710 0.65114 -0.36700
C 	C 	0.08340 0.51070 0.56320 0.30400
H 	H 	0.09260 0.43570 0.72340 0.28400
O 	O 	0.73690 0.40160 0.42613 -0.18300
O 	O 	0.99510 0.57290 0.34886 -0.39700
C 	C 	0.91660 0.48930 0.43680 0.29800
H 	H 	0.90740 0.56430 0.27660 0.26700
