data_crystal

_cell_length_a 14.53700
_cell_length_b 14.53700
_cell_length_c 20.19500
_cell_angle_alpha 90.00000
_cell_angle_beta  90.00000
_cell_angle_gamma 90.00000

_symmetry_space_group_name_	'P 1'
_symmetry_space_group_name_H-M	'P 1'

loop_
_symmetry_equiv_pos_as_xyz
  x,y,z

loop_
_atom_site_label
_atom_site_type_symbol
_atom_site_fract_x
_atom_site_fract_y
_atom_site_fract_z
_atom_site_charge
N 	N 	0.30020 0.65030 0.18740 -0.21300
C 	C 	0.25970 0.56970 0.18180 -0.00200
H 	H 	0.20860 0.55670 0.20960 0.00700
C 	C 	0.28870 0.50120 0.13620 0.00800
H 	H 	0.25670 0.44420 0.13490 0.01600
N 	N 	0.35840 0.51400 0.09560 -0.16100
N 	N 	0.47210 0.60960 0.05780 -0.23000
C 	C 	0.51710 0.68890 0.05870 0.04400
H 	H 	0.56640 0.69800 0.02850 -0.01100
C 	C 	0.49420 0.75970 0.10280 -0.07400
H 	H 	0.52890 0.81500 0.10320 0.04700
C 	C 	0.42210 0.74900 0.14520 -0.05500
H 	H 	0.40490 0.79730 0.17430 0.02000
C 	C 	0.37390 0.66600 0.14510 0.01700
C 	C 	0.40050 0.59640 0.10040 0.08700
N 	N 	0.19980 0.84970 0.18740 -0.20400
C 	C 	0.24030 0.93030 0.18180 -0.02600
H 	H 	0.29140 0.94330 0.20960 0.02200
C 	C 	0.21130 0.99880 0.13620 0.06500
H 	H 	0.24330 0.05580 0.13490 -0.02000
N 	N 	0.14160 0.98600 0.09560 -0.16600
N 	N 	0.02790 0.89040 0.05780 -0.25200
C 	C 	0.98290 0.81110 0.05870 0.13700
H 	H 	0.93360 0.80200 0.02850 -0.03500
C 	C 	0.00580 0.74030 0.10280 -0.19400
H 	H 	0.97110 0.68500 0.10320 0.09900
C 	C 	0.07790 0.75100 0.14520 0.00900
H 	H 	0.09510 0.70270 0.17430 -0.00600
C 	C 	0.12610 0.83400 0.14510 -0.01300
C 	C 	0.09950 0.90360 0.10040 0.10200
N 	N 	0.84970 0.30020 0.68740 -0.20800
C 	C 	0.93030 0.25970 0.68180 -0.02000
H 	H 	0.94330 0.20860 0.70960 0.02000
C 	C 	0.99880 0.28870 0.63620 0.06500
H 	H 	0.05580 0.25670 0.63490 -0.01000
N 	N 	0.98600 0.35840 0.59560 -0.15400
N 	N 	0.89040 0.47210 0.55780 -0.21800
C 	C 	0.81110 0.51710 0.55870 0.04900
H 	H 	0.80200 0.56640 0.52850 0.00300
C 	C 	0.74030 0.49420 0.60280 -0.07100
H 	H 	0.68500 0.52890 0.60320 0.05000
C 	C 	0.75100 0.42210 0.64520 -0.05100
H 	H 	0.70270 0.40490 0.67430 0.02000
C 	C 	0.83400 0.37390 0.64510 0.01700
C 	C 	0.90360 0.40050 0.60040 0.09800
N 	N 	0.65030 0.19980 0.68740 -0.20800
C 	C 	0.56970 0.24030 0.68180 -0.00100
H 	H 	0.55670 0.29140 0.70960 0.01000
C 	C 	0.50120 0.21130 0.63620 0.01300
H 	H 	0.44420 0.24330 0.63490 0.02300
N 	N 	0.51400 0.14160 0.59560 -0.15600
N 	N 	0.60960 0.02790 0.55780 -0.25000
C 	C 	0.68890 0.98290 0.55870 0.14000
H 	H 	0.69800 0.93360 0.52850 -0.02400
C 	C 	0.75970 0.00580 0.60280 -0.18500
H 	H 	0.81500 0.97110 0.60320 0.10300
C 	C 	0.74900 0.07790 0.64520 0.00800
H 	H 	0.79730 0.09510 0.67430 -0.00200
C 	C 	0.66600 0.12610 0.64510 -0.00800
C 	C 	0.59640 0.09950 0.60040 0.10200
N 	N 	0.69980 0.15030 0.31260 -0.21600
C 	C 	0.74030 0.06970 0.31820 0.01700
H 	H 	0.79140 0.05670 0.29040 0.00200
C 	C 	0.71130 0.00120 0.36380 -0.03000
H 	H 	0.74330 0.94420 0.36510 0.05500
N 	N 	0.64160 0.01400 0.40440 -0.14900
N 	N 	0.52790 0.10960 0.44220 -0.22400
C 	C 	0.48290 0.18890 0.44130 0.04700
H 	H 	0.43360 0.19800 0.47150 -0.00100
C 	C 	0.50580 0.25970 0.39720 -0.07100
H 	H 	0.47110 0.31500 0.39680 0.04800
C 	C 	0.57790 0.24900 0.35480 -0.05500
H 	H 	0.59510 0.29730 0.32570 0.02100
C 	C 	0.62610 0.16600 0.35490 0.02000
C 	C 	0.59950 0.09640 0.39960 0.08800
N 	N 	0.80020 0.34970 0.31260 -0.21800
C 	C 	0.75970 0.43030 0.31820 0.00300
H 	H 	0.70860 0.44330 0.29040 0.01000
C 	C 	0.78870 0.49880 0.36380 0.01200
H 	H 	0.75670 0.55580 0.36510 0.02800
N 	N 	0.85840 0.48600 0.40440 -0.14600
N 	N 	0.97210 0.39040 0.44220 -0.18600
C 	C 	0.01710 0.31110 0.44130 -0.06700
H 	H 	0.06640 0.30200 0.47150 0.03200
C 	C 	0.99420 0.24030 0.39720 0.07500
H 	H 	0.02890 0.18500 0.39680 -0.01900
C 	C 	0.92210 0.25100 0.35480 -0.13100
H 	H 	0.90490 0.20270 0.32570 0.04900
C 	C 	0.87390 0.33400 0.35490 0.05300
C 	C 	0.90050 0.40360 0.39960 0.08000
N 	N 	0.15030 0.80020 0.81260 -0.22000
C 	C 	0.06970 0.75970 0.81820 0.02200
H 	H 	0.05670 0.70860 0.79040 0.00000
C 	C 	0.00120 0.78870 0.86380 -0.02600
H 	H 	0.94420 0.75670 0.86510 0.06100
N 	N 	0.01400 0.85840 0.90440 -0.13300
N 	N 	0.10960 0.97210 0.94220 -0.17400
C 	C 	0.18890 0.01710 0.94130 -0.06000
H 	H 	0.19800 0.06640 0.97150 0.04500
C 	C 	0.25970 0.99420 0.89720 0.07300
H 	H 	0.31500 0.02890 0.89680 -0.00900
C 	C 	0.24900 0.92210 0.85480 -0.12600
H 	H 	0.29730 0.90490 0.82570 0.05100
C 	C 	0.16600 0.87390 0.85490 0.05500
C 	C 	0.09640 0.90050 0.89960 0.08400
N 	N 	0.34970 0.69980 0.81260 -0.21200
C 	C 	0.43030 0.74030 0.81820 0.00400
H 	H 	0.44330 0.79140 0.79040 0.01200
C 	C 	0.49880 0.71130 0.86380 0.01600
H 	H 	0.55580 0.74330 0.86510 0.03500
N 	N 	0.48600 0.64160 0.90440 -0.14000
N 	N 	0.39040 0.52790 0.94220 -0.20800
C 	C 	0.31110 0.48290 0.94130 0.05200
H 	H 	0.30200 0.43360 0.97150 0.01400
C 	C 	0.24030 0.50580 0.89720 -0.06700
H 	H 	0.18500 0.47110 0.89680 0.05200
C 	C 	0.25100 0.57790 0.85480 -0.05100
H 	H 	0.20270 0.59510 0.82570 0.02000
C 	C 	0.33400 0.62610 0.85490 0.02100
C 	C 	0.40360 0.59950 0.89960 0.10000
N 	N 	0.69980 0.34970 0.81260 -0.21200
C 	C 	0.74030 0.43030 0.81820 0.00400
H 	H 	0.79140 0.44330 0.79040 0.01200
C 	C 	0.71130 0.49880 0.86380 0.01600
H 	H 	0.74330 0.55580 0.86510 0.03500
N 	N 	0.64160 0.48600 0.90440 -0.14000
N 	N 	0.52790 0.39040 0.94220 -0.20800
C 	C 	0.48290 0.31110 0.94130 0.05200
H 	H 	0.43360 0.30200 0.97150 0.01400
C 	C 	0.50580 0.24030 0.89720 -0.06700
H 	H 	0.47110 0.18500 0.89680 0.05200
C 	C 	0.57790 0.25100 0.85480 -0.05100
H 	H 	0.59510 0.20270 0.82570 0.02000
C 	C 	0.62610 0.33400 0.85490 0.02100
C 	C 	0.59950 0.40360 0.89960 0.10000
N 	N 	0.80020 0.15030 0.81260 -0.22000
C 	C 	0.75970 0.06970 0.81820 0.02200
H 	H 	0.70860 0.05670 0.79040 0.00000
C 	C 	0.78870 0.00120 0.86380 -0.02600
H 	H 	0.75670 0.94420 0.86510 0.06100
N 	N 	0.85840 0.01400 0.90440 -0.13300
N 	N 	0.97210 0.10960 0.94220 -0.17400
C 	C 	0.01710 0.18890 0.94130 -0.06000
H 	H 	0.06640 0.19800 0.97150 0.04500
C 	C 	0.99420 0.25970 0.89720 0.07300
H 	H 	0.02890 0.31500 0.89680 -0.00900
C 	C 	0.92210 0.24900 0.85480 -0.12600
H 	H 	0.90490 0.29730 0.82570 0.05100
C 	C 	0.87390 0.16600 0.85490 0.05500
C 	C 	0.90050 0.09640 0.89960 0.08400
N 	N 	0.15030 0.69980 0.31260 -0.21600
C 	C 	0.06970 0.74030 0.31820 0.01700
H 	H 	0.05670 0.79140 0.29040 0.00200
C 	C 	0.00120 0.71130 0.36380 -0.03000
H 	H 	0.94420 0.74330 0.36510 0.05500
N 	N 	0.01400 0.64160 0.40440 -0.14900
N 	N 	0.10960 0.52790 0.44220 -0.22400
C 	C 	0.18890 0.48290 0.44130 0.04700
H 	H 	0.19800 0.43360 0.47150 -0.00100
C 	C 	0.25970 0.50580 0.39720 -0.07100
H 	H 	0.31500 0.47110 0.39680 0.04800
C 	C 	0.24900 0.57790 0.35480 -0.05500
H 	H 	0.29730 0.59510 0.32570 0.02100
C 	C 	0.16600 0.62610 0.35490 0.02000
C 	C 	0.09640 0.59950 0.39960 0.08800
N 	N 	0.34970 0.80020 0.31260 -0.21800
C 	C 	0.43030 0.75970 0.31820 0.00300
H 	H 	0.44330 0.70860 0.29040 0.01000
C 	C 	0.49880 0.78870 0.36380 0.01200
H 	H 	0.55580 0.75670 0.36510 0.02800
N 	N 	0.48600 0.85840 0.40440 -0.14600
N 	N 	0.39040 0.97210 0.44220 -0.18600
C 	C 	0.31110 0.01710 0.44130 -0.06700
H 	H 	0.30200 0.06640 0.47150 0.03200
C 	C 	0.24030 0.99420 0.39720 0.07500
H 	H 	0.18500 0.02890 0.39680 -0.01900
C 	C 	0.25100 0.92210 0.35480 -0.13100
H 	H 	0.20270 0.90490 0.32570 0.04900
C 	C 	0.33400 0.87390 0.35490 0.05300
C 	C 	0.40360 0.90050 0.39960 0.08000
N 	N 	0.30020 0.84970 0.68740 -0.20800
C 	C 	0.25970 0.93030 0.68180 -0.02000
H 	H 	0.20860 0.94330 0.70960 0.02000
C 	C 	0.28870 0.99880 0.63620 0.06500
H 	H 	0.25670 0.05580 0.63490 -0.01000
N 	N 	0.35840 0.98600 0.59560 -0.15400
N 	N 	0.47210 0.89040 0.55780 -0.21800
C 	C 	0.51710 0.81110 0.55870 0.04900
H 	H 	0.56640 0.80200 0.52850 0.00300
C 	C 	0.49420 0.74030 0.60280 -0.07100
H 	H 	0.52890 0.68500 0.60320 0.05000
C 	C 	0.42210 0.75100 0.64520 -0.05100
H 	H 	0.40490 0.70270 0.67430 0.02000
C 	C 	0.37390 0.83400 0.64510 0.01700
C 	C 	0.40050 0.90360 0.60040 0.09800
N 	N 	0.19980 0.65030 0.68740 -0.20800
C 	C 	0.24030 0.56970 0.68180 -0.00100
H 	H 	0.29140 0.55670 0.70960 0.01000
C 	C 	0.21130 0.50120 0.63620 0.01300
H 	H 	0.24330 0.44420 0.63490 0.02300
N 	N 	0.14160 0.51400 0.59560 -0.15600
N 	N 	0.02790 0.60960 0.55780 -0.25000
C 	C 	0.98290 0.68890 0.55870 0.14000
H 	H 	0.93360 0.69800 0.52850 -0.02400
C 	C 	0.00580 0.75970 0.60280 -0.18500
H 	H 	0.97110 0.81500 0.60320 0.10300
C 	C 	0.07790 0.74900 0.64520 0.00800
H 	H 	0.09510 0.79730 0.67430 -0.00200
C 	C 	0.12610 0.66600 0.64510 -0.00800
C 	C 	0.09950 0.59640 0.60040 0.10200
N 	N 	0.84970 0.19980 0.18740 -0.20400
C 	C 	0.93030 0.24030 0.18180 -0.02600
H 	H 	0.94330 0.29140 0.20960 0.02200
C 	C 	0.99880 0.21130 0.13620 0.06500
H 	H 	0.05580 0.24330 0.13490 -0.02000
N 	N 	0.98600 0.14160 0.09560 -0.16600
N 	N 	0.89040 0.02790 0.05780 -0.25200
C 	C 	0.81110 0.98290 0.05870 0.13700
H 	H 	0.80200 0.93360 0.02850 -0.03500
C 	C 	0.74030 0.00580 0.10280 -0.19400
H 	H 	0.68500 0.97110 0.10320 0.09900
C 	C 	0.75100 0.07790 0.14520 0.00900
H 	H 	0.70270 0.09510 0.17430 -0.00600
C 	C 	0.83400 0.12610 0.14510 -0.01300
C 	C 	0.90360 0.09950 0.10040 0.10200
N 	N 	0.65030 0.30020 0.18740 -0.21300
C 	C 	0.56970 0.25970 0.18180 -0.00200
H 	H 	0.55670 0.20860 0.20960 0.00700
C 	C 	0.50120 0.28870 0.13620 0.00800
H 	H 	0.44420 0.25670 0.13490 0.01600
N 	N 	0.51400 0.35840 0.09560 -0.16100
N 	N 	0.60960 0.47210 0.05780 -0.23000
C 	C 	0.68890 0.51710 0.05870 0.04400
H 	H 	0.69800 0.56640 0.02850 -0.01100
C 	C 	0.75970 0.49420 0.10280 -0.07400
H 	H 	0.81500 0.52890 0.10320 0.04700
C 	C 	0.74900 0.42210 0.14520 -0.05500
H 	H 	0.79730 0.40490 0.17430 0.02000
C 	C 	0.66600 0.37390 0.14510 0.01700
C 	C 	0.59640 0.40050 0.10040 0.08700
Cu	Cu	0.50000 0.50000 -0.00000 0.85000
Cu	Cu	-0.00000 0.00000 -0.00000 0.82800
Cu	Cu	0.00000 0.50000 0.50000 0.86600
Cu	Cu	0.50000 0.00000 0.50000 0.86600
Cu	Cu	0.25000 0.75000 0.25000 0.85200
Cu	Cu	0.75000 0.25000 0.75000 0.85200
Cu	Cu	0.75000 0.25000 0.25000 0.85200
Cu	Cu	0.25000 0.75000 0.75000 0.85200
