data_crystal

_cell_length_a 17.28410
_cell_length_b 17.28410
_cell_length_c 20.97020
_cell_angle_alpha 90.00000
_cell_angle_beta  90.00000
_cell_angle_gamma 90.00000

_symmetry_space_group_name_	'P 1'
_symmetry_space_group_name_H-M	'P 1'

loop_
_symmetry_equiv_pos_as_xyz
  x,y,z

loop_
_atom_site_label
_atom_site_type_symbol
_atom_site_fract_x
_atom_site_fract_y
_atom_site_fract_z
_atom_site_charge
Cd	Cd	0.19721 0.75560 0.00234 1.15200
N 	N 	0.79120 0.63180 0.94370 -0.16600
N 	N 	0.65550 0.30980 0.77420 -0.15300
N 	N 	0.13720 0.17010 0.08540 -0.14000
N 	N 	0.83000 0.38160 0.21880 -0.15800
O 	O 	0.80170 0.69820 0.84950 -0.22500
O 	O 	0.79730 0.55870 0.03080 -0.25000
O 	O 	0.66030 0.23770 0.86480 -0.21100
O 	O 	0.64430 0.38200 0.68550 -0.23500
O 	O 	0.07330 0.15880 0.99410 -0.20700
O 	O 	0.20100 0.17720 0.17950 -0.23000
O 	O 	0.75870 0.36640 0.12790 -0.20900
O 	O 	0.90230 0.40420 0.30490 -0.23600
C 	C 	0.90560 0.70730 0.98270 0.15100
C 	C 	0.94190 0.76100 0.02690 -0.19800
H 	H 	0.91010 0.78640 0.05590 0.08200
C 	C 	0.01690 0.77620 0.02880 0.07900
H 	H 	0.03590 0.81480 0.05550 -0.03600
N 	N 	0.06540 0.73500 0.99150 -0.27100
C 	C 	0.03940 0.68490 0.95710 0.13800
H 	H 	0.07550 0.65510 0.93530 -0.03900
C 	C 	0.95700 0.66580 0.94600 -0.18600
H 	H 	0.94120 0.62880 0.91650 0.11300
C 	C 	0.81790 0.69930 0.97870 -0.09700
H 	H 	0.79720 0.69710 0.02160 0.05300
H 	H 	0.79720 0.74530 0.95840 0.08300
C 	C 	0.78530 0.63870 0.87790 0.21300
C 	C 	0.75660 0.56970 0.84150 -0.06000
C 	C 	0.74330 0.57220 0.77520 -0.01700
H 	H 	0.75300 0.61800 0.75340 0.06100
C 	C 	0.71720 0.51130 0.74240 -0.03400
H 	H 	0.71030 0.51420 0.69850 0.06100
C 	C 	0.70050 0.44330 0.77560 -0.04600
C 	C 	0.66470 0.37580 0.74130 0.20200
C 	C 	0.67170 0.29980 0.83550 0.18800
C 	C 	0.70130 0.36920 0.87240 -0.02300
C 	C 	0.71950 0.36380 0.93350 -0.07100
H 	H 	0.71500 0.31570 0.95300 0.08800
C 	C 	0.74450 0.42490 0.96970 0.04600
H 	H 	0.75420 0.41900 0.01310 0.03500
C 	C 	0.75500 0.49540 0.94030 -0.08500
C 	C 	0.78260 0.56640 0.97340 0.25200
C 	C 	0.74010 0.50250 0.87510 0.04800
C 	C 	0.71370 0.43410 0.84040 0.01000
C 	C 	0.62690 0.24440 0.73860 -0.17200
H 	H 	0.65060 0.19740 0.75470 0.09900
H 	H 	0.64160 0.25000 0.69410 0.08700
C 	C 	0.53850 0.23740 0.74330 0.21200
C 	C 	0.50210 0.19810 0.70110 -0.26100
H 	H 	0.53180 0.17390 0.66990 0.12300
C 	C 	0.42400 0.18840 0.69770 0.15100
H 	H 	0.40290 0.16090 0.66380 -0.03100
N 	N 	0.37750 0.21770 0.74190 -0.27000
C 	C 	0.40570 0.26450 0.78860 0.08400
H 	H 	0.37580 0.28800 0.82000 -0.02200
C 	C 	0.48790 0.27260 0.78280 -0.19700
H 	H 	0.50990 0.30800 0.81080 0.11800
C 	C 	0.20060 0.04730 0.04390 0.18800
C 	C 	0.22410 0.01750 0.99110 -0.21300
H 	H 	0.24120 0.04950 0.95830 0.10000
C 	C 	0.22390 0.93780 0.98260 0.12400
H 	H 	0.24600 0.91740 0.94580 -0.04600
N 	N 	0.19200 0.88740 0.02700 -0.29400
C 	C 	0.17030 0.92140 0.07850 0.15000
H 	H 	0.15150 0.89050 0.11140 -0.04200
C 	C 	0.17250 0.00060 0.08890 -0.24400
H 	H 	0.15450 0.02110 0.12710 0.13700
C 	C 	0.20330 0.13600 0.05340 -0.15800
H 	H 	0.24940 0.14860 0.07770 0.09600
H 	H 	0.20860 0.16020 0.01180 0.07900
C 	C 	0.07320 0.18340 0.04860 0.17300
C 	C 	0.00660 0.22780 0.07510 -0.02300
C 	C 	0.94080 0.23740 0.03800 -0.08800
H 	H 	0.93600 0.21660 0.99730 0.10100
C 	C 	0.88040 0.28230 0.06780 0.01000
H 	H 	0.83620 0.29340 0.04420 0.05300
C 	C 	0.88480 0.30870 0.12740 -0.06400
C 	C 	0.82090 0.35610 0.15800 0.19700
C 	C 	0.89600 0.37200 0.25280 0.20800
C 	C 	0.95960 0.32630 0.22540 -0.07100
C 	C 	0.02570 0.31130 0.26310 -0.00900
H 	H 	0.02860 0.33020 0.30460 0.05000
C 	C 	0.08650 0.26810 0.23780 -0.04800
H 	H 	0.13050 0.25800 0.26200 0.08200
C 	C 	0.08010 0.24060 0.17620 -0.03100
C 	C 	0.14430 0.19220 0.14860 0.20800
C 	C 	0.01530 0.25420 0.13950 0.00500
C 	C 	0.95210 0.29800 0.16430 0.04300
C 	C 	0.76470 0.41840 0.24960 -0.10400
H 	H 	0.76460 0.40470 0.29440 0.07000
H 	H 	0.71720 0.39890 0.23080 0.08400
C 	C 	0.76610 0.50850 0.24320 0.08900
C 	C 	0.78740 0.54720 0.19530 0.05400
H 	H 	0.80430 0.52310 0.15820 0.05000
C 	C 	0.78470 0.62240 0.20010 -0.12600
H 	H 	0.79860 0.64870 0.16320 0.01800
N 	N 	0.76690 0.66460 0.24510 -0.22900
C 	C 	0.73240 0.62840 0.29670 0.00700
C 	C 	0.73210 0.54790 0.29310 -0.11700
H 	H 	0.70810 0.51990 0.32530 0.07800
C 	C 	0.49800 0.28440 0.70950 0.02500
C 	C 	0.42090 0.28480 0.70170 -0.02200
C 	C 	0.43530 0.17400 0.77150 0.01500
C 	C 	0.51870 0.18390 0.76940 -0.02100
C 	C 	0.74650 0.55050 0.19550 -0.12000
C 	C 	0.74780 0.62620 0.19070 0.15300
C 	C 	0.79730 0.63470 0.28950 0.03100
C 	C 	0.79910 0.55370 0.29490 0.00500
Cd	Cd	0.80279 0.24440 0.50234 1.15900
N 	N 	0.20880 0.36820 0.44370 -0.15600
N 	N 	0.34450 0.69020 0.27420 -0.15500
N 	N 	0.86280 0.82990 0.58540 -0.14200
N 	N 	0.17000 0.61840 0.71880 -0.15600
O 	O 	0.19830 0.30180 0.34950 -0.22300
O 	O 	0.20270 0.44130 0.53080 -0.22600
O 	O 	0.33970 0.76230 0.36480 -0.21600
O 	O 	0.35570 0.61800 0.18550 -0.23700
O 	O 	0.92670 0.84120 0.49410 -0.23400
O 	O 	0.79900 0.82280 0.67950 -0.23100
O 	O 	0.24130 0.63360 0.62790 -0.20700
O 	O 	0.09770 0.59580 0.80490 -0.23400
C 	C 	0.09440 0.29270 0.48270 0.14300
C 	C 	0.05810 0.23900 0.52690 -0.18800
H 	H 	0.08990 0.21360 0.55590 0.08200
C 	C 	0.98310 0.22380 0.52880 0.10100
H 	H 	0.96410 0.18520 0.55550 -0.04000
N 	N 	0.93460 0.26500 0.49150 -0.28700
C 	C 	0.96060 0.31510 0.45710 0.13400
H 	H 	0.92450 0.34490 0.43530 -0.04000
C 	C 	0.04300 0.33420 0.44600 -0.18800
H 	H 	0.05880 0.37120 0.41650 0.11200
C 	C 	0.18210 0.30070 0.47870 -0.13600
H 	H 	0.20280 0.30290 0.52160 0.07700
H 	H 	0.20280 0.25470 0.45840 0.09000
C 	C 	0.21470 0.36130 0.37790 0.20600
C 	C 	0.24340 0.43030 0.34150 -0.04700
C 	C 	0.25670 0.42780 0.27520 -0.03000
H 	H 	0.24700 0.38200 0.25340 0.06500
C 	C 	0.28280 0.48870 0.24240 -0.02200
H 	H 	0.28970 0.48580 0.19850 0.05700
C 	C 	0.29950 0.55670 0.27560 -0.05800
C 	C 	0.33530 0.62420 0.24130 0.20600
C 	C 	0.32830 0.70020 0.33550 0.19700
C 	C 	0.29870 0.63080 0.37240 -0.05400
C 	C 	0.28050 0.63620 0.43350 -0.02000
H 	H 	0.28500 0.68430 0.45300 0.06500
C 	C 	0.25550 0.57510 0.46970 -0.03300
H 	H 	0.24580 0.58100 0.51310 0.07400
C 	C 	0.24500 0.50460 0.44030 -0.04700
C 	C 	0.21740 0.43360 0.47340 0.21300
C 	C 	0.25990 0.49750 0.37510 0.02400
C 	C 	0.28630 0.56590 0.34040 0.03200
C 	C 	0.37310 0.75560 0.23860 -0.17100
H 	H 	0.34940 0.80260 0.25470 0.09800
H 	H 	0.35840 0.75000 0.19410 0.08600
C 	C 	0.46150 0.76260 0.24330 0.21300
C 	C 	0.49790 0.80190 0.20110 -0.26100
H 	H 	0.46820 0.82610 0.16990 0.12200
C 	C 	0.57600 0.81160 0.19770 0.15100
H 	H 	0.59710 0.83910 0.16380 -0.03300
N 	N 	0.62250 0.78230 0.24190 -0.27000
C 	C 	0.59430 0.73550 0.28860 0.08400
H 	H 	0.62420 0.71200 0.32000 -0.02300
C 	C 	0.51210 0.72740 0.28280 -0.19600
H 	H 	0.49010 0.69200 0.31080 0.11600
C 	C 	0.79940 0.95270 0.54390 0.23800
C 	C 	0.77590 0.98250 0.49110 -0.26300
H 	H 	0.75880 0.95050 0.45830 0.11200
C 	C 	0.77610 0.06220 0.48260 0.12200
H 	H 	0.75400 0.08260 0.44580 -0.05000
N 	N 	0.80800 0.11260 0.52700 -0.28800
C 	C 	0.82970 0.07860 0.57850 0.17200
H 	H 	0.84850 0.10950 0.61140 -0.04700
C 	C 	0.82750 0.99940 0.58890 -0.27500
H 	H 	0.84550 0.97890 0.62710 0.14800
C 	C 	0.79670 0.86400 0.55340 -0.18100
H 	H 	0.75060 0.85140 0.57770 0.10400
H 	H 	0.79140 0.83980 0.51180 0.09300
C 	C 	0.92680 0.81660 0.54860 0.20600
C 	C 	0.99340 0.77220 0.57510 -0.04900
C 	C 	0.05920 0.76260 0.53800 -0.03100
H 	H 	0.06400 0.78340 0.49730 0.06900
C 	C 	0.11960 0.71770 0.56780 -0.02100
H 	H 	0.16380 0.70660 0.54420 0.06800
C 	C 	0.11520 0.69130 0.62740 -0.04600
C 	C 	0.17910 0.64390 0.65800 0.19200
C 	C 	0.10400 0.62800 0.75280 0.20600
C 	C 	0.04040 0.67370 0.72540 -0.06400
C 	C 	0.97430 0.68870 0.76310 -0.01500
H 	H 	0.97140 0.66980 0.80460 0.05200
C 	C 	0.91350 0.73190 0.73780 -0.04100
H 	H 	0.86950 0.74200 0.76200 0.08000
C 	C 	0.91990 0.75940 0.67620 -0.03900
C 	C 	0.85570 0.80780 0.64860 0.21100
C 	C 	0.98470 0.74580 0.63950 0.02000
C 	C 	0.04790 0.70200 0.66430 0.03000
C 	C 	0.23530 0.58160 0.74960 -0.10500
H 	H 	0.23540 0.59530 0.79440 0.07000
H 	H 	0.28280 0.60110 0.73080 0.08400
C 	C 	0.23390 0.49150 0.74320 0.09000
C 	C 	0.21260 0.45280 0.69530 0.05100
H 	H 	0.19570 0.47690 0.65820 0.05100
C 	C 	0.21530 0.37760 0.70010 -0.12900
H 	H 	0.20140 0.35130 0.66320 0.01900
N 	N 	0.23310 0.33540 0.74510 -0.22900
C 	C 	0.26760 0.37160 0.79670 0.00800
C 	C 	0.26790 0.45210 0.79310 -0.11900
H 	H 	0.29190 0.48010 0.82530 0.07900
C 	C 	0.50200 0.71560 0.20950 0.02400
C 	C 	0.57910 0.71520 0.20170 -0.02300
C 	C 	0.56470 0.82600 0.27150 0.01400
C 	C 	0.48130 0.81610 0.26940 -0.02200
C 	C 	0.25350 0.44950 0.69550 -0.11700
C 	C 	0.25220 0.37380 0.69070 0.15600
C 	C 	0.20270 0.36530 0.78950 0.03200
C 	C 	0.20090 0.44630 0.79490 0.00600
Cd	Cd	0.24440 0.19721 0.75234 1.15900
N 	N 	0.36820 0.79120 0.69370 -0.15600
N 	N 	0.69020 0.65550 0.52420 -0.15500
N 	N 	0.82990 0.13720 0.83540 -0.14700
N 	N 	0.61840 0.83000 0.96880 -0.13900
O 	O 	0.30180 0.80170 0.59950 -0.22300
O 	O 	0.44130 0.79730 0.78080 -0.22500
O 	O 	0.76230 0.66030 0.61480 -0.21600
O 	O 	0.61800 0.64430 0.43550 -0.23600
O 	O 	0.84120 0.07330 0.74410 -0.23600
O 	O 	0.82280 0.20100 0.92950 -0.23300
O 	O 	0.63360 0.75870 0.87790 -0.20400
O 	O 	0.59580 0.90230 0.05490 -0.22400
C 	C 	0.29270 0.90560 0.73270 0.14300
C 	C 	0.23900 0.94190 0.77690 -0.18800
H 	H 	0.21360 0.91010 0.80590 0.08300
C 	C 	0.22380 0.01690 0.77880 0.10100
H 	H 	0.18520 0.03590 0.80550 -0.03900
N 	N 	0.26500 0.06540 0.74150 -0.28600
C 	C 	0.31510 0.03940 0.70710 0.13400
H 	H 	0.34490 0.07550 0.68530 -0.04000
C 	C 	0.33420 0.95700 0.69600 -0.18700
H 	H 	0.37120 0.94120 0.66650 0.11200
C 	C 	0.30070 0.81790 0.72870 -0.13600
H 	H 	0.30290 0.79720 0.77160 0.07700
H 	H 	0.25470 0.79720 0.70840 0.09000
C 	C 	0.36130 0.78530 0.62790 0.20600
C 	C 	0.43030 0.75660 0.59150 -0.04700
C 	C 	0.42780 0.74330 0.52520 -0.02900
H 	H 	0.38200 0.75300 0.50340 0.06500
C 	C 	0.48870 0.71720 0.49240 -0.02200
H 	H 	0.48580 0.71030 0.44850 0.05700
C 	C 	0.55670 0.70050 0.52560 -0.05800
C 	C 	0.62420 0.66470 0.49130 0.20600
C 	C 	0.70020 0.67170 0.58550 0.19700
C 	C 	0.63080 0.70130 0.62240 -0.05400
C 	C 	0.63620 0.71950 0.68350 -0.02000
H 	H 	0.68430 0.71500 0.70300 0.06500
C 	C 	0.57510 0.74450 0.71970 -0.03300
H 	H 	0.58100 0.75420 0.76310 0.07400
C 	C 	0.50460 0.75500 0.69030 -0.04700
C 	C 	0.43360 0.78260 0.72340 0.21300
C 	C 	0.49750 0.74010 0.62510 0.02400
C 	C 	0.56590 0.71370 0.59040 0.03100
C 	C 	0.75560 0.62690 0.48860 -0.17100
H 	H 	0.80260 0.65060 0.50470 0.09800
H 	H 	0.75000 0.64160 0.44410 0.08600
C 	C 	0.76260 0.53850 0.49330 0.21200
C 	C 	0.80190 0.50210 0.45110 -0.26100
H 	H 	0.82610 0.53180 0.41990 0.12300
C 	C 	0.81160 0.42400 0.44770 0.15100
H 	H 	0.83910 0.40290 0.41380 -0.03100
N 	N 	0.78230 0.37750 0.49190 -0.26900
C 	C 	0.73550 0.40570 0.53860 0.08400
H 	H 	0.71200 0.37580 0.57000 -0.02300
C 	C 	0.72740 0.48790 0.53280 -0.19600
H 	H 	0.69200 0.50990 0.56080 0.11600
C 	C 	0.95270 0.20060 0.79390 0.23900
C 	C 	0.98250 0.22410 0.74110 -0.26300
H 	H 	0.95050 0.24120 0.70830 0.11200
C 	C 	0.06220 0.22390 0.73260 0.12200
H 	H 	0.08260 0.24600 0.69580 -0.05000
N 	N 	0.11260 0.19200 0.77700 -0.28800
C 	C 	0.07860 0.17030 0.82850 0.17400
H 	H 	0.10950 0.15150 0.86140 -0.04600
C 	C 	0.99940 0.17250 0.83890 -0.27600
H 	H 	0.97890 0.15450 0.87710 0.14800
C 	C 	0.86400 0.20330 0.80340 -0.18000
H 	H 	0.85140 0.24940 0.82770 0.10400
H 	H 	0.83980 0.20860 0.76180 0.09300
C 	C 	0.81660 0.07320 0.79860 0.21500
C 	C 	0.77220 0.00660 0.82510 -0.07000
C 	C 	0.76260 0.94080 0.78800 -0.01000
H 	H 	0.78340 0.93600 0.74730 0.06200
C 	C 	0.71770 0.88040 0.81780 -0.04400
H 	H 	0.70660 0.83620 0.79420 0.07600
C 	C 	0.69130 0.88480 0.87740 -0.01700
C 	C 	0.64390 0.82090 0.90800 0.18200
C 	C 	0.62800 0.89600 0.00280 0.14300
C 	C 	0.67370 0.95960 0.97540 0.03300
C 	C 	0.68870 0.02570 0.01310 -0.14800
H 	H 	0.66980 0.02860 0.05460 0.09600
C 	C 	0.73190 0.08650 0.98780 0.09300
H 	H 	0.74200 0.13050 0.01200 0.02100
C 	C 	0.75940 0.08010 0.92620 -0.09900
C 	C 	0.80780 0.14430 0.89860 0.23200
C 	C 	0.74580 0.01530 0.88950 0.06500
C 	C 	0.70200 0.95210 0.91430 -0.02100
C 	C 	0.58160 0.76470 0.99960 -0.07700
H 	H 	0.59530 0.76460 0.04440 0.05100
H 	H 	0.60110 0.71720 0.98080 0.08100
C 	C 	0.49150 0.76610 0.99320 0.11300
C 	C 	0.45280 0.78740 0.94530 0.05500
H 	H 	0.47690 0.80430 0.90820 0.05200
C 	C 	0.37760 0.78470 0.95010 -0.13200
H 	H 	0.35130 0.79860 0.91320 0.02000
N 	N 	0.33540 0.76690 0.99510 -0.21200
C 	C 	0.37160 0.73240 0.04670 0.01000
C 	C 	0.45210 0.73210 0.04310 -0.14500
H 	H 	0.48010 0.70810 0.07530 0.08500
C 	C 	0.71560 0.49800 0.45950 0.02400
C 	C 	0.71520 0.42090 0.45170 -0.02200
C 	C 	0.82600 0.43530 0.52150 0.01400
C 	C 	0.81610 0.51870 0.51940 -0.02200
C 	C 	0.44950 0.74650 0.94550 -0.12300
C 	C 	0.37380 0.74780 0.94070 0.16300
C 	C 	0.36530 0.79730 0.03950 0.00900
C 	C 	0.44630 0.79910 0.04490 0.00400
Cd	Cd	0.75560 0.80279 0.25234 1.15800
N 	N 	0.63180 0.20880 0.19370 -0.15100
N 	N 	0.30980 0.34450 0.02420 -0.18800
N 	N 	0.17010 0.86280 0.33540 -0.14200
N 	N 	0.38160 0.17000 0.46880 -0.15600
O 	O 	0.69820 0.19830 0.09950 -0.21900
O 	O 	0.55870 0.20270 0.28080 -0.22400
O 	O 	0.23770 0.33970 0.11480 -0.22100
O 	O 	0.38200 0.35570 0.93550 -0.25000
O 	O 	0.15880 0.92670 0.24410 -0.23500
O 	O 	0.17720 0.79900 0.42950 -0.23100
O 	O 	0.36640 0.24130 0.37790 -0.20800
O 	O 	0.40420 0.09770 0.55490 -0.23500
C 	C 	0.70730 0.09440 0.23270 0.14100
C 	C 	0.76100 0.05810 0.27690 -0.18500
H 	H 	0.78640 0.08990 0.30590 0.08100
C 	C 	0.77620 0.98310 0.27880 0.09800
H 	H 	0.81480 0.96410 0.30550 -0.03900
N 	N 	0.73500 0.93460 0.24150 -0.28600
C 	C 	0.68490 0.96060 0.20710 0.13000
H 	H 	0.65510 0.92450 0.18530 -0.04000
C 	C 	0.66580 0.04300 0.19600 -0.18500
H 	H 	0.62880 0.05880 0.16650 0.11000
C 	C 	0.69930 0.18210 0.22870 -0.13600
H 	H 	0.69710 0.20280 0.27160 0.07700
H 	H 	0.74530 0.20280 0.20840 0.09000
C 	C 	0.63870 0.21470 0.12790 0.18900
C 	C 	0.56970 0.24340 0.09150 -0.00000
C 	C 	0.57220 0.25670 0.02520 -0.13200
H 	H 	0.61800 0.24700 0.00340 0.09200
C 	C 	0.51130 0.28280 0.99240 0.10800
H 	H 	0.51420 0.28970 0.94850 0.01600
C 	C 	0.44330 0.29950 0.02560 -0.15500
C 	C 	0.37580 0.33530 0.99130 0.26900
C 	C 	0.29980 0.32830 0.08550 0.21400
C 	C 	0.36920 0.29870 0.12240 -0.09300
C 	C 	0.36380 0.28050 0.18350 0.01300
H 	H 	0.31570 0.28500 0.20300 0.05400
C 	C 	0.42490 0.25550 0.21970 -0.06100
H 	H 	0.41900 0.24580 0.26310 0.08400
C 	C 	0.49540 0.24500 0.19030 -0.02400
C 	C 	0.56640 0.21740 0.22340 0.20400
C 	C 	0.50250 0.25990 0.12510 -0.01700
C 	C 	0.43410 0.28630 0.09040 0.08600
C 	C 	0.24440 0.37310 0.98860 -0.12200
H 	H 	0.19740 0.34940 0.00470 0.07100
H 	H 	0.25000 0.35840 0.94410 0.07400
C 	C 	0.23740 0.46150 0.99330 0.25000
C 	C 	0.19810 0.49790 0.95110 -0.25700
H 	H 	0.17390 0.46820 0.91990 0.12400
C 	C 	0.18840 0.57600 0.94770 0.15800
H 	H 	0.16090 0.59710 0.91380 -0.03200
N 	N 	0.21770 0.62250 0.99190 -0.25600
C 	C 	0.26450 0.59430 0.03860 0.07200
H 	H 	0.28800 0.62420 0.07000 -0.02200
C 	C 	0.27260 0.51210 0.03280 -0.21800
H 	H 	0.30800 0.49010 0.06080 0.11900
C 	C 	0.04730 0.79940 0.29390 0.23800
C 	C 	0.01750 0.77590 0.24110 -0.26400
H 	H 	0.04950 0.75880 0.20830 0.11100
C 	C 	0.93780 0.77610 0.23260 0.12200
H 	H 	0.91740 0.75400 0.19580 -0.05000
N 	N 	0.88740 0.80800 0.27700 -0.28900
C 	C 	0.92140 0.82970 0.32850 0.17200
H 	H 	0.89050 0.84850 0.36140 -0.04800
C 	C 	0.00060 0.82750 0.33890 -0.27600
H 	H 	0.02110 0.84550 0.37710 0.14800
C 	C 	0.13600 0.79670 0.30340 -0.18100
H 	H 	0.14860 0.75060 0.32770 0.10400
H 	H 	0.16020 0.79140 0.26180 0.09300
C 	C 	0.18340 0.92680 0.29860 0.20600
C 	C 	0.22780 0.99340 0.32510 -0.05000
C 	C 	0.23740 0.05920 0.28800 -0.03000
H 	H 	0.21660 0.06400 0.24730 0.06900
C 	C 	0.28230 0.11960 0.31780 -0.02100
H 	H 	0.29340 0.16380 0.29420 0.06800
C 	C 	0.30870 0.11520 0.37740 -0.04600
C 	C 	0.35610 0.17910 0.40800 0.19200
C 	C 	0.37200 0.10400 0.50280 0.20600
C 	C 	0.32630 0.04040 0.47540 -0.06500
C 	C 	0.31130 0.97430 0.51310 -0.01500
H 	H 	0.33020 0.97140 0.55460 0.05200
C 	C 	0.26810 0.91350 0.48780 -0.04200
H 	H 	0.25800 0.86950 0.51200 0.08000
C 	C 	0.24060 0.91990 0.42620 -0.03900
C 	C 	0.19220 0.85570 0.39860 0.21100
C 	C 	0.25420 0.98470 0.38950 0.02000
C 	C 	0.29800 0.04790 0.41430 0.03100
C 	C 	0.41840 0.23530 0.49960 -0.10400
H 	H 	0.40470 0.23540 0.54440 0.07000
H 	H 	0.39890 0.28280 0.48080 0.08400
C 	C 	0.50850 0.23390 0.49320 0.09000
C 	C 	0.54720 0.21260 0.44530 0.05200
H 	H 	0.52310 0.19570 0.40820 0.05100
C 	C 	0.62240 0.21530 0.45010 -0.12800
H 	H 	0.64870 0.20140 0.41320 0.01900
N 	N 	0.66460 0.23310 0.49510 -0.22900
C 	C 	0.62840 0.26760 0.54670 0.00700
C 	C 	0.54790 0.26790 0.54310 -0.11700
H 	H 	0.51990 0.29190 0.57530 0.07800
C 	C 	0.28440 0.50200 0.95950 0.01900
C 	C 	0.28480 0.57910 0.95170 -0.01100
C 	C 	0.17400 0.56470 0.02150 0.00400
C 	C 	0.18390 0.48130 0.01940 -0.05400
C 	C 	0.55050 0.25350 0.44550 -0.11800
C 	C 	0.62620 0.25220 0.44070 0.15500
C 	C 	0.63470 0.20270 0.53950 0.03100
C 	C 	0.55370 0.20090 0.54490 0.00500
