data_crystal

_cell_length_a 7.68350
_cell_length_b 8.68050
_cell_length_c 12.35400
_cell_angle_alpha 90.00000
_cell_angle_beta  90.00000
_cell_angle_gamma 90.00000

_symmetry_space_group_name_	'P 1'
_symmetry_space_group_name_H-M	'P 1'

loop_
_symmetry_equiv_pos_as_xyz
  x,y,z

loop_
_atom_site_label
_atom_site_type_symbol
_atom_site_fract_x
_atom_site_fract_y
_atom_site_fract_z
_atom_site_charge
O 	O 	0.41560 0.14920 0.64750 -0.46100
O 	O 	0.26380 0.86540 0.55750 -0.40400
C 	C 	0.75460 0.29580 0.82380 0.15100
C 	C 	0.67680 0.22780 0.73070 -0.41200
C 	C 	0.49410 0.21080 0.72620 0.45000
C 	C 	0.21100 0.80800 0.64450 0.52100
C 	C 	0.61410 0.73160 0.81910 -0.81900
H 	H 	0.69150 0.64940 0.79380 0.25300
H 	H 	0.53750 0.69140 0.87590 0.26400
H 	H 	0.68390 0.81650 0.84830 0.28300
C 	C 	0.98320 0.22150 0.65290 -0.72300
H 	H 	0.04170 0.18020 0.58870 0.23600
H 	H 	0.02900 0.17060 0.71780 0.20100
H 	H 	0.00440 0.33260 0.65780 0.21800
N 	N 	0.82200 0.35110 0.89740 -0.23100
O 	O 	0.58440 0.85080 0.64750 -0.39100
O 	O 	0.73620 0.13460 0.55750 -0.47400
C 	C 	0.24540 0.70420 0.82380 0.18600
C 	C 	0.32320 0.77220 0.73070 -0.41000
C 	C 	0.50590 0.78920 0.72620 0.49900
C 	C 	0.78900 0.19200 0.64450 0.44300
C 	C 	0.38590 0.26840 0.81910 -0.75200
H 	H 	0.30850 0.35060 0.79380 0.23000
H 	H 	0.46250 0.30860 0.87590 0.22900
H 	H 	0.31610 0.18350 0.84830 0.20900
C 	C 	0.01680 0.77850 0.65290 -0.89700
H 	H 	0.95830 0.81980 0.58870 0.33100
H 	H 	0.97100 0.82940 0.71780 0.30800
H 	H 	0.99560 0.66740 0.65780 0.27400
N 	N 	0.17800 0.64890 0.89740 -0.22500
O 	O 	0.58440 0.14920 0.35250 -0.46000
O 	O 	0.73620 0.86540 0.44250 -0.39300
C 	C 	0.24540 0.29580 0.17620 0.14200
C 	C 	0.32320 0.22780 0.26930 -0.42300
C 	C 	0.50590 0.21080 0.27380 0.43800
C 	C 	0.78900 0.80800 0.35550 0.47800
C 	C 	0.38590 0.73160 0.18090 -0.76200
H 	H 	0.30850 0.64940 0.20620 0.23000
H 	H 	0.46250 0.69140 0.12410 0.22600
H 	H 	0.31610 0.81650 0.15170 0.24900
C 	C 	0.01680 0.22150 0.34710 -0.83600
H 	H 	0.95830 0.18020 0.41130 0.27500
H 	H 	0.97100 0.17060 0.28220 0.23500
H 	H 	0.99560 0.33260 0.34220 0.25700
N 	N 	0.17800 0.35110 0.10260 -0.26100
O 	O 	0.41560 0.85080 0.35250 -0.38200
O 	O 	0.26380 0.13460 0.44250 -0.48200
C 	C 	0.75460 0.70420 0.17620 0.17000
C 	C 	0.67680 0.77220 0.26930 -0.38700
C 	C 	0.49410 0.78920 0.27380 0.47100
C 	C 	0.21100 0.19200 0.35550 0.47200
C 	C 	0.61410 0.26840 0.18090 -0.71200
H 	H 	0.69150 0.35060 0.20620 0.21200
H 	H 	0.53750 0.30860 0.12410 0.19700
H 	H 	0.68390 0.18350 0.15170 0.18100
C 	C 	0.98320 0.77850 0.34710 -0.76500
H 	H 	0.04170 0.81980 0.41130 0.28600
H 	H 	0.02900 0.82940 0.28220 0.25900
H 	H 	0.00440 0.66740 0.34220 0.22800
N 	N 	0.82200 0.64890 0.10260 -0.24700
Ag	Ag	-0.00000 0.50000 -0.00000 0.49600
Yb	Yb	0.50000 0.00000 0.50000 1.52100
