data_crystal

_cell_length_a 12.20300
_cell_length_b 21.71100
_cell_length_c 22.70900
_cell_angle_alpha 90.00000
_cell_angle_beta  91.74000
_cell_angle_gamma 90.00000

_symmetry_space_group_name_	'P 1'
_symmetry_space_group_name_H-M	'P 1'

loop_
_symmetry_equiv_pos_as_xyz
  x,y,z

loop_
_atom_site_label
_atom_site_type_symbol
_atom_site_fract_x
_atom_site_fract_y
_atom_site_fract_z
_atom_site_charge
W 	W 	0.67021 0.22416 0.82282 1.00700
W 	W 	0.58380 0.99520 0.67803 1.01600
W 	W 	0.95604 0.17928 0.83860 0.98000
W 	W 	0.85025 0.95254 0.69138 1.04900
W 	W 	0.49384 0.13955 0.73932 1.01400
W 	W 	0.03872 0.04408 0.78221 1.00300
W 	W 	0.77813 0.07442 0.60643 1.00100
W 	W 	0.81558 0.96243 0.84966 1.29700
W 	W 	0.69390 0.21710 0.67996 0.62000
W 	W 	0.98050 0.16160 0.69749 0.62600
W 	W 	0.74190 0.08785 0.91240 0.62800
W 	W 	0.56091 0.01021 0.83836 0.62200
Pr	Pr	0.65014 0.38421 0.58287 2.01800
Pr	Pr	0.13427 0.28699 0.58403 1.96300
O 	O 	0.44720 0.97000 0.86030 -0.53100
O 	O 	0.06720 0.20350 0.65200 -0.59600
O 	O 	0.68590 0.27680 0.62780 -0.53500
O 	O 	0.85150 0.89690 0.88770 -0.59600
O 	O 	0.33240 0.31690 0.58320 -0.53500
O 	O 	0.73660 0.10720 0.98640 -0.58000
O 	O 	0.66010 0.94320 0.85820 -0.40600
O 	O 	0.84790 0.36370 0.59650 -0.53800
O 	O 	0.98750 0.32460 0.64870 -0.47500
O 	O 	0.70800 0.14630 0.62760 -0.48300
O 	O 	0.49570 0.34250 0.62710 -0.51200
O 	O 	0.81380 0.93570 0.77180 -0.47100
O 	O 	0.94950 0.00400 0.83550 -0.47700
O 	O 	0.81040 0.00990 0.92570 -0.40500
O 	O 	0.08100 0.10070 0.72040 -0.42500
O 	O 	0.51960 0.07260 0.68830 -0.46700
O 	O 	0.67500 0.15300 0.75450 -0.31000
O 	O 	0.67020 0.16090 0.87750 -0.48000
O 	O 	0.74900 0.03880 0.70100 -0.29500
O 	O 	0.53920 0.19740 0.68260 -0.40500
O 	O 	0.87670 0.12650 0.89270 -0.49200
O 	O 	0.06490 0.11050 0.84090 -0.43000
O 	O 	0.59400 0.04800 0.91090 -0.39600
O 	O 	0.85800 0.99610 0.62080 -0.46600
O 	O 	0.72460 0.04580 0.82950 -0.38300
O 	O 	0.90690 0.11050 0.64260 -0.51300
O 	O 	0.52000 0.20330 0.80090 -0.41600
O 	O 	0.84900 0.21010 0.69060 -0.46500
O 	O 	0.67980 0.26800 0.74680 -0.37600
O 	O 	0.82680 0.22330 0.82890 -0.46600
O 	O 	0.49930 0.08200 0.80320 -0.49000
O 	O 	0.56100 0.97990 0.75660 -0.47900
O 	O 	0.64200 0.03260 0.60490 -0.44700
O 	O 	0.89900 0.11340 0.77070 -0.29800
O 	O 	0.96860 0.99470 0.72280 -0.46800
O 	O 	0.01000 0.20580 0.76780 -0.41900
O 	O 	0.69730 0.93210 0.67390 -0.43600
C 	C 	0.34900 0.31280 0.68850 -0.08400
C 	C 	0.39700 0.32590 0.62970 0.39500
C 	C 	0.89400 0.35040 0.64370 0.38600
C 	C 	0.83700 0.36580 0.70130 -0.08500
C 	C 	0.26500 0.29170 0.79270 0.03500
H 	H 	0.23210 0.28560 0.82860 -0.01900
C 	C 	0.88700 0.35750 0.75750 0.08000
H 	H 	0.95680 0.34020 0.76140 -0.00000
C 	C 	0.20600 0.28360 0.74170 -0.02400
H 	H 	0.13350 0.27000 0.74440 0.04400
C 	C 	0.68700 0.40780 0.74170 -0.01000
H 	H 	0.61690 0.42500 0.73810 0.02200
C 	C 	0.73600 0.39860 0.79890 0.01300
H 	H 	0.69840 0.40940 0.83250 -0.01000
C 	C 	0.41500 0.32030 0.74220 0.08000
H 	H 	0.48750 0.33320 0.74130 0.01800
N 	N 	0.24410 0.29390 0.68770 -0.19600
N 	N 	0.73960 0.39220 0.69330 -0.19500
N 	N 	0.83500 0.37420 0.80330 -0.14900
N 	N 	0.36800 0.30810 0.79170 -0.13400
W 	W 	0.96770 0.16200 0.67890 0.51600
W 	W 	0.76020 0.10650 0.90700 0.45700
W 	W 	0.55090 0.01710 0.82000 0.49100
W 	W 	0.71780 0.21400 0.66490 0.48500
W 	W 	0.32979 0.72416 0.67718 1.00800
W 	W 	0.41620 0.49520 0.82197 1.01900
W 	W 	0.04396 0.67928 0.66140 0.98100
W 	W 	0.14975 0.45254 0.80862 1.05100
W 	W 	0.50616 0.63955 0.76068 1.01500
W 	W 	0.96128 0.54408 0.71779 1.00400
W 	W 	0.22187 0.57442 0.89357 1.00100
W 	W 	0.18442 0.46243 0.65034 1.30200
W 	W 	0.30610 0.71710 0.82004 0.62000
W 	W 	0.01950 0.66160 0.80251 0.62600
W 	W 	0.25810 0.58785 0.58760 0.62700
W 	W 	0.43909 0.51021 0.66164 0.62000
Pr	Pr	0.34986 0.88421 0.91713 2.01700
Pr	Pr	0.86573 0.78699 0.91597 1.96300
O 	O 	0.55280 0.47000 0.63970 -0.52900
O 	O 	0.93280 0.70350 0.84800 -0.59600
O 	O 	0.31410 0.77680 0.87220 -0.53500
O 	O 	0.14850 0.39690 0.61230 -0.59600
O 	O 	0.66760 0.81690 0.91680 -0.53500
O 	O 	0.26340 0.60720 0.51360 -0.58200
O 	O 	0.33990 0.44320 0.64180 -0.40500
O 	O 	0.15210 0.86370 0.90350 -0.53800
O 	O 	0.01250 0.82460 0.85130 -0.47500
O 	O 	0.29200 0.64630 0.87240 -0.48300
O 	O 	0.50430 0.84250 0.87290 -0.51200
O 	O 	0.18620 0.43570 0.72820 -0.47200
O 	O 	0.05050 0.50400 0.66450 -0.47900
O 	O 	0.18960 0.50990 0.57430 -0.40700
O 	O 	0.91900 0.60070 0.77960 -0.42500
O 	O 	0.48040 0.57260 0.81170 -0.46700
O 	O 	0.32500 0.65300 0.74550 -0.31000
O 	O 	0.32980 0.66090 0.62250 -0.48000
O 	O 	0.25100 0.53880 0.79900 -0.29600
O 	O 	0.46080 0.69740 0.81740 -0.40500
O 	O 	0.12330 0.62650 0.60730 -0.49300
O 	O 	0.93510 0.61050 0.65910 -0.43000
O 	O 	0.40600 0.54800 0.58910 -0.39600
O 	O 	0.14200 0.49610 0.87920 -0.46500
O 	O 	0.27540 0.54580 0.67050 -0.38400
O 	O 	0.09310 0.61050 0.85740 -0.51300
O 	O 	0.48000 0.70330 0.69910 -0.41600
O 	O 	0.15100 0.71010 0.80940 -0.46500
O 	O 	0.32020 0.76800 0.75320 -0.37600
O 	O 	0.17320 0.72330 0.67110 -0.46600
O 	O 	0.50070 0.58200 0.69680 -0.49000
O 	O 	0.43900 0.47990 0.74340 -0.47800
O 	O 	0.35800 0.53260 0.89510 -0.44800
O 	O 	0.10100 0.61340 0.72930 -0.29800
O 	O 	0.03140 0.49470 0.77720 -0.46700
O 	O 	0.99000 0.70580 0.73220 -0.41900
O 	O 	0.30270 0.43210 0.82610 -0.43600
C 	C 	0.65100 0.81280 0.81150 -0.08400
C 	C 	0.60300 0.82590 0.87030 0.39500
C 	C 	0.10600 0.85040 0.85630 0.38600
C 	C 	0.16300 0.86580 0.79870 -0.08500
C 	C 	0.73500 0.79170 0.70730 0.03500
H 	H 	0.76790 0.78560 0.67140 -0.01900
C 	C 	0.11300 0.85750 0.74250 0.08000
H 	H 	0.04320 0.84020 0.73860 0.00000
C 	C 	0.79400 0.78360 0.75830 -0.02400
H 	H 	0.86650 0.77000 0.75560 0.04400
C 	C 	0.31300 0.90780 0.75830 -0.01100
H 	H 	0.38310 0.92500 0.76190 0.02200
C 	C 	0.26400 0.89860 0.70110 0.01300
H 	H 	0.30160 0.90940 0.66750 -0.01100
C 	C 	0.58500 0.82030 0.75780 0.08000
H 	H 	0.51250 0.83320 0.75870 0.01800
N 	N 	0.75590 0.79390 0.81230 -0.19600
N 	N 	0.26040 0.89220 0.80670 -0.19500
N 	N 	0.16500 0.87420 0.69670 -0.14900
N 	N 	0.63200 0.80810 0.70830 -0.13400
W 	W 	0.03230 0.66200 0.82110 0.51600
W 	W 	0.23980 0.60650 0.59300 0.45700
W 	W 	0.44910 0.51710 0.68000 0.48900
W 	W 	0.28220 0.71400 0.83510 0.48500
W 	W 	0.32979 0.77584 0.17718 1.00800
W 	W 	0.41620 0.00480 0.32197 1.01700
W 	W 	0.04396 0.82072 0.16140 0.98100
W 	W 	0.14975 0.04746 0.30862 1.05000
W 	W 	0.50616 0.86045 0.26068 1.01500
W 	W 	0.96128 0.95592 0.21779 1.00400
W 	W 	0.22187 0.92558 0.39357 1.00100
W 	W 	0.18442 0.03757 0.15034 1.29700
W 	W 	0.30610 0.78290 0.32004 0.62000
W 	W 	0.01950 0.83840 0.30251 0.62600
W 	W 	0.25810 0.91215 0.08760 0.62800
W 	W 	0.43909 0.98979 0.16164 0.62200
Pr	Pr	0.34986 0.61579 0.41713 2.01800
Pr	Pr	0.86573 0.71301 0.41597 1.96300
O 	O 	0.55280 0.03000 0.13970 -0.53100
O 	O 	0.93280 0.79650 0.34800 -0.59600
O 	O 	0.31410 0.72320 0.37220 -0.53500
O 	O 	0.14850 0.10310 0.11230 -0.59600
O 	O 	0.66760 0.68310 0.41680 -0.53500
O 	O 	0.26340 0.89280 0.01360 -0.58000
O 	O 	0.33990 0.05680 0.14180 -0.40600
O 	O 	0.15210 0.63630 0.40350 -0.53800
O 	O 	0.01250 0.67540 0.35130 -0.47500
O 	O 	0.29200 0.85370 0.37240 -0.48300
O 	O 	0.50430 0.65750 0.37290 -0.51200
O 	O 	0.18620 0.06430 0.22820 -0.47100
O 	O 	0.05050 0.99600 0.16450 -0.47700
O 	O 	0.18960 0.99010 0.07430 -0.40500
O 	O 	0.91900 0.89930 0.27960 -0.42500
O 	O 	0.48040 0.92740 0.31170 -0.46700
O 	O 	0.32500 0.84700 0.24550 -0.31000
O 	O 	0.32980 0.83910 0.12250 -0.48000
O 	O 	0.25100 0.96120 0.29900 -0.29500
O 	O 	0.46080 0.80260 0.31740 -0.40500
O 	O 	0.12330 0.87350 0.10730 -0.49200
O 	O 	0.93510 0.88950 0.15910 -0.43000
O 	O 	0.40600 0.95200 0.08910 -0.39600
O 	O 	0.14200 0.00390 0.37920 -0.46600
O 	O 	0.27540 0.95420 0.17050 -0.38300
O 	O 	0.09310 0.88950 0.35740 -0.51300
O 	O 	0.48000 0.79670 0.19910 -0.41600
O 	O 	0.15100 0.78990 0.30940 -0.46500
O 	O 	0.32020 0.73200 0.25320 -0.37600
O 	O 	0.17320 0.77670 0.17110 -0.46600
O 	O 	0.50070 0.91800 0.19680 -0.49000
O 	O 	0.43900 0.02010 0.24340 -0.47900
O 	O 	0.35800 0.96740 0.39510 -0.44700
O 	O 	0.10100 0.88660 0.22930 -0.29800
O 	O 	0.03140 0.00530 0.27720 -0.46800
O 	O 	0.99000 0.79420 0.23220 -0.41900
O 	O 	0.30270 0.06790 0.32610 -0.43600
C 	C 	0.65100 0.68720 0.31150 -0.08400
C 	C 	0.60300 0.67410 0.37030 0.39500
C 	C 	0.10600 0.64960 0.35630 0.38600
C 	C 	0.16300 0.63420 0.29870 -0.08500
C 	C 	0.73500 0.70830 0.20730 0.03500
H 	H 	0.76790 0.71440 0.17140 -0.01900
C 	C 	0.11300 0.64250 0.24250 0.08000
H 	H 	0.04320 0.65980 0.23860 -0.00000
C 	C 	0.79400 0.71640 0.25830 -0.02400
H 	H 	0.86650 0.73000 0.25560 0.04400
C 	C 	0.31300 0.59220 0.25830 -0.01000
H 	H 	0.38310 0.57500 0.26190 0.02200
C 	C 	0.26400 0.60140 0.20110 0.01300
H 	H 	0.30160 0.59060 0.16750 -0.01000
C 	C 	0.58500 0.67970 0.25780 0.08000
H 	H 	0.51250 0.66680 0.25870 0.01800
N 	N 	0.75590 0.70610 0.31230 -0.19600
N 	N 	0.26040 0.60780 0.30670 -0.19500
N 	N 	0.16500 0.62580 0.19670 -0.14900
N 	N 	0.63200 0.69190 0.20830 -0.13400
W 	W 	0.03230 0.83800 0.32110 0.51600
W 	W 	0.23980 0.89350 0.09300 0.45700
W 	W 	0.44910 0.98290 0.18000 0.49100
W 	W 	0.28220 0.78600 0.33510 0.48500
W 	W 	0.67021 0.27584 0.32282 1.00800
W 	W 	0.58380 0.50480 0.17803 1.01900
W 	W 	0.95604 0.32072 0.33860 0.98100
W 	W 	0.85025 0.54746 0.19138 1.05100
W 	W 	0.49384 0.36045 0.23932 1.01500
W 	W 	0.03872 0.45592 0.28221 1.00400
W 	W 	0.77813 0.42558 0.10643 1.00100
W 	W 	0.81558 0.53757 0.34966 1.30200
W 	W 	0.69390 0.28290 0.17996 0.62000
W 	W 	0.98050 0.33840 0.19749 0.62600
W 	W 	0.74190 0.41215 0.41240 0.62700
W 	W 	0.56091 0.48979 0.33836 0.62000
Pr	Pr	0.65014 0.11579 0.08287 2.01700
Pr	Pr	0.13427 0.21301 0.08403 1.96300
O 	O 	0.44720 0.53000 0.36030 -0.52900
O 	O 	0.06720 0.29650 0.15200 -0.59600
O 	O 	0.68590 0.22320 0.12780 -0.53500
O 	O 	0.85150 0.60310 0.38770 -0.59600
O 	O 	0.33240 0.18310 0.08320 -0.53500
O 	O 	0.73660 0.39280 0.48640 -0.58200
O 	O 	0.66010 0.55680 0.35820 -0.40500
O 	O 	0.84790 0.13630 0.09650 -0.53800
O 	O 	0.98750 0.17540 0.14870 -0.47500
O 	O 	0.70800 0.35370 0.12760 -0.48300
O 	O 	0.49570 0.15750 0.12710 -0.51200
O 	O 	0.81380 0.56430 0.27180 -0.47200
O 	O 	0.94950 0.49600 0.33550 -0.47900
O 	O 	0.81040 0.49010 0.42570 -0.40700
O 	O 	0.08100 0.39930 0.22040 -0.42500
O 	O 	0.51960 0.42740 0.18830 -0.46700
O 	O 	0.67500 0.34700 0.25450 -0.31000
O 	O 	0.67020 0.33910 0.37750 -0.48000
O 	O 	0.74900 0.46120 0.20100 -0.29600
O 	O 	0.53920 0.30260 0.18260 -0.40500
O 	O 	0.87670 0.37350 0.39270 -0.49300
O 	O 	0.06490 0.38950 0.34090 -0.43000
O 	O 	0.59400 0.45200 0.41090 -0.39600
O 	O 	0.85800 0.50390 0.12080 -0.46500
O 	O 	0.72460 0.45420 0.32950 -0.38400
O 	O 	0.90690 0.38950 0.14260 -0.51300
O 	O 	0.52000 0.29670 0.30090 -0.41600
O 	O 	0.84900 0.28990 0.19060 -0.46500
O 	O 	0.67980 0.23200 0.24680 -0.37600
O 	O 	0.82680 0.27670 0.32890 -0.46600
O 	O 	0.49930 0.41800 0.30320 -0.49000
O 	O 	0.56100 0.52010 0.25660 -0.47800
O 	O 	0.64200 0.46740 0.10490 -0.44800
O 	O 	0.89900 0.38660 0.27070 -0.29800
O 	O 	0.96860 0.50530 0.22280 -0.46700
O 	O 	0.01000 0.29420 0.26780 -0.41900
O 	O 	0.69730 0.56790 0.17390 -0.43600
C 	C 	0.34900 0.18720 0.18850 -0.08400
C 	C 	0.39700 0.17410 0.12970 0.39500
C 	C 	0.89400 0.14960 0.14370 0.38600
C 	C 	0.83700 0.13420 0.20130 -0.08500
C 	C 	0.26500 0.20830 0.29270 0.03500
H 	H 	0.23210 0.21440 0.32860 -0.01900
C 	C 	0.88700 0.14250 0.25750 0.08000
H 	H 	0.95680 0.15980 0.26140 0.00000
C 	C 	0.20600 0.21640 0.24170 -0.02400
H 	H 	0.13350 0.23000 0.24440 0.04400
C 	C 	0.68700 0.09220 0.24170 -0.01100
H 	H 	0.61690 0.07500 0.23810 0.02200
C 	C 	0.73600 0.10140 0.29890 0.01300
H 	H 	0.69840 0.09060 0.33250 -0.01100
C 	C 	0.41500 0.17970 0.24220 0.08000
H 	H 	0.48750 0.16680 0.24130 0.01800
N 	N 	0.24410 0.20610 0.18770 -0.19600
N 	N 	0.73960 0.10780 0.19330 -0.19500
N 	N 	0.83500 0.12580 0.30330 -0.14900
N 	N 	0.36800 0.19190 0.29170 -0.13400
W 	W 	0.96770 0.33800 0.17890 0.51600
W 	W 	0.76020 0.39350 0.40700 0.45700
W 	W 	0.55090 0.48290 0.32000 0.48900
W 	W 	0.71780 0.28600 0.16490 0.48500
