data_crystal

_cell_length_a 6.60500
_cell_length_b 10.44780
_cell_length_c 11.08810
_cell_angle_alpha 62.06400
_cell_angle_beta  73.41000
_cell_angle_gamma 78.40400

_symmetry_space_group_name_	'P 1'
_symmetry_space_group_name_H-M	'P 1'

loop_
_symmetry_equiv_pos_as_xyz
  x,y,z

loop_
_atom_site_label
_atom_site_type_symbol
_atom_site_fract_x
_atom_site_fract_y
_atom_site_fract_z
_atom_site_charge
Cu	Cu	-0.00000 0.00000 0.50000 0.83800
Cu	Cu	0.50000 0.00000 0.50000 0.81300
H 	H 	0.58670 0.73100 0.44290 0.06500
H 	H 	0.14620 0.44530 0.57760 0.05500
H 	H 	0.34780 0.04650 0.87280 0.06300
H 	H 	0.76380 0.95030 0.90830 0.07600
H 	H 	0.41330 0.26900 0.55710 0.02400
H 	H 	0.85380 0.55470 0.42240 0.07300
H 	H 	0.65220 0.95350 0.12720 0.03600
H 	H 	0.23620 0.04970 0.09170 0.02200
C 	C 	0.13630 0.99610 0.72890 0.41900
C 	C 	0.16470 0.71770 0.52600 0.25500
C 	C 	0.55140 0.63710 0.46630 -0.03800
C 	C 	0.06550 0.99870 0.86970 -0.00300
C 	C 	0.34020 0.60540 0.51320 -0.03300
C 	C 	0.29010 0.46740 0.54630 -0.05000
C 	C 	0.20630 0.02770 0.92440 -0.13900
C 	C 	0.86000 0.97070 0.94530 0.01900
C 	C 	0.86370 0.00390 0.27110 0.32200
C 	C 	0.83530 0.28230 0.47400 0.41000
C 	C 	0.44860 0.36290 0.53370 0.01500
C 	C 	0.93450 0.00130 0.13030 -0.16000
C 	C 	0.65980 0.39460 0.48680 -0.10600
C 	C 	0.70990 0.53260 0.45370 0.01400
C 	C 	0.79370 0.97230 0.07560 0.11400
C 	C 	0.14000 0.02930 0.05470 -0.03600
O 	O 	0.32920 0.01250 0.66980 -0.53500
O 	O 	0.21300 0.83240 0.52070 -0.37500
O 	O 	0.99770 0.97800 0.68410 -0.32300
O 	O 	0.98110 0.69190 0.54050 -0.20300
O 	O 	0.67080 0.98750 0.33020 -0.31800
O 	O 	0.78700 0.16760 0.47930 -0.45600
O 	O 	0.00230 0.02200 0.31590 -0.48700
O 	O 	0.01890 0.30810 0.45950 -0.37100
