data_crystal

_cell_length_a 11.91900
_cell_length_b 14.01000
_cell_length_c 14.79200
_cell_angle_alpha 118.05500
_cell_angle_beta  105.12500
_cell_angle_gamma 96.41700

_symmetry_space_group_name_	'P 1'
_symmetry_space_group_name_H-M	'P 1'

loop_
_symmetry_equiv_pos_as_xyz
  x,y,z

loop_
_atom_site_label
_atom_site_type_symbol
_atom_site_fract_x
_atom_site_fract_y
_atom_site_fract_z
_atom_site_charge
Si	Si	0.21250 0.46320 0.91140 0.69600
O 	O 	0.61860 0.17790 0.60720 -0.73100
O 	O 	0.46750 0.21640 0.18590 -0.44000
O 	O 	0.65910 0.26170 0.51930 -0.59200
O 	O 	0.38470 0.19580 0.46450 -0.43200
O 	O 	0.46650 0.36990 0.51900 -0.43600
O 	O 	0.34790 0.28400 0.27750 -0.41500
C 	C 	0.04570 0.41950 0.83700 -0.21400
C 	C 	0.37070 0.48630 0.79970 0.08400
H 	H 	0.40500 0.55970 0.85900 -0.01100
C 	C 	0.25230 0.39140 0.98980 -0.25900
C 	C 	0.27850 0.41720 0.80130 -0.25800
C 	C 	0.21880 0.41660 0.07980 0.09000
H 	H 	0.16910 0.46420 0.09650 -0.01100
C 	C 	0.27760 0.61880 0.01150 -0.10500
C 	C 	0.32560 0.31800 0.96580 0.08200
H 	H 	0.34820 0.29820 0.90510 -0.00600
C 	C 	0.99870 0.44530 0.75540 0.01000
H 	H 	0.04760 0.49900 0.75180 0.00700
C 	C 	0.27430 0.26750 0.62590 -0.09800
H 	H 	0.24300 0.19300 0.56840 0.12300
C 	C 	0.96550 0.34600 0.84440 0.01800
H 	H 	0.99220 0.33060 0.89980 0.01900
C 	C 	0.36360 0.33820 0.62530 -0.01000
C 	C 	0.23050 0.30580 0.71110 0.08100
H 	H 	0.16830 0.25720 0.70870 0.00800
C 	C 	0.80710 0.31500 0.68780 -0.16100
C 	C 	0.25750 0.37280 0.14590 -0.11200
H 	H 	0.23340 0.39070 0.20550 0.07900
C 	C 	0.36510 0.27410 0.03160 -0.10700
H 	H 	0.41380 0.22570 0.01470 0.07500
C 	C 	0.84710 0.29470 0.77180 0.01500
H 	H 	0.79500 0.24680 0.77950 0.03700
C 	C 	0.38510 0.65710 0.09910 -0.15900
H 	H 	0.42390 0.60570 0.10630 0.07400
C 	C 	0.88320 0.39270 0.68210 0.00600
H 	H 	0.85530 0.40910 0.62750 0.02000
C 	C 	0.41300 0.45100 0.71490 -0.11500
H 	H 	0.47320 0.50020 0.71600 0.06800
C 	C 	0.40880 0.30000 0.53090 0.33200
C 	C 	0.22280 0.69830 0.00290 -0.16600
H 	H 	0.15060 0.67550 0.94560 0.07200
C 	C 	0.37920 0.84900 0.16810 -0.52100
C 	C 	0.43530 0.77140 0.17590 0.25400
H 	H 	0.50790 0.79560 0.23340 -0.05500
C 	C 	0.27560 0.80970 0.07890 0.25300
H 	H 	0.23960 0.86180 0.06990 -0.06400
C 	C 	0.33180 0.30260 0.12270 -0.00100
C 	C 	0.38440 0.26470 0.19960 0.27600
C 	C 	0.68480 0.24650 0.59840 0.58700
O 	O 	0.37210 0.04790 0.51450 -1.34700
O 	O 	0.23750 0.96180 0.33030 -0.21600
O 	O 	0.24090 0.98460 0.48560 0.00800
N 	N 	0.17500 0.96200 0.39130 0.04000
O 	O 	0.07100 0.93880 0.36200 -0.12100
Eu	Eu	0.50797 0.22523 0.36162 1.91300
Eu	Eu	0.44517 0.01800 0.47781 2.53800
O 	O 	0.48480 0.01460 0.32790 -0.57800
O 	O 	0.36830 0.04010 0.20340 0.03300
C 	C 	0.41400 0.97390 0.23200 0.62800
C 	C 	0.44700 0.96500 0.27600 0.61700
O 	O 	0.41150 0.03720 0.26180 -0.89600
O 	O 	0.52610 0.98590 0.36300 -0.50600
Si	Si	0.78750 0.53680 0.08860 0.69600
O 	O 	0.38140 0.82210 0.39280 -0.73100
O 	O 	0.53250 0.78360 0.81410 -0.44000
O 	O 	0.34090 0.73830 0.48070 -0.59200
O 	O 	0.61530 0.80420 0.53550 -0.43200
O 	O 	0.53350 0.63010 0.48100 -0.43600
O 	O 	0.65210 0.71600 0.72250 -0.41500
C 	C 	0.95430 0.58050 0.16300 -0.21400
C 	C 	0.62930 0.51370 0.20030 0.08400
H 	H 	0.59500 0.44030 0.14100 -0.01100
C 	C 	0.74770 0.60860 0.01020 -0.25900
C 	C 	0.72150 0.58280 0.19870 -0.25800
C 	C 	0.78120 0.58340 0.92020 0.09000
H 	H 	0.83090 0.53580 0.90350 -0.01100
C 	C 	0.72240 0.38120 0.98850 -0.10500
C 	C 	0.67440 0.68200 0.03420 0.08200
H 	H 	0.65180 0.70180 0.09490 -0.00600
C 	C 	0.00130 0.55470 0.24460 0.01000
H 	H 	0.95240 0.50100 0.24820 0.00700
C 	C 	0.72570 0.73250 0.37410 -0.09800
H 	H 	0.75700 0.80700 0.43160 0.12300
C 	C 	0.03450 0.65400 0.15560 0.01800
H 	H 	0.00780 0.66940 0.10020 0.01900
C 	C 	0.63640 0.66180 0.37470 -0.01000
C 	C 	0.76950 0.69420 0.28890 0.08100
H 	H 	0.83170 0.74280 0.29130 0.00800
C 	C 	0.19290 0.68500 0.31220 -0.16100
C 	C 	0.74250 0.62720 0.85410 -0.11200
H 	H 	0.76660 0.60930 0.79450 0.07900
C 	C 	0.63490 0.72590 0.96840 -0.10700
H 	H 	0.58620 0.77430 0.98530 0.07500
C 	C 	0.15290 0.70530 0.22820 0.01500
H 	H 	0.20500 0.75320 0.22050 0.03700
C 	C 	0.61490 0.34290 0.90090 -0.15900
H 	H 	0.57610 0.39430 0.89370 0.07400
C 	C 	0.11680 0.60730 0.31790 0.00600
H 	H 	0.14470 0.59090 0.37250 0.02000
C 	C 	0.58700 0.54900 0.28510 -0.11500
H 	H 	0.52680 0.49980 0.28400 0.06800
C 	C 	0.59120 0.70000 0.46910 0.33200
C 	C 	0.77720 0.30170 0.99710 -0.16600
H 	H 	0.84940 0.32450 0.05440 0.07200
C 	C 	0.62080 0.15100 0.83190 -0.52100
C 	C 	0.56470 0.22860 0.82410 0.25400
H 	H 	0.49210 0.20440 0.76660 -0.05500
C 	C 	0.72440 0.19030 0.92110 0.25300
H 	H 	0.76040 0.13820 0.93010 -0.06400
C 	C 	0.66820 0.69740 0.87730 -0.00100
C 	C 	0.61560 0.73530 0.80040 0.27600
C 	C 	0.31520 0.75350 0.40160 0.58700
O 	O 	0.62790 0.95210 0.48550 -1.34700
O 	O 	0.76250 0.03820 0.66970 -0.21600
O 	O 	0.75910 0.01540 0.51440 0.00800
N 	N 	0.82500 0.03800 0.60870 0.04000
O 	O 	0.92900 0.06120 0.63800 -0.12100
Eu	Eu	0.49203 0.77477 0.63838 1.91300
Eu	Eu	0.55483 0.98200 0.52219 2.53800
O 	O 	0.51520 0.98540 0.67210 -0.57800
O 	O 	0.63170 0.95990 0.79660 0.03300
C 	C 	0.58600 0.02610 0.76800 0.62800
C 	C 	0.55300 0.03500 0.72400 0.61700
O 	O 	0.58850 0.96280 0.73820 -0.89600
O 	O 	0.47390 0.01410 0.63700 -0.50600
