data_crystal

_cell_length_a 14.53450
_cell_length_b 14.53450
_cell_length_c 21.93560
_cell_angle_alpha 82.26360
_cell_angle_beta  82.26360
_cell_angle_gamma 66.64770

_symmetry_space_group_name_	'P 1'
_symmetry_space_group_name_H-M	'P 1'

loop_
_symmetry_equiv_pos_as_xyz
  x,y,z

loop_
_atom_site_label
_atom_site_type_symbol
_atom_site_fract_x
_atom_site_fract_y
_atom_site_fract_z
_atom_site_charge
Ce	Ce	0.53207 0.95185 0.59573 2.13200
Ce	Ce	0.04815 0.46793 0.90427 2.13000
Ce	Ce	0.46793 0.04815 0.40427 2.13200
Ce	Ce	0.95185 0.53207 0.09573 2.13000
Si	Si	0.88930 0.34932 0.50609 0.80000
Si	Si	0.65068 0.11070 0.99391 0.78800
Si	Si	0.11070 0.65068 0.49391 0.80000
Si	Si	0.34932 0.88930 0.00609 0.78800
H 	H 	0.74300 0.70620 0.53850 0.03500
H 	H 	0.81930 0.56890 0.48170 -0.00000
H 	H 	0.82570 0.38690 0.63500 0.00000
H 	H 	0.75400 0.52240 0.69140 0.02900
H 	H 	0.68030 0.37670 0.50490 -0.02800
H 	H 	0.58440 0.28220 0.53210 0.08300
H 	H 	0.82670 0.04750 0.58770 0.09400
H 	H 	0.92380 0.14220 0.55780 -0.02100
H 	H 	0.01540 0.49180 0.31750 0.09800
H 	H 	0.00320 0.44260 0.42130 -0.02000
H 	H 	0.79160 0.34300 0.39620 -0.02400
H 	H 	0.80810 0.38810 0.29160 0.09200
H 	H 	0.02740 0.34000 0.59840 -0.01500
H 	H 	0.19060 0.24000 0.61810 0.08700
H 	H 	0.21880 0.08880 0.47190 0.07200
H 	H 	0.05470 0.18450 0.45530 -0.01500
H 	H 	0.70460 0.64480 0.72550 0.28700
H 	H 	0.29380 0.25700 0.96150 0.03100
H 	H 	0.43110 0.18070 0.01830 0.00600
H 	H 	0.61310 0.17430 0.86500 0.00200
H 	H 	0.47760 0.24600 0.80860 0.02600
H 	H 	0.62330 0.31970 0.99510 -0.02700
H 	H 	0.71780 0.41560 0.96790 0.08300
H 	H 	0.95250 0.17330 0.91230 0.09400
H 	H 	0.85780 0.07620 0.94220 -0.02000
H 	H 	0.50820 0.98460 0.18250 0.09200
H 	H 	0.55740 0.99680 0.07870 -0.02300
H 	H 	0.65700 0.20840 0.10380 -0.02300
H 	H 	0.61190 0.19190 0.20840 0.09100
H 	H 	0.66000 0.97260 0.90160 -0.01200
H 	H 	0.76000 0.80940 0.88190 0.08700
H 	H 	0.91120 0.78120 0.02810 0.07000
H 	H 	0.81550 0.94530 0.04470 -0.01400
H 	H 	0.35520 0.29540 0.77450 0.28700
H 	H 	0.25700 0.29380 0.46150 0.03500
H 	H 	0.18070 0.43110 0.51830 -0.00000
H 	H 	0.17430 0.61310 0.36500 0.00000
H 	H 	0.24600 0.47760 0.30860 0.02900
H 	H 	0.31970 0.62330 0.49510 -0.02800
H 	H 	0.41560 0.71780 0.46790 0.08300
H 	H 	0.17330 0.95250 0.41230 0.09400
H 	H 	0.07620 0.85780 0.44220 -0.02100
H 	H 	0.98460 0.50820 0.68250 0.09800
H 	H 	0.99680 0.55740 0.57870 -0.02000
H 	H 	0.20840 0.65700 0.60380 -0.02400
H 	H 	0.19190 0.61190 0.70840 0.09200
H 	H 	0.97260 0.66000 0.40160 -0.01500
H 	H 	0.80940 0.76000 0.38190 0.08700
H 	H 	0.78120 0.91120 0.52810 0.07200
H 	H 	0.94530 0.81550 0.54470 -0.01500
H 	H 	0.29540 0.35520 0.27450 0.28700
H 	H 	0.70620 0.74300 0.03850 0.03100
H 	H 	0.56890 0.81930 0.98170 0.00600
H 	H 	0.38690 0.82570 0.13500 0.00200
H 	H 	0.52240 0.75400 0.19140 0.02600
H 	H 	0.37670 0.68030 0.00490 -0.02700
H 	H 	0.28220 0.58440 0.03210 0.08300
H 	H 	0.04750 0.82670 0.08770 0.09400
H 	H 	0.14220 0.92380 0.05780 -0.02000
H 	H 	0.49180 0.01540 0.81750 0.09200
H 	H 	0.44260 0.00320 0.92130 -0.02300
H 	H 	0.34300 0.79160 0.89620 -0.02300
H 	H 	0.38810 0.80810 0.79160 0.09100
H 	H 	0.34000 0.02740 0.09840 -0.01200
H 	H 	0.24000 0.19060 0.11810 0.08700
H 	H 	0.08880 0.21880 0.97190 0.07000
H 	H 	0.18450 0.05470 0.95530 -0.01400
H 	H 	0.64480 0.70460 0.22550 0.28700
C 	C 	0.69323 0.71763 0.65864 0.46300
C 	C 	0.73879 0.62859 0.62103 -0.13000
C 	C 	0.75958 0.64158 0.55823 -0.04000
C 	C 	0.80515 0.55875 0.52406 0.05900
C 	C 	0.83011 0.46191 0.55118 -0.26600
C 	C 	0.80940 0.45120 0.61488 0.05700
C 	C 	0.76570 0.53250 0.64877 -0.03900
C 	C 	0.81391 0.26931 0.52754 -0.30400
C 	C 	0.71055 0.31015 0.52092 0.12300
C 	C 	0.65272 0.25392 0.53762 -0.14100
C 	C 	0.69582 0.15502 0.56274 0.02200
C 	C 	0.63404 0.09244 0.58029 0.26100
C 	C 	0.79717 0.11357 0.57057 -0.13900
C 	C 	0.85531 0.17091 0.55270 0.12700
C 	C 	0.32875 0.09135 0.55913 0.32700
C 	C 	0.92739 0.47079 0.22556 0.28600
C 	C 	0.91428 0.44288 0.29327 0.03000
C 	C 	0.97120 0.46060 0.33315 -0.13300
C 	C 	0.96276 0.43236 0.39560 0.12000
C 	C 	0.89448 0.38868 0.42100 -0.29700
C 	C 	0.83723 0.37243 0.38068 0.12400
C 	C 	0.84724 0.39944 0.31762 -0.13200
C 	C 	0.02224 0.27364 0.52429 -0.29000
C 	C 	0.06538 0.28898 0.57316 0.10600
C 	C 	0.16367 0.22967 0.58472 -0.10700
C 	C 	0.22239 0.15459 0.54664 -0.03100
C 	C 	0.18034 0.13874 0.49773 -0.11500
C 	C 	0.08209 0.19689 0.48766 0.11200
C 	C 	0.28237 0.30677 0.84136 0.46500
C 	C 	0.37141 0.26121 0.87897 -0.13600
C 	C 	0.35842 0.24042 0.94177 -0.03200
C 	C 	0.44125 0.19485 0.97594 0.04600
C 	C 	0.53809 0.16989 0.94882 -0.25800
C 	C 	0.54880 0.19060 0.88512 0.05000
C 	C 	0.46750 0.23430 0.85123 -0.03300
C 	C 	0.73069 0.18609 0.97246 -0.30000
C 	C 	0.68985 0.28945 0.97908 0.12100
C 	C 	0.74608 0.34728 0.96238 -0.14000
C 	C 	0.84498 0.30418 0.93726 0.02100
C 	C 	0.90756 0.36596 0.91971 0.26100
C 	C 	0.88643 0.20283 0.92943 -0.13700
C 	C 	0.82909 0.14469 0.94730 0.12400
C 	C 	0.90865 0.67125 0.94087 0.32600
C 	C 	0.52921 0.07261 0.27444 0.28800
C 	C 	0.55712 0.08572 0.20673 0.02700
C 	C 	0.53940 0.02880 0.16685 -0.12400
C 	C 	0.56764 0.03724 0.10440 0.12000
C 	C 	0.61132 0.10552 0.07900 -0.29300
C 	C 	0.62757 0.16277 0.11932 0.12000
C 	C 	0.60056 0.15276 0.18238 -0.12900
C 	C 	0.72636 0.97776 0.97571 -0.27700
C 	C 	0.71102 0.93462 0.92684 0.10200
C 	C 	0.77033 0.83633 0.91528 -0.10600
C 	C 	0.84541 0.77761 0.95336 -0.02500
C 	C 	0.86126 0.81966 0.00227 -0.12000
C 	C 	0.80311 0.91791 0.01234 0.10100
C 	C 	0.30677 0.28237 0.34136 0.46300
C 	C 	0.26121 0.37141 0.37897 -0.13000
C 	C 	0.24042 0.35842 0.44177 -0.04000
C 	C 	0.19485 0.44125 0.47594 0.05900
C 	C 	0.16989 0.53809 0.44882 -0.26600
C 	C 	0.19060 0.54880 0.38512 0.05700
C 	C 	0.23430 0.46750 0.35123 -0.03900
C 	C 	0.18609 0.73069 0.47246 -0.30400
C 	C 	0.28945 0.68985 0.47908 0.12300
C 	C 	0.34728 0.74608 0.46238 -0.14100
C 	C 	0.30418 0.84498 0.43726 0.02200
C 	C 	0.36596 0.90756 0.41971 0.26100
C 	C 	0.20283 0.88643 0.42943 -0.13900
C 	C 	0.14469 0.82909 0.44730 0.12700
C 	C 	0.67125 0.90865 0.44087 0.32700
C 	C 	0.07261 0.52921 0.77444 0.28600
C 	C 	0.08572 0.55712 0.70673 0.03000
C 	C 	0.02880 0.53940 0.66685 -0.13300
C 	C 	0.03724 0.56764 0.60440 0.12000
C 	C 	0.10552 0.61132 0.57900 -0.29700
C 	C 	0.16277 0.62757 0.61932 0.12400
C 	C 	0.15276 0.60056 0.68238 -0.13200
C 	C 	0.97776 0.72636 0.47571 -0.29000
C 	C 	0.93462 0.71102 0.42684 0.10600
C 	C 	0.83633 0.77033 0.41528 -0.10700
C 	C 	0.77761 0.84541 0.45336 -0.03100
C 	C 	0.81966 0.86126 0.50227 -0.11500
C 	C 	0.91791 0.80311 0.51234 0.11200
C 	C 	0.71763 0.69323 0.15864 0.46500
C 	C 	0.62859 0.73879 0.12103 -0.13600
C 	C 	0.64158 0.75958 0.05823 -0.03200
C 	C 	0.55875 0.80515 0.02406 0.04600
C 	C 	0.46191 0.83011 0.05118 -0.25800
C 	C 	0.45120 0.80940 0.11488 0.05000
C 	C 	0.53250 0.76570 0.14877 -0.03300
C 	C 	0.26931 0.81391 0.02754 -0.30000
C 	C 	0.31015 0.71055 0.02092 0.12100
C 	C 	0.25392 0.65272 0.03762 -0.14000
C 	C 	0.15502 0.69582 0.06274 0.02100
C 	C 	0.09244 0.63404 0.08029 0.26100
C 	C 	0.11357 0.79717 0.07057 -0.13700
C 	C 	0.17091 0.85531 0.05270 0.12400
C 	C 	0.09135 0.32875 0.05913 0.32600
C 	C 	0.47079 0.92739 0.72556 0.28800
C 	C 	0.44288 0.91428 0.79327 0.02700
C 	C 	0.46060 0.97120 0.83315 -0.12400
C 	C 	0.43236 0.96276 0.89560 0.12000
C 	C 	0.38868 0.89448 0.92100 -0.29300
C 	C 	0.37243 0.83723 0.88068 0.12000
C 	C 	0.39944 0.84724 0.81762 -0.12900
C 	C 	0.27364 0.02224 0.02429 -0.27700
C 	C 	0.28898 0.06538 0.07316 0.10200
C 	C 	0.22967 0.16367 0.08472 -0.10600
C 	C 	0.15459 0.22239 0.04664 -0.02500
C 	C 	0.13874 0.18034 0.99773 -0.12000
C 	C 	0.19689 0.08209 0.98766 0.10100
O 	O 	0.68330 0.70510 0.71458 -0.53600
O 	O 	0.67026 0.80434 0.62962 -0.50800
O 	O 	0.67377 0.00629 0.60800 -0.39700
O 	O 	0.54417 0.12557 0.56580 -0.42100
O 	O 	0.35354 0.07926 0.61277 -0.43300
O 	O 	0.87991 0.44903 0.18915 -0.42200
O 	O 	0.98620 0.51498 0.20542 -0.40800
O 	O 	0.39265 0.04857 0.51493 -0.61400
O 	O 	0.29490 0.31670 0.78542 -0.53800
O 	O 	0.19566 0.32974 0.87038 -0.51000
O 	O 	0.99371 0.32623 0.89200 -0.39400
O 	O 	0.87443 0.45583 0.93420 -0.42000
O 	O 	0.92074 0.64646 0.88723 -0.43100
O 	O 	0.55097 0.12009 0.31085 -0.42100
O 	O 	0.48502 0.01380 0.29458 -0.40500
O 	O 	0.95143 0.60735 0.98507 -0.61100
O 	O 	0.31670 0.29490 0.28542 -0.53600
O 	O 	0.32974 0.19566 0.37038 -0.50800
O 	O 	0.32623 0.99371 0.39200 -0.39700
O 	O 	0.45583 0.87443 0.43420 -0.42100
O 	O 	0.64646 0.92074 0.38723 -0.43300
O 	O 	0.12009 0.55097 0.81085 -0.42200
O 	O 	0.01380 0.48502 0.79458 -0.40800
O 	O 	0.60735 0.95143 0.48507 -0.61400
O 	O 	0.70510 0.68330 0.21458 -0.53800
O 	O 	0.80434 0.67026 0.12962 -0.51000
O 	O 	0.00629 0.67377 0.10800 -0.39400
O 	O 	0.12557 0.54417 0.06580 -0.42000
O 	O 	0.07926 0.35354 0.11277 -0.43100
O 	O 	0.44903 0.87991 0.68915 -0.42100
O 	O 	0.51498 0.98620 0.70542 -0.40500
O 	O 	0.04857 0.39265 0.01493 -0.61100
