data_crystal

_cell_length_a 14.05710
_cell_length_b 14.05710
_cell_length_c 14.05710
_cell_angle_alpha 108.35300
_cell_angle_beta  110.03300
_cell_angle_gamma 110.03300

_symmetry_space_group_name_	'P 1'
_symmetry_space_group_name_H-M	'P 1'

loop_
_symmetry_equiv_pos_as_xyz
  x,y,z

loop_
_atom_site_label
_atom_site_type_symbol
_atom_site_fract_x
_atom_site_fract_y
_atom_site_fract_z
_atom_site_charge
Cu	Cu	0.89857 0.69884 0.80027 0.85500
Cu	Cu	0.10143 0.90170 0.80027 0.82900
Cu	Cu	0.60143 0.55027 0.15170 0.85000
Cu	Cu	0.39857 0.55027 0.94884 0.86200
H 	H 	0.65710 0.54940 0.58670 0.23800
H 	H 	0.67570 0.46470 0.49920 0.23400
H 	H 	0.59950 0.51870 0.45480 0.25400
H 	H 	0.34290 0.92960 0.89230 0.20800
H 	H 	0.32430 0.82350 0.78900 0.21100
H 	H 	0.40050 0.85530 0.91920 0.23900
H 	H 	0.53730 0.33670 0.17960 0.22100
H 	H 	0.53450 0.24920 0.07350 0.21100
H 	H 	0.43610 0.20480 0.10530 0.23400
H 	H 	0.46270 0.64230 0.79940 0.22900
H 	H 	0.46550 0.53900 0.71470 0.22500
H 	H 	0.56390 0.66920 0.76870 0.24400
H 	H 	0.03730 0.92960 0.58670 0.17700
H 	H 	0.03450 0.82350 0.49920 0.18500
H 	H 	0.93610 0.85530 0.45480 0.21100
H 	H 	0.96270 0.54940 0.89230 0.25400
H 	H 	0.96550 0.46470 0.78900 0.24400
H 	H 	0.06390 0.51870 0.91920 0.27100
H 	H 	0.84290 0.64230 0.17960 0.20800
H 	H 	0.82430 0.53900 0.07350 0.19600
H 	H 	0.90050 0.66920 0.10530 0.21200
H 	H 	0.15710 0.33670 0.79940 0.24700
H 	H 	0.17570 0.24920 0.71470 0.24400
H 	H 	0.09950 0.20480 0.76870 0.27100
C 	C 	0.77510 0.63450 0.54800 0.33400
C 	C 	0.66740 0.53290 0.51970 -0.78400
C 	C 	0.22490 0.77290 0.85940 0.32400
C 	C 	0.33260 0.85230 0.86550 -0.74600
C 	C 	0.41350 0.29800 0.02290 0.26600
C 	C 	0.48680 0.26970 0.10230 -0.72100
C 	C 	0.58650 0.60940 0.88450 0.31900
C 	C 	0.51320 0.61550 0.78290 -0.75800
C 	C 	0.91350 0.77290 0.54800 0.30000
C 	C 	0.98680 0.85230 0.51970 -0.67500
C 	C 	0.08650 0.63450 0.85940 0.34800
C 	C 	0.01320 0.53290 0.86550 -0.81100
C 	C 	0.72490 0.60940 0.02290 0.25900
C 	C 	0.83260 0.61550 0.10230 -0.69600
C 	C 	0.27510 0.29800 0.88450 0.33300
C 	C 	0.16740 0.26970 0.78290 -0.79400
C 	C 	0.79920 0.67700 0.47620 -0.36200
C 	C 	0.72480 0.62940 0.35420 0.40300
C 	C 	0.20080 0.67700 0.87780 -0.37200
C 	C 	0.27520 0.62940 0.90460 0.40900
C 	C 	0.29920 0.22620 0.92700 -0.29600
C 	C 	0.22480 0.10420 0.87940 0.38300
C 	C 	0.70080 0.62780 0.92700 -0.30600
C 	C 	0.77520 0.65460 0.87940 0.38900
N 	N 	0.86820 0.70220 0.65420 -0.27100
N 	N 	0.13180 0.78600 0.83400 -0.27300
N 	N 	0.45200 0.40420 0.03600 -0.28000
N 	N 	0.54800 0.58400 0.95220 -0.24800
N 	N 	0.95200 0.78600 0.65420 -0.26800
N 	N 	0.04800 0.70220 0.83400 -0.27300
N 	N 	0.63180 0.58400 0.03600 -0.27900
N 	N 	0.36820 0.40420 0.95220 -0.24800
O 	O 	0.62300 0.53970 0.29650 -0.45300
O 	O 	0.37700 0.67350 0.91670 -0.45000
O 	O 	0.25680 0.04650 0.92350 -0.38400
O 	O 	0.74320 0.66670 0.78970 -0.44900
O 	O 	0.75680 0.67350 0.29650 -0.45600
O 	O 	0.24320 0.53970 0.91670 -0.44500
O 	O 	0.87700 0.66670 0.92350 -0.43600
O 	O 	0.12300 0.04650 0.78970 -0.39700
