data_crystal

_cell_length_a 13.81510
_cell_length_b 13.81510
_cell_length_c 13.81510
_cell_angle_alpha 105.33500
_cell_angle_beta  105.33500
_cell_angle_gamma 118.10400

_symmetry_space_group_name_	'P 1'
_symmetry_space_group_name_H-M	'P 1'

loop_
_symmetry_equiv_pos_as_xyz
  x,y,z

loop_
_atom_site_label
_atom_site_type_symbol
_atom_site_fract_x
_atom_site_fract_y
_atom_site_fract_z
_atom_site_charge
Cu	Cu	0.52117 0.62025 0.09908 0.85800
Cu	Cu	0.52117 0.42209 0.90092 0.85900
Cu	Cu	0.67209 0.27117 0.40092 0.85400
Cu	Cu	0.87025 0.27117 0.59908 0.83000
H 	H 	0.65770 0.59220 0.39150 0.25700
H 	H 	0.51190 0.51590 0.33260 0.24100
H 	H 	0.59190 0.63730 0.32260 0.24200
H 	H 	0.20070 0.26620 0.60850 0.26900
H 	H 	0.18330 0.17930 0.66740 0.24900
H 	H 	0.31470 0.26930 0.67740 0.24200
H 	H 	0.51620 0.40770 0.56550 0.25700
H 	H 	0.42930 0.26190 0.49600 0.23500
H 	H 	0.51930 0.34190 0.45460 0.23700
H 	H 	0.84220 0.95070 0.43450 0.09500
H 	H 	0.76590 0.93330 0.50400 0.08400
H 	H 	0.88730 0.06470 0.54540 0.01900
H 	H 	0.20070 0.59220 0.93450 0.27100
H 	H 	0.18330 0.51590 0.00400 0.24300
H 	H 	0.31470 0.63730 0.04540 0.23900
H 	H 	0.65770 0.26620 0.06550 0.24600
H 	H 	0.51190 0.17930 0.99600 0.23100
H 	H 	0.59190 0.26930 0.95460 0.23200
H 	H 	0.84220 0.40770 0.89150 0.22300
H 	H 	0.76590 0.26190 0.83260 0.20300
H 	H 	0.88730 0.34190 0.82260 0.19000
H 	H 	0.51620 0.95070 0.10850 0.13100
H 	H 	0.42930 0.93330 0.16740 0.11900
H 	H 	0.51930 0.06470 0.17740 0.07100
C 	C 	0.57980 0.49110 0.22210 0.33200
C 	C 	0.58590 0.56560 0.32630 -0.78800
C 	C 	0.26900 0.35770 0.77790 0.33700
C 	C 	0.23930 0.25960 0.67370 -0.79800
C 	C 	0.60770 0.32980 0.58870 0.32500
C 	C 	0.50960 0.33590 0.52030 -0.78100
C 	C 	0.74110 0.01900 0.41130 0.04300
C 	C 	0.81560 0.98930 0.47970 -0.22000
C 	C 	0.26900 0.49110 0.91130 0.33400
C 	C 	0.23930 0.56560 0.97970 -0.77200
C 	C 	0.57980 0.35770 0.08870 0.32600
C 	C 	0.58590 0.25960 0.02030 -0.77500
C 	C 	0.74110 0.32980 0.72210 0.30000
C 	C 	0.81560 0.33590 0.82630 -0.71200
C 	C 	0.60770 0.01900 0.27790 0.07300
C 	C 	0.50960 0.98930 0.17370 -0.30300
C 	C 	0.60430 0.39980 0.20450 -0.36100
C 	C 	0.63450 0.35530 0.27920 0.39900
C 	C 	0.19530 0.39980 0.79550 -0.34700
C 	C 	0.07610 0.35530 0.72080 0.39200
C 	C 	0.64980 0.35430 0.70450 -0.35100
C 	C 	0.60530 0.38450 0.77920 0.39500
C 	C 	0.64980 0.94530 0.29550 -0.09400
C 	C 	0.60530 0.82610 0.22080 0.29700
N 	N 	0.54890 0.50230 0.12780 -0.27100
N 	N 	0.37450 0.42110 0.87220 -0.27000
N 	N 	0.67110 0.29890 0.54660 -0.27400
N 	N 	0.75230 0.12450 0.45340 -0.23200
N 	N 	0.37450 0.50230 0.95340 -0.26800
N 	N 	0.54890 0.42110 0.04660 -0.27100
N 	N 	0.75230 0.29890 0.62780 -0.27400
N 	N 	0.67110 0.12450 0.37220 -0.23300
O 	O 	0.64960 0.39960 0.38020 -0.44800
O 	O 	0.01940 0.26940 0.61980 -0.39100
O 	O 	0.51940 0.39960 0.75000 -0.44300
O 	O 	0.64960 0.76940 0.25000 -0.41100
O 	O 	0.01940 0.39960 0.75000 -0.39400
O 	O 	0.64960 0.26940 0.25000 -0.44400
O 	O 	0.64960 0.39960 0.88020 -0.44600
O 	O 	0.51940 0.76940 0.11980 -0.40800
