data_crystal

_cell_length_a 13.42040
_cell_length_b 16.50760
_cell_length_c 28.12630
_cell_angle_alpha 90.00000
_cell_angle_beta  90.00000
_cell_angle_gamma 90.00000

_symmetry_space_group_name_	'P 1'
_symmetry_space_group_name_H-M	'P 1'

loop_
_symmetry_equiv_pos_as_xyz
  x,y,z

loop_
_atom_site_label
_atom_site_type_symbol
_atom_site_fract_x
_atom_site_fract_y
_atom_site_fract_z
_atom_site_charge
C 	C 	0.91640 0.03620 0.07230 0.01700
H 	H 	0.87520 0.99760 0.05530 0.02900
H 	H 	0.87440 0.06540 0.09450 0.01100
C 	C 	0.99580 0.99300 0.09830 -0.07000
H 	H 	0.96690 0.95170 0.11860 0.04900
H 	H 	0.04070 0.96690 0.07600 0.07200
C 	C 	0.12450 0.01260 0.15380 -0.03100
H 	H 	0.17120 0.98480 0.13320 0.04100
H 	H 	0.09520 0.97310 0.17520 0.06300
C 	C 	0.17700 0.07680 0.18160 -0.01100
H 	H 	0.23230 0.05300 0.19900 0.06600
H 	H 	0.20350 0.11740 0.16010 0.03800
C 	C 	0.15290 0.17730 0.24120 0.01200
H 	H 	0.17890 0.21860 0.22000 0.00900
H 	H 	0.20780 0.15610 0.25990 0.03100
C 	C 	0.07590 0.21330 0.27330 -0.03800
H 	H 	0.04690 0.17140 0.29320 0.06000
H 	H 	0.10610 0.25370 0.29380 0.04300
O 	O 	0.04900 0.05070 0.12640 -0.18300
O 	O 	0.10910 0.11380 0.21419 -0.21100
O 	O 	0.91710 0.98110 0.21170 -0.09400
O 	O 	0.86320 0.04470 0.21840 -0.16800
O 	O 	0.89770 0.92660 0.23820 -0.11500
C 	C 	0.89180 0.13660 0.01220 0.02800
H 	H 	0.84810 0.16690 0.03320 0.02500
H 	H 	0.85120 0.10000 0.99340 0.02100
C 	C 	0.94570 0.19260 0.98080 -0.04700
H 	H 	0.99140 0.16250 0.96070 0.04800
H 	H 	0.89880 0.22080 0.96040 0.04000
O 	O 	0.96060 0.09240 0.03908 -0.18500
Ag	Ag	0.94690 0.14135 0.18257 0.55200
C 	C 	0.08360 0.46380 0.07230 -0.04400
H 	H 	0.12480 0.50240 0.05530 0.05100
H 	H 	0.12560 0.43460 0.09450 0.03300
C 	C 	0.00420 0.50700 0.09830 0.06400
H 	H 	0.03310 0.54830 0.11860 0.02000
H 	H 	0.95930 0.53310 0.07600 0.01500
C 	C 	0.87550 0.48740 0.15380 0.01500
H 	H 	0.82880 0.51520 0.13320 0.02500
H 	H 	0.90480 0.52690 0.17520 0.04200
C 	C 	0.82300 0.42320 0.18160 -0.03400
H 	H 	0.76770 0.44700 0.19900 0.07400
H 	H 	0.79650 0.38260 0.16010 0.04400
C 	C 	0.84710 0.32270 0.24120 0.01500
H 	H 	0.82110 0.28140 0.22000 0.00600
H 	H 	0.79220 0.34390 0.25990 0.03000
C 	C 	0.92410 0.28670 0.27330 -0.05100
H 	H 	0.95310 0.32860 0.29320 0.05500
H 	H 	0.89390 0.24630 0.29380 0.04200
O 	O 	0.95100 0.44930 0.12640 -0.23500
O 	O 	0.89090 0.38620 0.21419 -0.21500
O 	O 	0.08290 0.51890 0.21170 -0.08700
O 	O 	0.13680 0.45530 0.21840 -0.16600
O 	O 	0.10230 0.57340 0.23820 -0.11000
C 	C 	0.10820 0.36340 0.01220 0.00800
H 	H 	0.15190 0.33310 0.03320 0.03300
H 	H 	0.14880 0.40000 0.99340 0.02800
C 	C 	0.05430 0.30740 0.98080 -0.02600
H 	H 	0.00860 0.33750 0.96070 0.05100
H 	H 	0.10120 0.27920 0.96040 0.03900
O 	O 	0.03940 0.40760 0.03908 -0.15700
Ag	Ag	0.05310 0.35865 0.18257 0.56500
C 	C 	0.08360 0.53620 0.42770 -0.04400
H 	H 	0.12480 0.49760 0.44470 0.05100
H 	H 	0.12560 0.56540 0.40550 0.03300
C 	C 	0.00420 0.49300 0.40170 0.06400
H 	H 	0.03310 0.45170 0.38140 0.02000
H 	H 	0.95930 0.46690 0.42400 0.01500
C 	C 	0.87550 0.51260 0.34620 0.01500
H 	H 	0.82880 0.48480 0.36680 0.02500
H 	H 	0.90480 0.47310 0.32480 0.04200
C 	C 	0.82300 0.57680 0.31840 -0.03400
H 	H 	0.76770 0.55300 0.30100 0.07400
H 	H 	0.79650 0.61740 0.33990 0.04400
C 	C 	0.84710 0.67730 0.25880 0.01500
H 	H 	0.82110 0.71860 0.28000 0.00600
H 	H 	0.79220 0.65610 0.24010 0.03000
C 	C 	0.92410 0.71330 0.22670 -0.05100
H 	H 	0.95310 0.67140 0.20680 0.05500
H 	H 	0.89390 0.75370 0.20620 0.04100
O 	O 	0.95100 0.55070 0.37360 -0.23500
O 	O 	0.89090 0.61380 0.28581 -0.21500
O 	O 	0.08290 0.48110 0.28830 -0.08700
O 	O 	0.13680 0.54470 0.28160 -0.16600
O 	O 	0.10230 0.42660 0.26180 -0.11000
C 	C 	0.10820 0.63660 0.48780 0.00800
H 	H 	0.15190 0.66690 0.46680 0.03300
H 	H 	0.14880 0.60000 0.50660 0.02800
C 	C 	0.05430 0.69260 0.51920 -0.02600
H 	H 	0.00860 0.66250 0.53930 0.05100
H 	H 	0.10120 0.72080 0.53960 0.03900
O 	O 	0.03940 0.59240 0.46092 -0.15700
Ag	Ag	0.05310 0.64135 0.31743 0.56500
C 	C 	0.91640 0.96380 0.42770 0.05000
H 	H 	0.87520 0.00240 0.44470 0.01700
H 	H 	0.87440 0.93460 0.40550 0.00300
C 	C 	0.99580 0.00700 0.40170 -0.09500
H 	H 	0.96690 0.04830 0.38140 0.05700
H 	H 	0.04070 0.03310 0.42400 0.08000
C 	C 	0.12450 0.98740 0.34620 -0.00000
H 	H 	0.17120 0.01520 0.36680 0.02900
H 	H 	0.09520 0.02690 0.32480 0.05200
C 	C 	0.17700 0.92320 0.31840 -0.02800
H 	H 	0.23230 0.94700 0.30100 0.07300
H 	H 	0.20350 0.88260 0.33990 0.04300
C 	C 	0.15290 0.82270 0.25880 0.00900
H 	H 	0.17890 0.78140 0.28000 0.01000
H 	H 	0.20780 0.84390 0.24010 0.03200
C 	C 	0.07590 0.78670 0.22670 -0.03600
H 	H 	0.04690 0.82860 0.20680 0.05900
H 	H 	0.10610 0.74630 0.20620 0.04200
O 	O 	0.04900 0.94930 0.37360 -0.18100
O 	O 	0.10910 0.88620 0.28581 -0.20700
O 	O 	0.91710 0.01890 0.28830 -0.09900
O 	O 	0.86320 0.95530 0.28160 -0.16300
O 	O 	0.89770 0.07340 0.26180 -0.11400
C 	C 	0.89180 0.86340 0.48780 0.03300
H 	H 	0.84810 0.83310 0.46680 0.02400
H 	H 	0.85120 0.90000 0.50660 0.02100
C 	C 	0.94570 0.80740 0.51920 -0.04900
H 	H 	0.99140 0.83750 0.53930 0.04900
H 	H 	0.89880 0.77920 0.53960 0.04100
O 	O 	0.96060 0.90760 0.46092 -0.19000
Ag	Ag	0.94690 0.85865 0.31743 0.55300
O 	O 	0.00000 0.25000 0.24429 -0.22700
O 	O 	0.00000 0.25000 0.00920 -0.14300
O 	O 	0.00000 0.75000 0.25571 -0.22800
O 	O 	-0.00000 0.75000 0.49080 -0.14200
N 	N 	0.89480 0.00000 0.25000 0.13000
N 	N 	0.10520 0.50000 0.25000 0.12900
C 	C 	0.41640 0.53620 0.57230 -0.00600
H 	H 	0.37520 0.49760 0.55530 0.03800
H 	H 	0.37440 0.56540 0.59450 0.02100
C 	C 	0.49580 0.49300 0.59830 -0.00800
H 	H 	0.46690 0.45170 0.61860 0.03700
H 	H 	0.54070 0.46690 0.57600 0.04600
C 	C 	0.62450 0.51260 0.65380 0.00000
H 	H 	0.67120 0.48480 0.63320 0.03000
H 	H 	0.59520 0.47310 0.67520 0.05000
C 	C 	0.67700 0.57680 0.68160 -0.02800
H 	H 	0.73230 0.55300 0.69900 0.07200
H 	H 	0.70350 0.61740 0.66010 0.04200
C 	C 	0.65290 0.67730 0.74120 0.00500
H 	H 	0.67890 0.71860 0.72000 0.01000
H 	H 	0.70780 0.65610 0.75990 0.03300
C 	C 	0.57590 0.71330 0.77330 -0.02800
H 	H 	0.54690 0.67140 0.79320 0.05300
H 	H 	0.60610 0.75370 0.79380 0.03800
O 	O 	0.54900 0.55070 0.62640 -0.20900
O 	O 	0.60910 0.61380 0.71419 -0.21000
O 	O 	0.41710 0.48110 0.71170 -0.09200
O 	O 	0.36320 0.54470 0.71840 -0.16600
O 	O 	0.39770 0.42660 0.73820 -0.11200
C 	C 	0.39180 0.63660 0.51220 0.01000
H 	H 	0.34810 0.66690 0.53320 0.03300
H 	H 	0.35120 0.60000 0.49340 0.02700
C 	C 	0.44570 0.69260 0.48080 -0.02000
H 	H 	0.49140 0.66250 0.46070 0.04500
H 	H 	0.39880 0.72080 0.46040 0.03500
O 	O 	0.46060 0.59240 0.53908 -0.16900
Ag	Ag	0.44690 0.64135 0.68257 0.56000
C 	C 	0.58360 0.96380 0.57230 0.01000
H 	H 	0.62480 0.00240 0.55530 0.03100
H 	H 	0.62560 0.93460 0.59450 0.01700
C 	C 	0.50420 0.00700 0.59830 -0.02200
H 	H 	0.53310 0.04830 0.61860 0.04000
H 	H 	0.45930 0.03310 0.57600 0.04900
C 	C 	0.37550 0.98740 0.65380 0.01600
H 	H 	0.32880 0.01520 0.63320 0.02300
H 	H 	0.40480 0.02690 0.67520 0.04400
C 	C 	0.32300 0.92320 0.68160 -0.03700
H 	H 	0.26770 0.94700 0.69900 0.07500
H 	H 	0.29650 0.88260 0.66010 0.04600
C 	C 	0.34710 0.82270 0.74120 0.00300
H 	H 	0.32110 0.78140 0.72000 0.01100
H 	H 	0.29220 0.84390 0.75990 0.03400
C 	C 	0.42410 0.78670 0.77330 -0.02700
H 	H 	0.45310 0.82860 0.79320 0.05200
H 	H 	0.39390 0.74630 0.79380 0.03800
O 	O 	0.45100 0.94930 0.62640 -0.20800
O 	O 	0.39090 0.88620 0.71419 -0.20700
O 	O 	0.58290 0.01890 0.71170 -0.09400
O 	O 	0.63680 0.95530 0.71840 -0.16300
O 	O 	0.60230 0.07340 0.73820 -0.11100
C 	C 	0.60820 0.86340 0.51220 0.01200
H 	H 	0.65190 0.83310 0.53320 0.03200
H 	H 	0.64880 0.90000 0.49340 0.02700
C 	C 	0.55430 0.80740 0.48080 -0.02100
H 	H 	0.50860 0.83750 0.46070 0.04600
H 	H 	0.60120 0.77920 0.46040 0.03500
O 	O 	0.53940 0.90760 0.53908 -0.17200
Ag	Ag	0.55310 0.85865 0.68257 0.56000
C 	C 	0.58360 0.03620 0.92770 -0.02200
H 	H 	0.62480 0.99760 0.94470 0.04400
H 	H 	0.62560 0.06540 0.90550 0.02500
C 	C 	0.50420 0.99300 0.90170 0.00400
H 	H 	0.53310 0.95170 0.88140 0.03300
H 	H 	0.45930 0.96690 0.92400 0.04300
C 	C 	0.37550 0.01260 0.84620 -0.01400
H 	H 	0.32880 0.98480 0.86680 0.03600
H 	H 	0.40480 0.97310 0.82480 0.05600
C 	C 	0.32300 0.07680 0.81840 -0.02100
H 	H 	0.26770 0.05300 0.80100 0.06900
H 	H 	0.29650 0.11740 0.83990 0.04100
C 	C 	0.34710 0.17730 0.75880 0.00600
H 	H 	0.32110 0.21860 0.78000 0.01100
H 	H 	0.29220 0.15610 0.74010 0.03300
C 	C 	0.42410 0.21330 0.72670 -0.02900
H 	H 	0.45310 0.17140 0.70680 0.05300
H 	H 	0.39390 0.25370 0.70620 0.03800
O 	O 	0.45100 0.05070 0.87360 -0.21000
O 	O 	0.39090 0.11380 0.78581 -0.21100
O 	O 	0.58290 0.98110 0.78830 -0.08900
O 	O 	0.63680 0.04470 0.78160 -0.16800
O 	O 	0.60230 0.92660 0.76180 -0.11200
C 	C 	0.60820 0.13660 0.98780 0.00800
H 	H 	0.65190 0.16690 0.96680 0.03300
H 	H 	0.64880 0.10000 0.00660 0.02700
C 	C 	0.55430 0.19260 0.01920 -0.01900
H 	H 	0.50860 0.16250 0.03930 0.04500
H 	H 	0.60120 0.22080 0.03960 0.03400
O 	O 	0.53940 0.09240 0.96092 -0.16700
Ag	Ag	0.55310 0.14135 0.81743 0.56000
C 	C 	0.41640 0.46380 0.92770 -0.00600
H 	H 	0.37520 0.50240 0.94470 0.03800
H 	H 	0.37440 0.43460 0.90550 0.02100
C 	C 	0.49580 0.50700 0.90170 -0.00800
H 	H 	0.46690 0.54830 0.88140 0.03700
H 	H 	0.54070 0.53310 0.92400 0.04600
C 	C 	0.62450 0.48740 0.84620 -0.00000
H 	H 	0.67120 0.51520 0.86680 0.03000
H 	H 	0.59520 0.52690 0.82480 0.05000
C 	C 	0.67700 0.42320 0.81840 -0.02800
H 	H 	0.73230 0.44700 0.80100 0.07200
H 	H 	0.70350 0.38260 0.83990 0.04200
C 	C 	0.65290 0.32270 0.75880 0.00500
H 	H 	0.67890 0.28140 0.78000 0.01000
H 	H 	0.70780 0.34390 0.74010 0.03300
C 	C 	0.57590 0.28670 0.72670 -0.02800
H 	H 	0.54690 0.32860 0.70680 0.05300
H 	H 	0.60610 0.24630 0.70620 0.03800
O 	O 	0.54900 0.44930 0.87360 -0.20900
O 	O 	0.60910 0.38620 0.78581 -0.21000
O 	O 	0.41710 0.51890 0.78830 -0.09200
O 	O 	0.36320 0.45530 0.78160 -0.16600
O 	O 	0.39770 0.57340 0.76180 -0.11200
C 	C 	0.39180 0.36340 0.98780 0.01000
H 	H 	0.34810 0.33310 0.96680 0.03300
H 	H 	0.35120 0.40000 0.00660 0.02700
C 	C 	0.44570 0.30740 0.01920 -0.02000
H 	H 	0.49140 0.33750 0.03930 0.04500
H 	H 	0.39880 0.27920 0.03960 0.03500
O 	O 	0.46060 0.40760 0.96092 -0.16900
Ag	Ag	0.44690 0.35865 0.81743 0.56000
O 	O 	0.50000 0.75000 0.74429 -0.24400
O 	O 	0.50000 0.75000 0.50920 -0.15900
O 	O 	0.50000 0.25000 0.75571 -0.24400
O 	O 	0.50000 0.25000 0.99080 -0.16000
N 	N 	0.60520 0.00000 0.75000 0.12800
N 	N 	0.39480 0.50000 0.75000 0.13100
C 	C 	0.08360 0.96380 0.92770 -0.02800
H 	H 	0.12480 0.00240 0.94470 0.04400
H 	H 	0.12560 0.93460 0.90550 0.02900
C 	C 	0.00420 0.00700 0.90170 0.05000
H 	H 	0.03310 0.04830 0.88140 0.02400
H 	H 	0.95930 0.03310 0.92400 0.01900
C 	C 	0.87550 0.98740 0.84620 0.03000
H 	H 	0.82880 0.01520 0.86680 0.01900
H 	H 	0.90480 0.02690 0.82480 0.03600
C 	C 	0.82300 0.92320 0.81840 -0.04200
H 	H 	0.76770 0.94700 0.80100 0.07700
H 	H 	0.79650 0.88260 0.83990 0.04700
C 	C 	0.84710 0.82270 0.75880 0.01400
H 	H 	0.82110 0.78140 0.78000 0.00700
H 	H 	0.79220 0.84390 0.74010 0.03000
C 	C 	0.92410 0.78670 0.72670 -0.05100
H 	H 	0.95310 0.82860 0.70680 0.05400
H 	H 	0.89390 0.74630 0.70620 0.04100
O 	O 	0.95100 0.94930 0.87360 -0.23400
O 	O 	0.89090 0.88620 0.78581 -0.21300
O 	O 	0.08290 0.01890 0.78830 -0.08900
O 	O 	0.13680 0.95530 0.78160 -0.16300
O 	O 	0.10230 0.07340 0.76180 -0.10900
C 	C 	0.10820 0.86340 0.98780 0.01000
H 	H 	0.15190 0.83310 0.96680 0.03300
H 	H 	0.14880 0.90000 0.00660 0.02800
C 	C 	0.05430 0.80740 0.01920 -0.02700
H 	H 	0.00860 0.83750 0.03930 0.05100
H 	H 	0.10120 0.77920 0.03960 0.03900
O 	O 	0.03940 0.90760 0.96092 -0.16000
Ag	Ag	0.05310 0.85865 0.81743 0.56500
C 	C 	0.91640 0.53620 0.92770 0.03500
H 	H 	0.87520 0.49760 0.94470 0.02300
H 	H 	0.87440 0.56540 0.90550 0.00700
C 	C 	0.99580 0.49300 0.90170 -0.08300
H 	H 	0.96690 0.45170 0.88140 0.05400
H 	H 	0.04070 0.46690 0.92400 0.07700
C 	C 	0.12450 0.51260 0.84620 -0.01500
H 	H 	0.17120 0.48480 0.86680 0.03500
H 	H 	0.09520 0.47310 0.82480 0.05800
C 	C 	0.17700 0.57680 0.81840 -0.02000
H 	H 	0.23230 0.55300 0.80100 0.06900
H 	H 	0.20350 0.61740 0.83990 0.04100
C 	C 	0.15290 0.67730 0.75880 0.01000
H 	H 	0.17890 0.71860 0.78000 0.00900
H 	H 	0.20780 0.65610 0.74010 0.03100
C 	C 	0.07590 0.71330 0.72670 -0.03700
H 	H 	0.04690 0.67140 0.70680 0.06000
H 	H 	0.10610 0.75370 0.70620 0.04300
O 	O 	0.04900 0.55070 0.87360 -0.18200
O 	O 	0.10910 0.61380 0.78581 -0.20900
O 	O 	0.91710 0.48110 0.78830 -0.09700
O 	O 	0.86320 0.54470 0.78160 -0.16600
O 	O 	0.89770 0.42660 0.76180 -0.11500
C 	C 	0.89180 0.63660 0.98780 0.03100
H 	H 	0.84810 0.66690 0.96680 0.02500
H 	H 	0.85120 0.60000 0.00660 0.02100
C 	C 	0.94570 0.69260 0.01920 -0.04800
H 	H 	0.99140 0.66250 0.03930 0.04900
H 	H 	0.89880 0.72080 0.03960 0.04000
O 	O 	0.96060 0.59240 0.96092 -0.18700
Ag	Ag	0.94690 0.64135 0.81743 0.55200
C 	C 	0.91640 0.46380 0.57230 0.03500
H 	H 	0.87520 0.50240 0.55530 0.02300
H 	H 	0.87440 0.43460 0.59450 0.00700
C 	C 	0.99580 0.50700 0.59830 -0.08300
H 	H 	0.96690 0.54830 0.61860 0.05400
H 	H 	0.04070 0.53310 0.57600 0.07700
C 	C 	0.12450 0.48740 0.65380 -0.01500
H 	H 	0.17120 0.51520 0.63320 0.03500
H 	H 	0.09520 0.52690 0.67520 0.05800
C 	C 	0.17700 0.42320 0.68160 -0.02000
H 	H 	0.23230 0.44700 0.69900 0.06900
H 	H 	0.20350 0.38260 0.66010 0.04100
C 	C 	0.15290 0.32270 0.74120 0.01100
H 	H 	0.17890 0.28140 0.72000 0.00900
H 	H 	0.20780 0.34390 0.75990 0.03100
C 	C 	0.07590 0.28670 0.77330 -0.03700
H 	H 	0.04690 0.32860 0.79320 0.06000
H 	H 	0.10610 0.24630 0.79380 0.04300
O 	O 	0.04900 0.44930 0.62640 -0.18200
O 	O 	0.10910 0.38620 0.71419 -0.20900
O 	O 	0.91710 0.51890 0.71170 -0.09700
O 	O 	0.86320 0.45530 0.71840 -0.16600
O 	O 	0.89770 0.57340 0.73820 -0.11500
C 	C 	0.89180 0.36340 0.51220 0.03100
H 	H 	0.84810 0.33310 0.53320 0.02500
H 	H 	0.85120 0.40000 0.49340 0.02100
C 	C 	0.94570 0.30740 0.48080 -0.04800
H 	H 	0.99140 0.33750 0.46070 0.04800
H 	H 	0.89880 0.27920 0.46040 0.04000
O 	O 	0.96060 0.40760 0.53908 -0.18700
Ag	Ag	0.94690 0.35865 0.68257 0.55200
C 	C 	0.08360 0.03620 0.57230 -0.05900
H 	H 	0.12480 0.99760 0.55530 0.05800
H 	H 	0.12560 0.06540 0.59450 0.03700
C 	C 	0.00420 0.99300 0.59830 0.07600
H 	H 	0.03310 0.95170 0.61860 0.01700
H 	H 	0.95930 0.96690 0.57600 0.01200
C 	C 	0.87550 0.01260 0.65380 -0.00000
H 	H 	0.82880 0.98480 0.63320 0.03200
H 	H 	0.90480 0.97310 0.67520 0.04900
C 	C 	0.82300 0.07680 0.68160 -0.02600
H 	H 	0.76770 0.05300 0.69900 0.07000
H 	H 	0.79650 0.11740 0.66010 0.04200
C 	C 	0.84710 0.17730 0.74120 0.01700
H 	H 	0.82110 0.21860 0.72000 0.00600
H 	H 	0.79220 0.15610 0.75990 0.02900
C 	C 	0.92410 0.21330 0.77330 -0.05200
H 	H 	0.95310 0.17140 0.79320 0.05500
H 	H 	0.89390 0.25370 0.79380 0.04200
O 	O 	0.95100 0.05070 0.62640 -0.23600
O 	O 	0.89090 0.11380 0.71419 -0.21700
O 	O 	0.08290 0.98110 0.71170 -0.08400
O 	O 	0.13680 0.04470 0.71840 -0.16800
O 	O 	0.10230 0.92660 0.73820 -0.11000
C 	C 	0.10820 0.13660 0.51220 0.00600
H 	H 	0.15190 0.16690 0.53320 0.03400
H 	H 	0.14880 0.10000 0.49340 0.02700
C 	C 	0.05430 0.19260 0.48080 -0.02500
H 	H 	0.00860 0.16250 0.46070 0.05000
H 	H 	0.10120 0.22080 0.46040 0.03800
O 	O 	0.03940 0.09240 0.53908 -0.15500
Ag	Ag	0.05310 0.14135 0.68257 0.56500
O 	O 	-0.00000 0.75000 0.75571 -0.22800
O 	O 	-0.00000 0.75000 0.99080 -0.14200
O 	O 	-0.00000 0.25000 0.74429 -0.22700
O 	O 	-0.00000 0.25000 0.50920 -0.14300
N 	N 	0.10520 0.00000 0.75000 0.12700
N 	N 	0.89480 0.50000 0.75000 0.13200
C 	C 	0.58360 0.46380 0.42770 -0.00600
H 	H 	0.62480 0.50240 0.44470 0.03800
H 	H 	0.62560 0.43460 0.40550 0.02100
C 	C 	0.50420 0.50700 0.40170 -0.00800
H 	H 	0.53310 0.54830 0.38140 0.03700
H 	H 	0.45930 0.53310 0.42400 0.04600
C 	C 	0.37550 0.48740 0.34620 0.00100
H 	H 	0.32880 0.51520 0.36680 0.03000
H 	H 	0.40480 0.52690 0.32480 0.05000
C 	C 	0.32300 0.42320 0.31840 -0.02900
H 	H 	0.26770 0.44700 0.30100 0.07200
H 	H 	0.29650 0.38260 0.33990 0.04300
C 	C 	0.34710 0.32270 0.25880 0.00400
H 	H 	0.32110 0.28140 0.28000 0.01100
H 	H 	0.29220 0.34390 0.24010 0.03300
C 	C 	0.42410 0.28670 0.22670 -0.02800
H 	H 	0.45310 0.32860 0.20680 0.05300
H 	H 	0.39390 0.24630 0.20620 0.03800
O 	O 	0.45100 0.44930 0.37360 -0.20900
O 	O 	0.39090 0.38620 0.28581 -0.20900
O 	O 	0.58290 0.51890 0.28830 -0.09200
O 	O 	0.63680 0.45530 0.28160 -0.16600
O 	O 	0.60230 0.57340 0.26180 -0.11200
C 	C 	0.60820 0.36340 0.48780 0.01000
H 	H 	0.65190 0.33310 0.46680 0.03200
H 	H 	0.64880 0.40000 0.50660 0.02700
C 	C 	0.55430 0.30740 0.51920 -0.02000
H 	H 	0.50860 0.33750 0.53930 0.04500
H 	H 	0.60120 0.27920 0.53960 0.03400
O 	O 	0.53940 0.40760 0.46092 -0.16900
Ag	Ag	0.55310 0.35865 0.31743 0.56000
C 	C 	0.41640 0.03620 0.42770 -0.02200
H 	H 	0.37520 0.99760 0.44470 0.04500
H 	H 	0.37440 0.06540 0.40550 0.02500
C 	C 	0.49580 0.99300 0.40170 0.00400
H 	H 	0.46690 0.95170 0.38140 0.03300
H 	H 	0.54070 0.96690 0.42400 0.04300
C 	C 	0.62450 0.01260 0.34620 -0.01500
H 	H 	0.67120 0.98480 0.36680 0.03700
H 	H 	0.59520 0.97310 0.32480 0.05700
C 	C 	0.67700 0.07680 0.31840 -0.01900
H 	H 	0.73230 0.05300 0.30100 0.06800
H 	H 	0.70350 0.11740 0.33990 0.03900
C 	C 	0.65290 0.17730 0.25880 0.00600
H 	H 	0.67890 0.21860 0.28000 0.01000
H 	H 	0.70780 0.15610 0.24010 0.03200
C 	C 	0.57590 0.21330 0.22670 -0.02900
H 	H 	0.54690 0.17140 0.20680 0.05300
H 	H 	0.60610 0.25370 0.20620 0.03800
O 	O 	0.54900 0.05070 0.37360 -0.21000
O 	O 	0.60910 0.11380 0.28581 -0.21200
O 	O 	0.41710 0.98110 0.28830 -0.08900
O 	O 	0.36320 0.04470 0.28160 -0.16800
O 	O 	0.39770 0.92660 0.26180 -0.11200
C 	C 	0.39180 0.13660 0.48780 0.00800
H 	H 	0.34810 0.16690 0.46680 0.03300
H 	H 	0.35120 0.10000 0.50660 0.02700
C 	C 	0.44570 0.19260 0.51920 -0.01900
H 	H 	0.49140 0.16250 0.53930 0.04400
H 	H 	0.39880 0.22080 0.53960 0.03500
O 	O 	0.46060 0.09240 0.46092 -0.16700
Ag	Ag	0.44690 0.14135 0.31743 0.56000
C 	C 	0.41640 0.96380 0.07230 0.01000
H 	H 	0.37520 0.00240 0.05530 0.03100
H 	H 	0.37440 0.93460 0.09450 0.01700
C 	C 	0.49580 0.00700 0.09830 -0.02200
H 	H 	0.46690 0.04830 0.11860 0.04100
H 	H 	0.54070 0.03310 0.07600 0.04900
C 	C 	0.62450 0.98740 0.15380 0.01500
H 	H 	0.67120 0.01520 0.13320 0.02400
H 	H 	0.59520 0.02690 0.17520 0.04400
C 	C 	0.67700 0.92320 0.18160 -0.03600
H 	H 	0.73230 0.94700 0.19900 0.07500
H 	H 	0.70350 0.88260 0.16010 0.04400
C 	C 	0.65290 0.82270 0.24120 0.00400
H 	H 	0.67890 0.78140 0.22000 0.01100
H 	H 	0.70780 0.84390 0.25990 0.03300
C 	C 	0.57590 0.78670 0.27330 -0.02700
H 	H 	0.54690 0.82860 0.29320 0.05200
H 	H 	0.60610 0.74630 0.29380 0.03700
O 	O 	0.54900 0.94930 0.12640 -0.20700
O 	O 	0.60910 0.88620 0.21419 -0.20800
O 	O 	0.41710 0.01890 0.21170 -0.09400
O 	O 	0.36320 0.95530 0.21840 -0.16300
O 	O 	0.39770 0.07340 0.23820 -0.11100
C 	C 	0.39180 0.86340 0.01220 0.01200
H 	H 	0.34810 0.83310 0.03320 0.03200
H 	H 	0.35120 0.90000 0.99340 0.02700
C 	C 	0.44570 0.80740 0.98080 -0.02100
H 	H 	0.49140 0.83750 0.96070 0.04600
H 	H 	0.39880 0.77920 0.96040 0.03500
O 	O 	0.46060 0.90760 0.03908 -0.17200
Ag	Ag	0.44690 0.85865 0.18257 0.56000
C 	C 	0.58360 0.53620 0.07230 -0.00600
H 	H 	0.62480 0.49760 0.05530 0.03800
H 	H 	0.62560 0.56540 0.09450 0.02100
C 	C 	0.50420 0.49300 0.09830 -0.00800
H 	H 	0.53310 0.45170 0.11860 0.03700
H 	H 	0.45930 0.46690 0.07600 0.04600
C 	C 	0.37550 0.51260 0.15380 0.00100
H 	H 	0.32880 0.48480 0.13320 0.03000
H 	H 	0.40480 0.47310 0.17520 0.05000
C 	C 	0.32300 0.57680 0.18160 -0.02900
H 	H 	0.26770 0.55300 0.19900 0.07200
H 	H 	0.29650 0.61740 0.16010 0.04400
C 	C 	0.34710 0.67730 0.24120 0.00400
H 	H 	0.32110 0.71860 0.22000 0.01100
H 	H 	0.29220 0.65610 0.25990 0.03300
C 	C 	0.42410 0.71330 0.27330 -0.02800
H 	H 	0.45310 0.67140 0.29320 0.05300
H 	H 	0.39390 0.75370 0.29380 0.03800
O 	O 	0.45100 0.55070 0.12640 -0.20900
O 	O 	0.39090 0.61380 0.21419 -0.20900
O 	O 	0.58290 0.48110 0.21170 -0.09200
O 	O 	0.63680 0.54470 0.21840 -0.16600
O 	O 	0.60230 0.42660 0.23820 -0.11200
C 	C 	0.60820 0.63660 0.01220 0.01000
H 	H 	0.65190 0.66690 0.03320 0.03200
H 	H 	0.64880 0.60000 0.99340 0.02700
C 	C 	0.55430 0.69260 0.98080 -0.02000
H 	H 	0.50860 0.66250 0.96070 0.04500
H 	H 	0.60120 0.72080 0.96040 0.03500
O 	O 	0.53940 0.59240 0.03908 -0.16900
Ag	Ag	0.55310 0.64135 0.18257 0.56000
O 	O 	0.50000 0.25000 0.25571 -0.24400
O 	O 	0.50000 0.25000 0.49080 -0.16000
O 	O 	0.50000 0.75000 0.24429 -0.24400
O 	O 	0.50000 0.75000 0.00920 -0.15900
N 	N 	0.60520 0.50000 0.25000 0.13100
N 	N 	0.39480 0.00000 0.25000 0.12800
