data_crystal

_cell_length_a 14.85300
_cell_length_b 17.01000
_cell_length_c 14.53800
_cell_angle_alpha 90.00000
_cell_angle_beta  120.72000
_cell_angle_gamma 90.00000

_symmetry_space_group_name_	'P 1'
_symmetry_space_group_name_H-M	'P 1'

loop_
_symmetry_equiv_pos_as_xyz
  x,y,z

loop_
_atom_site_label
_atom_site_type_symbol
_atom_site_fract_x
_atom_site_fract_y
_atom_site_fract_z
_atom_site_charge
Br	Br	0.42502 0.89335 0.31346 -0.21500
Br	Br	0.33001 0.34782 0.11135 -0.22500
Co	Co	0.09221 0.12065 0.20785 1.18300
N 	N 	0.17630 0.04450 0.16380 -0.19000
N 	N 	0.21570 0.20580 0.25600 -0.19000
O 	O 	0.17030 0.92230 0.86480 -0.40100
O 	O 	0.02410 0.96350 0.86100 -0.38900
O 	O 	0.51070 0.32660 0.55120 -0.37700
O 	O 	0.40830 0.24000 0.57260 -0.28500
H 	H 	0.04660 0.22350 0.31110 0.24500
C 	C 	0.31150 0.94940 0.20560 0.13200
C 	C 	0.26290 0.00540 0.23590 -0.02700
H 	H 	0.29180 0.01630 0.30980 0.07500
C 	C 	0.13460 0.02600 0.05920 0.05200
H 	H 	0.07160 0.05110 0.00800 0.04900
C 	C 	0.17990 0.97190 0.02360 -0.04700
C 	C 	0.27160 0.93210 0.09830 -0.06800
H 	H 	0.30470 0.89510 0.07620 0.10100
C 	C 	0.11970 0.95140 0.90440 0.36400
C 	C 	0.31440 0.29460 0.21700 0.13700
C 	C 	0.23370 0.24250 0.18500 -0.02800
H 	H 	0.18940 0.23190 0.11090 0.08100
C 	C 	0.28060 0.21870 0.35960 0.04500
H 	H 	0.26830 0.19280 0.41000 0.04100
C 	C 	0.36630 0.26910 0.39660 -0.04100
C 	C 	0.38430 0.30820 0.32360 -0.07600
H 	H 	0.44220 0.34270 0.34630 0.10500
C 	C 	0.43590 0.27890 0.51750 0.32900
Br	Br	0.92502 0.39335 0.31346 -0.24100
Br	Br	0.83001 0.84782 0.11135 -0.23900
Co	Co	0.59221 0.62065 0.20785 1.17800
N 	N 	0.67630 0.54450 0.16380 -0.19400
N 	N 	0.71570 0.70580 0.25600 -0.19000
O 	O 	0.67030 0.42230 0.86480 -0.40600
O 	O 	0.52410 0.46350 0.86100 -0.41100
O 	O 	0.01070 0.82660 0.55120 -0.33500
O 	O 	0.90830 0.74000 0.57260 -0.27900
H 	H 	0.54660 0.72350 0.31110 0.24800
C 	C 	0.81150 0.44940 0.20560 0.13000
C 	C 	0.76290 0.50540 0.23590 -0.02800
H 	H 	0.79180 0.51630 0.30980 0.07200
C 	C 	0.63460 0.52600 0.05920 0.05300
H 	H 	0.57160 0.55110 0.00800 0.04100
C 	C 	0.67990 0.47190 0.02360 -0.05600
C 	C 	0.77160 0.43210 0.09830 -0.06800
H 	H 	0.80470 0.39510 0.07620 0.09700
C 	C 	0.61970 0.45140 0.90440 0.36900
C 	C 	0.81440 0.79460 0.21700 0.13700
C 	C 	0.73370 0.74250 0.18500 -0.03200
H 	H 	0.68940 0.73190 0.11090 0.07900
C 	C 	0.78060 0.71870 0.35960 0.03800
H 	H 	0.76830 0.69280 0.41000 0.04200
C 	C 	0.86630 0.76910 0.39660 -0.03200
C 	C 	0.88430 0.80820 0.32360 -0.08500
H 	H 	0.94220 0.84270 0.34630 0.09500
C 	C 	0.93590 0.77890 0.51750 0.28000
Br	Br	0.57498 0.89335 0.18654 -0.21400
Br	Br	0.66999 0.34782 0.38865 -0.22900
Co	Co	0.90779 0.12065 0.29215 1.16700
N 	N 	0.82370 0.04450 0.33620 -0.19600
N 	N 	0.78430 0.20580 0.24400 -0.19200
O 	O 	0.82970 0.92230 0.63520 -0.40900
O 	O 	0.97590 0.96350 0.63900 -0.43600
O 	O 	0.48930 0.32660 0.94880 -0.37700
O 	O 	0.59170 0.24000 0.92740 -0.28500
H 	H 	0.95340 0.22350 0.18890 0.21500
C 	C 	0.68850 0.94940 0.29440 0.13100
C 	C 	0.73710 0.00540 0.26410 -0.02800
H 	H 	0.70820 0.01630 0.19020 0.07400
C 	C 	0.86540 0.02600 0.44080 0.05200
H 	H 	0.92840 0.05110 0.49200 0.03400
C 	C 	0.82010 0.97190 0.47640 -0.05500
C 	C 	0.72840 0.93210 0.40170 -0.06600
H 	H 	0.69530 0.89510 0.42380 0.10100
C 	C 	0.88030 0.95140 0.59560 0.36800
C 	C 	0.68560 0.29460 0.28300 0.13500
C 	C 	0.76630 0.24250 0.31500 -0.02900
H 	H 	0.81060 0.23190 0.38910 0.07700
C 	C 	0.71940 0.21870 0.14040 0.04600
H 	H 	0.73170 0.19280 0.09000 0.03900
C 	C 	0.63370 0.26910 0.10340 -0.04500
C 	C 	0.61570 0.30820 0.17640 -0.07400
H 	H 	0.55780 0.34270 0.15370 0.10300
C 	C 	0.56410 0.27890 0.98250 0.33300
Br	Br	0.07498 0.39335 0.18654 -0.18700
Br	Br	0.16999 0.84782 0.38865 -0.21400
Co	Co	0.40779 0.62065 0.29215 1.17800
N 	N 	0.32370 0.54450 0.33620 -0.19300
N 	N 	0.28430 0.70580 0.24400 -0.19200
O 	O 	0.32970 0.42230 0.63520 -0.40300
O 	O 	0.47590 0.46350 0.63900 -0.41100
O 	O 	0.98930 0.82660 0.94880 -0.41800
O 	O 	0.09170 0.74000 0.92740 -0.28700
H 	H 	0.45340 0.72350 0.18890 0.24800
C 	C 	0.18850 0.44940 0.29440 0.13100
C 	C 	0.23710 0.50540 0.26410 -0.02400
H 	H 	0.20820 0.51630 0.19020 0.07700
C 	C 	0.36540 0.52600 0.44080 0.05300
H 	H 	0.42840 0.55110 0.49200 0.04200
C 	C 	0.32010 0.47190 0.47640 -0.05000
C 	C 	0.22840 0.43210 0.40170 -0.06500
H 	H 	0.19530 0.39510 0.42380 0.10500
C 	C 	0.38030 0.45140 0.59560 0.36600
C 	C 	0.18560 0.79460 0.28300 0.13600
C 	C 	0.26630 0.74250 0.31500 -0.02600
H 	H 	0.31060 0.73190 0.38910 0.07900
C 	C 	0.21940 0.71870 0.14040 0.05200
H 	H 	0.23170 0.69280 0.09000 0.03900
C 	C 	0.13370 0.76910 0.10340 -0.05100
C 	C 	0.11570 0.80820 0.17640 -0.06600
H 	H 	0.05780 0.84270 0.15370 0.11400
C 	C 	0.06410 0.77890 0.98250 0.37700
Br	Br	0.57498 0.10665 0.68654 -0.21400
Br	Br	0.66999 0.65218 0.88865 -0.22700
Co	Co	0.90779 0.87935 0.79215 1.16800
N 	N 	0.82370 0.95550 0.83620 -0.19500
N 	N 	0.78430 0.79420 0.74400 -0.19200
O 	O 	0.82970 0.07770 0.13520 -0.40900
O 	O 	0.97590 0.03650 0.13900 -0.43600
O 	O 	0.48930 0.67340 0.44880 -0.37700
O 	O 	0.59170 0.76000 0.42740 -0.28500
H 	H 	0.95340 0.77650 0.68890 0.21600
C 	C 	0.68850 0.05060 0.79440 0.13200
C 	C 	0.73710 0.99460 0.76410 -0.02800
H 	H 	0.70820 0.98370 0.69020 0.07500
C 	C 	0.86540 0.97400 0.94080 0.04900
H 	H 	0.92840 0.94890 0.99200 0.03600
C 	C 	0.82010 0.02810 0.97640 -0.04800
C 	C 	0.72840 0.06790 0.90170 -0.06900
H 	H 	0.69530 0.10490 0.92380 0.10300
C 	C 	0.88030 0.04860 0.09560 0.36400
C 	C 	0.68560 0.70540 0.78300 0.13600
C 	C 	0.76630 0.75750 0.81500 -0.02900
H 	H 	0.81060 0.76810 0.88910 0.07800
C 	C 	0.71940 0.78130 0.64040 0.04400
H 	H 	0.73170 0.80720 0.59000 0.04100
C 	C 	0.63370 0.73090 0.60340 -0.04000
C 	C 	0.61570 0.69180 0.67640 -0.07600
H 	H 	0.55780 0.65730 0.65370 0.10500
C 	C 	0.56410 0.72110 0.48250 0.32900
Br	Br	0.07498 0.60665 0.68654 -0.18700
Br	Br	0.16999 0.15218 0.88865 -0.21200
Co	Co	0.40779 0.37935 0.79215 1.17800
N 	N 	0.32370 0.45550 0.83620 -0.19200
N 	N 	0.28430 0.29420 0.74400 -0.19200
O 	O 	0.32970 0.57770 0.13520 -0.40200
O 	O 	0.47590 0.53650 0.13900 -0.41100
O 	O 	0.98930 0.17340 0.44880 -0.42000
O 	O 	0.09170 0.26000 0.42740 -0.28700
H 	H 	0.45340 0.27650 0.68890 0.24800
C 	C 	0.18850 0.55060 0.79440 0.13200
C 	C 	0.23710 0.49460 0.76410 -0.02500
H 	H 	0.20820 0.48370 0.69020 0.07700
C 	C 	0.36540 0.47400 0.94080 0.05200
H 	H 	0.42840 0.44890 0.99200 0.04400
C 	C 	0.32010 0.52810 0.97640 -0.04600
C 	C 	0.22840 0.56790 0.90170 -0.06600
H 	H 	0.19530 0.60490 0.92380 0.10600
C 	C 	0.38030 0.54860 0.09560 0.36300
C 	C 	0.18560 0.20540 0.78300 0.13700
C 	C 	0.26630 0.25750 0.81500 -0.02600
H 	H 	0.31060 0.26810 0.88910 0.08000
C 	C 	0.21940 0.28130 0.64040 0.05200
H 	H 	0.23170 0.30720 0.59000 0.04000
C 	C 	0.13370 0.23090 0.60340 -0.04900
C 	C 	0.11570 0.19180 0.67640 -0.06700
H 	H 	0.05780 0.15730 0.65370 0.11500
C 	C 	0.06410 0.22110 0.48250 0.37700
Br	Br	0.42502 0.10665 0.81346 -0.21300
Br	Br	0.33001 0.65218 0.61135 -0.22300
Co	Co	0.09221 0.87935 0.70785 1.18300
N 	N 	0.17630 0.95550 0.66380 -0.19000
N 	N 	0.21570 0.79420 0.75600 -0.19000
O 	O 	0.17030 0.07770 0.36480 -0.40100
O 	O 	0.02410 0.03650 0.36100 -0.38800
O 	O 	0.51070 0.67340 0.05120 -0.37700
O 	O 	0.40830 0.76000 0.07260 -0.28500
H 	H 	0.04660 0.77650 0.81110 0.24500
C 	C 	0.31150 0.05060 0.70560 0.13200
C 	C 	0.26290 0.99460 0.73590 -0.02700
H 	H 	0.29180 0.98370 0.80980 0.07500
C 	C 	0.13460 0.97400 0.55920 0.05300
H 	H 	0.07160 0.94890 0.50800 0.05100
C 	C 	0.17990 0.02810 0.52360 -0.04500
C 	C 	0.27160 0.06790 0.59830 -0.06900
H 	H 	0.30470 0.10490 0.57620 0.10200
C 	C 	0.11970 0.04860 0.40440 0.36200
C 	C 	0.31440 0.70540 0.71700 0.13700
C 	C 	0.23370 0.75750 0.68500 -0.02900
H 	H 	0.18940 0.76810 0.61090 0.08200
C 	C 	0.28060 0.78130 0.85960 0.04400
H 	H 	0.26830 0.80720 0.91000 0.04200
C 	C 	0.36630 0.73090 0.89660 -0.03700
C 	C 	0.38430 0.69180 0.82360 -0.07700
H 	H 	0.44220 0.65730 0.84630 0.10600
C 	C 	0.43590 0.72110 0.01750 0.32600
Br	Br	0.92502 0.60665 0.81346 -0.24000
Br	Br	0.83001 0.15218 0.61135 -0.23700
Co	Co	0.59221 0.37935 0.70785 1.17800
N 	N 	0.67630 0.45550 0.66380 -0.19300
N 	N 	0.71570 0.29420 0.75600 -0.18900
O 	O 	0.67030 0.57770 0.36480 -0.40500
O 	O 	0.52410 0.53650 0.36100 -0.41100
O 	O 	0.01070 0.17340 0.05120 -0.33500
O 	O 	0.90830 0.26000 0.07260 -0.27900
H 	H 	0.54660 0.27650 0.81110 0.24800
C 	C 	0.81150 0.55060 0.70560 0.13100
C 	C 	0.76290 0.49460 0.73590 -0.02900
H 	H 	0.79180 0.48370 0.80980 0.07300
C 	C 	0.63460 0.47400 0.55920 0.05200
H 	H 	0.57160 0.44890 0.50800 0.04200
C 	C 	0.67990 0.52810 0.52360 -0.05100
C 	C 	0.77160 0.56790 0.59830 -0.06900
H 	H 	0.80470 0.60490 0.57620 0.09800
C 	C 	0.61970 0.54860 0.40440 0.36600
C 	C 	0.81440 0.20540 0.71700 0.13800
C 	C 	0.73370 0.25750 0.68500 -0.03200
H 	H 	0.68940 0.26810 0.61090 0.08000
C 	C 	0.78060 0.28130 0.85960 0.03600
H 	H 	0.76830 0.30720 0.91000 0.04400
C 	C 	0.86630 0.23090 0.89660 -0.02600
C 	C 	0.88430 0.19180 0.82360 -0.08700
H 	H 	0.94220 0.15730 0.84630 0.09700
C 	C 	0.93590 0.22110 0.01750 0.27500
O 	O 	-0.00000 0.18920 0.25000 -0.63400
O 	O 	0.50000 0.68920 0.25000 -0.67900
O 	O 	0.00000 0.81080 0.75000 -0.63500
O 	O 	0.50000 0.31080 0.75000 -0.67900
