data_crystal

_cell_length_a 7.63740
_cell_length_b 10.46700
_cell_length_c 30.49200
_cell_angle_alpha 99.05000
_cell_angle_beta  90.00000
_cell_angle_gamma 90.00000

_symmetry_space_group_name_	'P 1'
_symmetry_space_group_name_H-M	'P 1'

loop_
_symmetry_equiv_pos_as_xyz
  x,y,z

loop_
_atom_site_label
_atom_site_type_symbol
_atom_site_fract_x
_atom_site_fract_y
_atom_site_fract_z
_atom_site_charge
Nd	Nd	0.87182 0.55179 0.76810 2.41300
Nd	Nd	0.37182 0.44821 0.73190 2.37400
Nd	Nd	0.12818 0.44821 0.23190 2.36700
Nd	Nd	0.62818 0.55179 0.26810 2.39000
Co	Co	0.94619 0.71369 0.13011 1.16400
Co	Co	0.44619 0.28631 0.36989 1.15900
Co	Co	0.05381 0.28631 0.86989 1.15100
Co	Co	0.55381 0.71369 0.63011 1.16000
Co	Co	-0.00000 0.00000 -0.00000 1.12500
Co	Co	0.50000 0.00000 0.50000 1.14400
H 	H 	0.05520 0.75650 0.91830 0.06200
H 	H 	0.65090 0.79970 0.87780 0.07000
H 	H 	0.37810 0.12720 0.98580 0.02900
H 	H 	0.31770 0.07770 0.21700 0.06700
H 	H 	0.92540 0.02510 0.18610 0.07800
H 	H 	0.52940 0.68950 0.12420 -0.00800
H 	H 	0.60700 0.03510 0.93770 0.11100
H 	H 	0.31190 0.83460 0.16010 0.13300
H 	H 	0.55520 0.24350 0.58170 0.05000
H 	H 	0.15090 0.20030 0.62220 0.07500
H 	H 	0.87810 0.87280 0.51420 -0.02700
H 	H 	0.81770 0.92230 0.28300 0.04400
H 	H 	0.42540 0.97490 0.31390 0.06900
H 	H 	0.02940 0.31050 0.37580 -0.00400
H 	H 	0.10700 0.96490 0.56230 0.19400
H 	H 	0.81190 0.16540 0.33990 0.12000
H 	H 	0.94480 0.24350 0.08170 0.06100
H 	H 	0.34910 0.20030 0.12220 0.05500
H 	H 	0.62190 0.87280 0.01420 -0.02900
H 	H 	0.68230 0.92230 0.78300 0.05100
H 	H 	0.07460 0.97490 0.81390 0.06200
H 	H 	0.47060 0.31050 0.87580 -0.00400
H 	H 	0.39300 0.96490 0.06230 0.18500
H 	H 	0.68810 0.16540 0.83990 0.12300
H 	H 	0.44480 0.75650 0.41830 0.06500
H 	H 	0.84910 0.79970 0.37780 0.06600
H 	H 	0.12190 0.12720 0.48580 0.02300
H 	H 	0.18230 0.07770 0.71700 0.08800
H 	H 	0.57460 0.02510 0.68610 0.06400
H 	H 	0.97060 0.68950 0.62420 -0.00700
H 	H 	0.89300 0.03510 0.43770 0.11200
H 	H 	0.18810 0.83460 0.66010 0.13600
C 	C 	0.97040 0.79010 0.04461 0.21800
C 	C 	0.06770 0.89510 0.07721 0.19400
C 	C 	0.15070 0.55530 0.86095 0.46800
C 	C 	0.25520 0.67300 0.87909 -0.06800
C 	C 	0.17450 0.76470 0.91042 -0.05300
C 	C 	0.27510 0.86870 0.92973 0.05500
C 	C 	0.44950 0.88220 0.91647 0.08100
C 	C 	0.53190 0.79050 0.88586 -0.04500
C 	C 	0.43320 0.68450 0.86744 -0.08400
C 	C 	0.51350 0.58490 0.83320 0.47200
C 	C 	0.37160 0.04750 0.96610 0.03100
C 	C 	0.49830 0.26220 0.26696 0.40900
C 	C 	0.56010 0.15790 0.23042 -0.06900
C 	C 	0.43960 0.06680 0.21152 -0.12300
C 	C 	0.50520 0.95860 0.18412 0.12300
C 	C 	0.68520 0.93940 0.17557 0.08100
C 	C 	0.80420 0.03460 0.19280 -0.11200
C 	C 	0.74190 0.14320 0.21984 -0.06400
C 	C 	0.86870 0.24860 0.23488 0.41100
C 	C 	0.55210 0.77140 0.14154 0.11800
C 	C 	0.47040 0.20990 0.45539 0.20000
C 	C 	0.56770 0.10490 0.42279 0.20900
C 	C 	0.65070 0.44470 0.63905 0.47200
C 	C 	0.75520 0.32700 0.62091 -0.09100
C 	C 	0.67450 0.23530 0.58958 -0.03600
C 	C 	0.77510 0.13130 0.57027 0.02400
C 	C 	0.94950 0.11780 0.58353 0.11600
C 	C 	0.03190 0.20950 0.61414 -0.11400
C 	C 	0.93320 0.31550 0.63256 -0.03900
C 	C 	0.01350 0.41510 0.66680 0.43600
C 	C 	0.87160 0.95250 0.53390 0.21900
C 	C 	0.99830 0.73780 0.23304 0.43600
C 	C 	0.06010 0.84210 0.26958 -0.10300
C 	C 	0.93960 0.93320 0.28848 0.01500
C 	C 	0.00520 0.04140 0.31588 0.01700
C 	C 	0.18520 0.06060 0.32443 0.01600
C 	C 	0.30420 0.96540 0.30720 -0.01300
C 	C 	0.24190 0.85680 0.28016 -0.06200
C 	C 	0.36870 0.75140 0.26512 0.40000
C 	C 	0.05210 0.22860 0.35846 0.10600
C 	C 	0.02960 0.20990 0.95539 0.17900
C 	C 	0.93230 0.10490 0.92279 0.23000
C 	C 	0.84930 0.44470 0.13905 0.46300
C 	C 	0.74480 0.32700 0.12091 -0.06800
C 	C 	0.82550 0.23530 0.08958 -0.05600
C 	C 	0.72490 0.13130 0.07027 0.04200
C 	C 	0.55050 0.11780 0.08353 0.07300
C 	C 	0.46810 0.20950 0.11414 -0.05700
C 	C 	0.56680 0.31550 0.13256 -0.08700
C 	C 	0.48650 0.41510 0.16680 0.47100
C 	C 	0.62840 0.95250 0.03390 0.20900
C 	C 	0.50170 0.73780 0.73304 0.42100
C 	C 	0.43990 0.84210 0.76958 -0.08800
C 	C 	0.56040 0.93320 0.78848 -0.00700
C 	C 	0.49480 0.04140 0.81588 0.03800
C 	C 	0.31480 0.06060 0.82443 0.00600
C 	C 	0.19580 0.96540 0.80720 -0.00800
C 	C 	0.25810 0.85680 0.78016 -0.06800
C 	C 	0.13130 0.75140 0.76512 0.39000
C 	C 	0.44790 0.22860 0.85846 0.11400
C 	C 	0.52960 0.79010 0.54461 0.20500
C 	C 	0.43230 0.89510 0.57721 0.20700
C 	C 	0.34930 0.55530 0.36095 0.46400
C 	C 	0.24480 0.67300 0.37909 -0.06300
C 	C 	0.32550 0.76470 0.41042 -0.05700
C 	C 	0.22490 0.86870 0.42973 0.05700
C 	C 	0.05050 0.88220 0.41647 0.07800
C 	C 	0.96810 0.79050 0.38586 -0.04000
C 	C 	0.06680 0.68450 0.36744 -0.09400
C 	C 	0.98650 0.58490 0.33320 0.48100
C 	C 	0.12840 0.04750 0.46610 0.02400
C 	C 	0.00170 0.26220 0.76696 0.35600
C 	C 	0.93990 0.15790 0.73042 -0.00800
C 	C 	0.06040 0.06680 0.71152 -0.19000
C 	C 	0.99480 0.95860 0.68412 0.16000
C 	C 	0.81480 0.93940 0.67557 0.06100
C 	C 	0.69580 0.03460 0.69280 -0.08900
C 	C 	0.75810 0.14320 0.71984 -0.08900
C 	C 	0.63130 0.24860 0.73488 0.40900
C 	C 	0.94790 0.77140 0.64154 0.12400
N 	N 	0.23140 0.97310 0.96174 -0.19200
N 	N 	0.50390 0.99890 0.93977 -0.15000
N 	N 	0.71030 0.82010 0.14869 -0.23100
N 	N 	0.42520 0.85000 0.16144 -0.21700
N 	N 	0.73140 0.02690 0.53826 -0.26600
N 	N 	0.00390 0.00110 0.56023 -0.29800
N 	N 	0.21030 0.17990 0.35131 -0.22500
N 	N 	0.92520 0.15000 0.33856 -0.19200
N 	N 	0.76860 0.02690 0.03826 -0.26700
N 	N 	0.49610 0.00110 0.06023 -0.28000
N 	N 	0.28970 0.17990 0.85131 -0.22700
N 	N 	0.57480 0.15000 0.83856 -0.20300
N 	N 	0.26860 0.97310 0.46174 -0.19400
N 	N 	0.99610 0.99890 0.43977 -0.15200
N 	N 	0.78970 0.82010 0.64869 -0.22900
N 	N 	0.07480 0.85000 0.66144 -0.23000
O 	O 	0.12850 0.99030 0.06119 -0.34500
O 	O 	0.96420 0.80310 0.00433 -0.34500
O 	O 	0.08030 0.87780 0.11646 -0.36500
O 	O 	0.90540 0.69960 0.06121 -0.34700
O 	O 	0.18620 0.45508 0.87716 -0.45600
O 	O 	0.02920 0.56560 0.83447 -0.59500
O 	O 	0.41380 0.50870 0.80887 -0.58000
O 	O 	0.67890 0.58300 0.83023 -0.54700
O 	O 	0.53930 0.24740 0.30509 -0.48000
O 	O 	0.41010 0.35833 0.25723 -0.64800
O 	O 	0.81460 0.36292 0.24952 -0.64900
O 	O 	0.03130 0.22682 0.23093 -0.51500
O 	O 	0.62850 0.00970 0.43881 -0.38000
O 	O 	0.46420 0.19690 0.49567 -0.35500
O 	O 	0.58030 0.12220 0.38354 -0.38100
O 	O 	0.40540 0.30040 0.43879 -0.34500
O 	O 	0.68620 0.54492 0.62284 -0.45600
O 	O 	0.52920 0.43440 0.66553 -0.58800
O 	O 	0.91380 0.49130 0.69113 -0.56700
O 	O 	0.17890 0.41700 0.66977 -0.54200
O 	O 	0.03930 0.75260 0.19491 -0.48600
O 	O 	0.91010 0.64167 0.24277 -0.65300
O 	O 	0.31460 0.63708 0.25048 -0.64800
O 	O 	0.53130 0.77318 0.26907 -0.49800
O 	O 	0.87150 0.00970 0.93881 -0.36900
O 	O 	0.03580 0.19690 0.99567 -0.34500
O 	O 	0.91970 0.12220 0.88354 -0.37700
O 	O 	0.09460 0.30040 0.93879 -0.34100
O 	O 	0.81380 0.54492 0.12284 -0.45300
O 	O 	0.97080 0.43440 0.16553 -0.57800
O 	O 	0.58620 0.49130 0.19113 -0.58100
O 	O 	0.32110 0.41700 0.16977 -0.55200
O 	O 	0.46070 0.75260 0.69491 -0.47600
O 	O 	0.58990 0.64167 0.74277 -0.65400
O 	O 	0.18540 0.63708 0.75048 -0.65100
O 	O 	0.96870 0.77318 0.76907 -0.48900
O 	O 	0.37150 0.99030 0.56119 -0.34200
O 	O 	0.53580 0.80310 0.50433 -0.34200
O 	O 	0.41970 0.87780 0.61646 -0.36300
O 	O 	0.59460 0.69960 0.56121 -0.34500
O 	O 	0.31380 0.45508 0.37716 -0.45400
O 	O 	0.47080 0.56560 0.33447 -0.58400
O 	O 	0.08620 0.50870 0.30887 -0.58400
O 	O 	0.82110 0.58300 0.33023 -0.55000
O 	O 	0.96070 0.24740 0.80509 -0.44900
O 	O 	0.08990 0.35833 0.75723 -0.64200
O 	O 	0.68540 0.36292 0.74952 -0.65200
O 	O 	0.46870 0.22682 0.73093 -0.50800
