data_crystal

_cell_length_a 7.65750
_cell_length_b 10.47700
_cell_length_c 30.45600
_cell_angle_alpha 99.06000
_cell_angle_beta  90.00000
_cell_angle_gamma 90.00000

_symmetry_space_group_name_	'P 1'
_symmetry_space_group_name_H-M	'P 1'

loop_
_symmetry_equiv_pos_as_xyz
  x,y,z

loop_
_atom_site_label
_atom_site_type_symbol
_atom_site_fract_x
_atom_site_fract_y
_atom_site_fract_z
_atom_site_charge
Pr	Pr	0.37153 0.55207 0.76821 2.07800
Pr	Pr	0.87153 0.44793 0.73179 2.08400
Pr	Pr	0.62847 0.44793 0.23179 2.08100
Pr	Pr	0.12847 0.55207 0.26821 2.07700
Co	Co	0.44581 0.71354 0.13005 1.16300
Co	Co	0.94581 0.28646 0.36995 1.16700
Co	Co	0.55419 0.28646 0.86995 1.16100
Co	Co	0.05419 0.71354 0.63005 1.15400
Co	Co	0.50000 0.00000 -0.00000 1.13400
Co	Co	0.00000 -0.00000 0.50000 1.13500
H 	H 	0.55620 0.75640 0.91830 0.06400
H 	H 	0.15020 0.79830 0.87800 0.10200
H 	H 	0.87770 0.12740 0.98560 0.02700
H 	H 	0.81850 0.07710 0.21690 0.06100
H 	H 	0.42490 0.02300 0.18610 0.08500
H 	H 	0.02860 0.68880 0.12430 -0.00000
H 	H 	0.10590 0.03560 0.93800 0.11400
H 	H 	0.81290 0.83380 0.16030 0.13600
H 	H 	0.05620 0.24360 0.58170 0.05300
H 	H 	0.65020 0.20170 0.62200 0.07300
H 	H 	0.37770 0.87260 0.51440 -0.02800
H 	H 	0.31850 0.92290 0.28310 0.06100
H 	H 	0.92490 0.97700 0.31390 0.07900
H 	H 	0.52860 0.31120 0.37570 0.00100
H 	H 	0.60590 0.96440 0.56200 0.19200
H 	H 	0.31290 0.16620 0.33970 0.12500
H 	H 	0.44380 0.24360 0.08170 0.06300
H 	H 	0.84980 0.20170 0.12200 0.05500
H 	H 	0.12230 0.87260 0.01440 -0.03300
H 	H 	0.18150 0.92290 0.78310 0.09000
H 	H 	0.57510 0.97700 0.81390 0.06300
H 	H 	0.97140 0.31120 0.87570 0.00100
H 	H 	0.89410 0.96440 0.06200 0.18800
H 	H 	0.18710 0.16620 0.83970 0.13000
H 	H 	0.94380 0.75640 0.41830 0.07800
H 	H 	0.34980 0.79830 0.37800 0.07600
H 	H 	0.62230 0.12740 0.48560 0.02500
H 	H 	0.68150 0.07710 0.71690 0.07900
H 	H 	0.07510 0.02300 0.68610 0.07200
H 	H 	0.47140 0.68880 0.62430 0.00100
H 	H 	0.39410 0.03560 0.43800 0.10600
H 	H 	0.68710 0.83380 0.66030 0.14000
C 	C 	0.47030 0.79020 0.04455 0.20600
C 	C 	0.56770 0.89490 0.07708 0.20500
C 	C 	0.65160 0.55530 0.86153 0.41900
C 	C 	0.75500 0.67320 0.87945 -0.08100
C 	C 	0.67530 0.76460 0.91047 -0.03100
C 	C 	0.77500 0.86920 0.92995 0.03600
C 	C 	0.94920 0.88200 0.91660 0.13800
C 	C 	0.03150 0.78960 0.88606 -0.13600
C 	C 	0.93270 0.68410 0.86779 0.00700
C 	C 	0.01370 0.58410 0.83363 0.34800
C 	C 	0.87130 0.04760 0.96595 0.04600
C 	C 	0.99880 0.26160 0.26694 0.41000
C 	C 	0.06040 0.15670 0.23044 -0.10000
C 	C 	0.94010 0.06610 0.21142 -0.07700
C 	C 	0.00530 0.95800 0.18393 0.09200
C 	C 	0.18450 0.93880 0.17533 0.10400
C 	C 	0.30390 0.03310 0.19267 -0.13800
C 	C 	0.24190 0.14230 0.21984 -0.02700
C 	C 	0.36890 0.24730 0.23495 0.34400
C 	C 	0.05170 0.77070 0.14162 0.10300
C 	C 	0.97030 0.20980 0.45545 0.21600
C 	C 	0.06770 0.10510 0.42292 0.18900
C 	C 	0.15160 0.44470 0.63847 0.41100
C 	C 	0.25500 0.32680 0.62055 -0.06200
C 	C 	0.17530 0.23540 0.58953 -0.05500
C 	C 	0.27500 0.13080 0.57005 0.03600
C 	C 	0.44920 0.11800 0.58340 0.08700
C 	C 	0.53150 0.21040 0.61394 -0.07700
C 	C 	0.43270 0.31590 0.63221 -0.05200
C 	C 	0.51370 0.41590 0.66637 0.39600
C 	C 	0.37130 0.95240 0.53405 0.22400
C 	C 	0.49880 0.73840 0.23306 0.38100
C 	C 	0.56040 0.84330 0.26956 -0.07000
C 	C 	0.44010 0.93390 0.28858 -0.01200
C 	C 	0.50530 0.04200 0.31607 0.04300
C 	C 	0.68450 0.06120 0.32467 0.01300
C 	C 	0.80390 0.96690 0.30733 -0.00700
C 	C 	0.74190 0.85770 0.28016 -0.06000
C 	C 	0.86890 0.75270 0.26505 0.37500
C 	C 	0.55170 0.22930 0.35838 0.11100
C 	C 	0.52970 0.20980 0.95545 0.19700
C 	C 	0.43230 0.10510 0.92292 0.20700
C 	C 	0.34840 0.44470 0.13847 0.40300
C 	C 	0.24500 0.32680 0.12055 -0.04100
C 	C 	0.32470 0.23540 0.08953 -0.07300
C 	C 	0.22500 0.13080 0.07005 0.05100
C 	C 	0.05080 0.11800 0.08340 0.05100
C 	C 	0.96850 0.21040 0.11394 -0.02800
C 	C 	0.06730 0.31590 0.13221 -0.09600
C 	C 	0.98630 0.41590 0.16637 0.43000
C 	C 	0.12870 0.95240 0.03405 0.21000
C 	C 	0.00120 0.73840 0.73306 0.31700
C 	C 	0.93960 0.84330 0.76956 0.00700
C 	C 	0.05990 0.93390 0.78858 -0.10500
C 	C 	0.99470 0.04200 0.81607 0.10500
C 	C 	0.81550 0.06120 0.82467 -0.01600
C 	C 	0.69610 0.96690 0.80733 0.02200
C 	C 	0.75810 0.85770 0.78016 -0.09100
C 	C 	0.63110 0.75270 0.76505 0.37200
C 	C 	0.94830 0.22930 0.85838 0.12700
C 	C 	0.02970 0.79020 0.54455 0.18400
C 	C 	0.93230 0.89490 0.57708 0.22800
C 	C 	0.84840 0.55530 0.36153 0.40700
C 	C 	0.74500 0.67320 0.37945 -0.04800
C 	C 	0.82470 0.76460 0.41047 -0.06000
C 	C 	0.72500 0.86920 0.42995 0.06100
C 	C 	0.55080 0.88200 0.41660 0.08300
C 	C 	0.46850 0.78960 0.38606 -0.05700
C 	C 	0.56730 0.68410 0.36779 -0.06200
C 	C 	0.48630 0.58410 0.33363 0.40100
C 	C 	0.62870 0.04760 0.46595 0.02800
C 	C 	0.50120 0.26160 0.76694 0.37300
C 	C 	0.43960 0.15670 0.73044 -0.05800
C 	C 	0.55990 0.06610 0.71142 -0.13200
C 	C 	0.49470 0.95800 0.68393 0.13200
C 	C 	0.31550 0.93880 0.67533 0.08500
C 	C 	0.19610 0.03310 0.69267 -0.12200
C 	C 	0.25810 0.14230 0.71984 -0.04300
C 	C 	0.13110 0.24730 0.73495 0.32900
C 	C 	0.44830 0.77070 0.64162 0.11500
N 	N 	0.73170 0.97390 0.96170 -0.18800
N 	N 	0.00310 0.99930 0.93995 -0.17300
N 	N 	0.21030 0.81900 0.14863 -0.22900
N 	N 	0.92590 0.84930 0.16149 -0.19800
N 	N 	0.23170 0.02610 0.53830 -0.27300
N 	N 	0.50310 0.00070 0.56005 -0.28600
N 	N 	0.71030 0.18100 0.35137 -0.22100
N 	N 	0.42590 0.15070 0.33851 -0.20100
N 	N 	0.26830 0.02610 0.03830 -0.27500
N 	N 	0.99690 0.00070 0.06005 -0.27200
N 	N 	0.78970 0.18100 0.85137 -0.22000
N 	N 	0.07410 0.15070 0.83851 -0.22700
N 	N 	0.76830 0.97390 0.46170 -0.19100
N 	N 	0.49690 0.99930 0.43995 -0.14800
N 	N 	0.28970 0.81900 0.64863 -0.23000
N 	N 	0.57410 0.84930 0.66149 -0.21600
O 	O 	0.62980 0.98960 0.06099 -0.34100
O 	O 	0.46440 0.80340 0.00415 -0.35000
O 	O 	0.58030 0.87750 0.11642 -0.35800
O 	O 	0.40520 0.69960 0.06108 -0.34800
O 	O 	0.68650 0.45510 0.87744 -0.43200
O 	O 	0.52900 0.56630 0.83492 -0.52400
O 	O 	0.91430 0.50850 0.80919 -0.49000
O 	O 	0.17800 0.58240 0.83088 -0.47800
O 	O 	0.03960 0.24700 0.30515 -0.48300
O 	O 	0.91070 0.35680 0.25702 -0.60100
O 	O 	0.31440 0.36170 0.24943 -0.58500
O 	O 	0.53060 0.22560 0.23103 -0.45200
O 	O 	0.12980 0.01040 0.43901 -0.38000
O 	O 	0.96440 0.19660 0.49585 -0.34500
O 	O 	0.08030 0.12250 0.38358 -0.38100
O 	O 	0.90520 0.30040 0.43892 -0.34200
O 	O 	0.18650 0.54490 0.62256 -0.43500
O 	O 	0.02900 0.43370 0.66508 -0.53300
O 	O 	0.41430 0.49150 0.69081 -0.51400
O 	O 	0.67800 0.41760 0.66912 -0.48400
O 	O 	0.53960 0.75300 0.19485 -0.45400
O 	O 	0.41070 0.64320 0.24298 -0.59700
O 	O 	0.81440 0.63830 0.25057 -0.58700
O 	O 	0.03060 0.77440 0.26897 -0.46300
O 	O 	0.37020 0.01040 0.93901 -0.37400
O 	O 	0.53560 0.19660 0.99585 -0.34100
O 	O 	0.41970 0.12250 0.88358 -0.38000
O 	O 	0.59480 0.30040 0.93892 -0.33900
O 	O 	0.31350 0.54490 0.12256 -0.43100
O 	O 	0.47100 0.43370 0.16508 -0.52000
O 	O 	0.08570 0.49150 0.19081 -0.52900
O 	O 	0.82200 0.41760 0.16912 -0.49600
O 	O 	0.96040 0.75300 0.69485 -0.41800
O 	O 	0.08930 0.64320 0.74298 -0.58700
O 	O 	0.68560 0.63830 0.75057 -0.58800
O 	O 	0.46940 0.77440 0.76897 -0.45300
O 	O 	0.87020 0.98960 0.56099 -0.33500
O 	O 	0.03560 0.80340 0.50415 -0.34400
O 	O 	0.91970 0.87750 0.61642 -0.35400
O 	O 	0.09480 0.69960 0.56108 -0.34300
O 	O 	0.81350 0.45510 0.37744 -0.42800
O 	O 	0.97100 0.56630 0.33492 -0.51200
O 	O 	0.58570 0.50850 0.30919 -0.51400
O 	O 	0.32200 0.58240 0.33088 -0.49200
O 	O 	0.46040 0.24700 0.80515 -0.46200
O 	O 	0.58930 0.35680 0.75702 -0.59600
O 	O 	0.18560 0.36170 0.74943 -0.58500
O 	O 	0.96940 0.22560 0.73103 -0.43500
