data_crystal

_cell_length_a 7.59390
_cell_length_b 10.44600
_cell_length_c 30.51300
_cell_angle_alpha 99.00000
_cell_angle_beta  90.00000
_cell_angle_gamma 90.00000

_symmetry_space_group_name_	'P 1'
_symmetry_space_group_name_H-M	'P 1'

loop_
_symmetry_equiv_pos_as_xyz
  x,y,z

loop_
_atom_site_label
_atom_site_type_symbol
_atom_site_fract_x
_atom_site_fract_y
_atom_site_fract_z
_atom_site_charge
Sm	Sm	0.36944 0.55075 0.76805 2.20600
Sm	Sm	0.86944 0.44925 0.73195 2.23500
Sm	Sm	0.63056 0.44925 0.23195 2.21600
Sm	Sm	0.13056 0.55075 0.26805 2.18100
Co	Co	0.55068 0.28611 0.86990 1.16000
Co	Co	0.05068 0.71389 0.63010 1.15500
Co	Co	0.44932 0.71389 0.13010 1.16200
Co	Co	0.94932 0.28611 0.36990 1.16800
Co	Co	0.50000 0.00000 -0.00000 1.13400
Co	Co	-0.00000 0.00000 0.50000 1.13500
H 	H 	0.55080 0.75540 0.91770 0.06300
H 	H 	0.15070 0.79800 0.87720 0.08900
H 	H 	0.87880 0.12480 0.98570 0.02700
H 	H 	0.18160 0.92180 0.78240 0.07000
H 	H 	0.57030 0.97320 0.81420 0.06400
H 	H 	0.96870 0.31020 0.87550 -0.00600
H 	H 	0.10820 0.03110 0.93780 0.11300
H 	H 	0.18520 0.16610 0.83920 0.12500
H 	H 	0.05080 0.24460 0.58230 0.05000
H 	H 	0.65070 0.20200 0.62280 0.06500
H 	H 	0.37880 0.87520 0.51430 -0.02900
H 	H 	0.68160 0.07820 0.71760 0.07200
H 	H 	0.07030 0.02680 0.68580 0.07000
H 	H 	0.46870 0.68980 0.62450 -0.00700
H 	H 	0.60820 0.96890 0.56220 0.19300
H 	H 	0.68520 0.83390 0.66080 0.13600
H 	H 	0.44920 0.24460 0.08230 0.06400
H 	H 	0.84930 0.20200 0.12280 0.03800
H 	H 	0.12120 0.87520 0.01430 -0.03200
H 	H 	0.81840 0.07820 0.21760 0.05100
H 	H 	0.42970 0.02680 0.18580 0.08300
H 	H 	0.03130 0.68980 0.12450 -0.00700
H 	H 	0.89180 0.96890 0.06220 0.18700
H 	H 	0.81480 0.83390 0.16080 0.13100
H 	H 	0.94920 0.75540 0.41770 0.07600
H 	H 	0.34930 0.79800 0.37720 0.06600
H 	H 	0.62120 0.12480 0.48570 0.02400
H 	H 	0.31840 0.92180 0.28240 0.05400
H 	H 	0.92970 0.97320 0.31420 0.07700
H 	H 	0.53130 0.31020 0.37550 -0.00700
H 	H 	0.39180 0.03110 0.43780 0.10600
H 	H 	0.31480 0.16610 0.33920 0.12000
C 	C 	0.43060 0.10530 0.92301 0.20600
C 	C 	0.52910 0.21030 0.95506 0.20300
C 	C 	0.64650 0.55430 0.86005 0.46700
C 	C 	0.75170 0.67280 0.87801 -0.08300
C 	C 	0.67060 0.76350 0.90960 -0.03400
C 	C 	0.77430 0.86720 0.92894 0.04000
C 	C 	0.94790 0.88090 0.91582 0.12500
C 	C 	0.03090 0.78900 0.88517 -0.10800
C 	C 	0.93150 0.68380 0.86664 -0.03300
C 	C 	0.01050 0.58520 0.83186 0.42700
C 	C 	0.87180 0.04520 0.96584 0.04400
C 	C 	0.99970 0.73640 0.73277 0.43100
C 	C 	0.93760 0.84100 0.76953 -0.05400
C 	C 	0.05900 0.93250 0.78811 -0.06000
C 	C 	0.99280 0.04090 0.81553 0.07800
C 	C 	0.81190 0.05950 0.82441 -0.00400
C 	C 	0.69210 0.96400 0.80739 0.00600
C 	C 	0.75550 0.85470 0.78003 -0.08200
C 	C 	0.62690 0.74960 0.76507 0.40600
C 	C 	0.94570 0.22820 0.85816 0.13200
C 	C 	0.93060 0.89470 0.57699 0.22500
C 	C 	0.02910 0.78970 0.54494 0.19100
C 	C 	0.14650 0.44570 0.63995 0.46200
C 	C 	0.25170 0.32720 0.62199 -0.07100
C 	C 	0.17060 0.23650 0.59040 -0.05200
C 	C 	0.27430 0.13280 0.57106 0.03500
C 	C 	0.44790 0.11910 0.58418 0.08300
C 	C 	0.53090 0.21100 0.61483 -0.06400
C 	C 	0.43150 0.31620 0.63336 -0.07900
C 	C 	0.51050 0.41480 0.66814 0.46500
C 	C 	0.37180 0.95480 0.53416 0.22400
C 	C 	0.49970 0.26360 0.76723 0.41400
C 	C 	0.43760 0.15900 0.73047 -0.07000
C 	C 	0.55900 0.06750 0.71189 -0.12500
C 	C 	0.49280 0.95910 0.68447 0.12500
C 	C 	0.31190 0.94050 0.67559 0.08600
C 	C 	0.19210 0.03600 0.69261 -0.12300
C 	C 	0.25550 0.14530 0.71997 -0.05400
C 	C 	0.12690 0.25040 0.73493 0.37400
C 	C 	0.44570 0.77180 0.64184 0.12400
C 	C 	0.56940 0.89470 0.07699 0.20300
C 	C 	0.47090 0.78970 0.04494 0.21200
C 	C 	0.35350 0.44570 0.13995 0.44900
C 	C 	0.24830 0.32720 0.12199 -0.03800
C 	C 	0.32940 0.23650 0.09040 -0.08100
C 	C 	0.22570 0.13280 0.07106 0.06100
C 	C 	0.05210 0.11910 0.08418 0.02700
C 	C 	0.96910 0.21100 0.11483 0.01500
C 	C 	0.06850 0.31620 0.13336 -0.14700
C 	C 	0.98950 0.41480 0.16814 0.51700
C 	C 	0.12820 0.95480 0.03416 0.20600
C 	C 	0.00030 0.26360 0.26723 0.40100
C 	C 	0.06240 0.15900 0.23047 -0.10700
C 	C 	0.94100 0.06750 0.21189 -0.05500
C 	C 	0.00720 0.95910 0.18447 0.07100
C 	C 	0.18810 0.94050 0.17559 0.10900
C 	C 	0.30790 0.03600 0.19261 -0.14200
C 	C 	0.24450 0.14530 0.21997 -0.03800
C 	C 	0.37310 0.25040 0.23493 0.38400
C 	C 	0.05430 0.77180 0.14184 0.10600
C 	C 	0.06940 0.10530 0.42301 0.18400
C 	C 	0.97090 0.21030 0.45506 0.22600
C 	C 	0.85350 0.55430 0.36005 0.45400
C 	C 	0.74830 0.67280 0.37801 -0.05500
C 	C 	0.82940 0.76350 0.40960 -0.05900
C 	C 	0.72570 0.86720 0.42894 0.06200
C 	C 	0.55210 0.88090 0.41582 0.07700
C 	C 	0.46910 0.78900 0.38517 -0.04200
C 	C 	0.56850 0.68380 0.36664 -0.08900
C 	C 	0.48950 0.58520 0.33186 0.46800
C 	C 	0.62820 0.04520 0.46584 0.02700
C 	C 	0.50030 0.73640 0.23277 0.42000
C 	C 	0.56240 0.84100 0.26953 -0.08200
C 	C 	0.44100 0.93250 0.28811 -0.00600
C 	C 	0.50720 0.04090 0.31553 0.03600
C 	C 	0.68810 0.05950 0.32441 0.01400
C 	C 	0.80790 0.96400 0.30739 -0.00600
C 	C 	0.74450 0.85470 0.28003 -0.07200
C 	C 	0.87310 0.74960 0.26507 0.42400
C 	C 	0.55430 0.22820 0.35816 0.11900
N 	N 	0.73160 0.97130 0.96121 -0.18900
N 	N 	0.00370 0.99590 0.93953 -0.16900
N 	N 	0.78760 0.17900 0.85115 -0.22400
N 	N 	0.07130 0.15010 0.83812 -0.22300
N 	N 	0.23160 0.02870 0.53879 -0.27400
N 	N 	0.50370 0.00410 0.56047 -0.28600
N 	N 	0.28760 0.82100 0.64885 -0.23300
N 	N 	0.57130 0.84990 0.66188 -0.21900
N 	N 	0.26840 0.02870 0.03879 -0.27600
N 	N 	0.99630 0.00410 0.06047 -0.26400
N 	N 	0.21240 0.82100 0.14885 -0.23200
N 	N 	0.92870 0.84990 0.16188 -0.19300
N 	N 	0.76840 0.97130 0.46121 -0.19000
N 	N 	0.49630 0.99590 0.43953 -0.14800
N 	N 	0.71240 0.17900 0.35115 -0.22300
N 	N 	0.42870 0.15010 0.33812 -0.20300
O 	O 	0.37000 0.00940 0.93908 -0.37500
O 	O 	0.53610 0.19650 0.99540 -0.34400
O 	O 	0.41650 0.12180 0.88378 -0.38200
O 	O 	0.59320 0.30040 0.93867 -0.34300
O 	O 	0.68270 0.45460 0.87640 -0.45300
O 	O 	0.52400 0.56540 0.83370 -0.56300
O 	O 	0.17570 0.58210 0.82868 -0.52300
O 	O 	0.90890 0.50890 0.80781 -0.54100
O 	O 	0.95810 0.75290 0.69489 -0.46400
O 	O 	0.08760 0.64060 0.74198 -0.63100
O 	O 	0.68330 0.63560 0.75036 -0.61700
O 	O 	0.46420 0.77020 0.76936 -0.48500
O 	O 	0.87000 0.99060 0.56092 -0.33600
O 	O 	0.03610 0.80350 0.50460 -0.34800
O 	O 	0.91650 0.87820 0.61622 -0.35700
O 	O 	0.09320 0.69960 0.56133 -0.34900
O 	O 	0.18270 0.54540 0.62360 -0.45700
O 	O 	0.02400 0.43460 0.66630 -0.57400
O 	O 	0.67570 0.41790 0.67132 -0.53000
O 	O 	0.40890 0.49110 0.69219 -0.55600
O 	O 	0.45810 0.24710 0.80511 -0.47800
O 	O 	0.58760 0.35940 0.75802 -0.61800
O 	O 	0.18330 0.36440 0.74964 -0.61300
O 	O 	0.96420 0.22980 0.73064 -0.47400
O 	O 	0.63000 0.99060 0.06092 -0.34200
O 	O 	0.46390 0.80350 0.00460 -0.35200
O 	O 	0.58350 0.87820 0.11622 -0.35900
O 	O 	0.40680 0.69960 0.06133 -0.35200
O 	O 	0.31730 0.54540 0.12360 -0.45200
O 	O 	0.47600 0.43460 0.16630 -0.55800
O 	O 	0.82430 0.41790 0.17132 -0.54300
O 	O 	0.09110 0.49110 0.19219 -0.57700
O 	O 	0.04190 0.24710 0.30511 -0.48400
O 	O 	0.91240 0.35940 0.25802 -0.59700
O 	O 	0.31670 0.36440 0.24964 -0.60900
O 	O 	0.53580 0.22980 0.23064 -0.48500
O 	O 	0.13000 0.00940 0.43908 -0.38100
O 	O 	0.96390 0.19650 0.49540 -0.34800
O 	O 	0.08350 0.12180 0.38378 -0.38600
O 	O 	0.90680 0.30040 0.43867 -0.34700
O 	O 	0.81730 0.45460 0.37640 -0.44800
O 	O 	0.97600 0.56540 0.33370 -0.54400
O 	O 	0.32430 0.58210 0.32868 -0.53300
O 	O 	0.59110 0.50890 0.30781 -0.55700
O 	O 	0.54190 0.75290 0.19489 -0.46900
O 	O 	0.41240 0.64060 0.24198 -0.61400
O 	O 	0.81670 0.63560 0.25036 -0.61400
O 	O 	0.03580 0.77020 0.26936 -0.50000
