data_crystal

_cell_length_a 15.85460
_cell_length_b 22.06110
_cell_length_c 22.06110
_cell_angle_alpha 82.58120
_cell_angle_beta  68.94070
_cell_angle_gamma 68.94070

_symmetry_space_group_name_	'P 1'
_symmetry_space_group_name_H-M	'P 1'

loop_
_symmetry_equiv_pos_as_xyz
  x,y,z

loop_
_atom_site_label
_atom_site_type_symbol
_atom_site_fract_x
_atom_site_fract_y
_atom_site_fract_z
_atom_site_charge
Ca	Ca	0.85256 0.07214 0.07214 1.47800
Ca	Ca	0.09342 0.03628 0.03628 1.47000
Ca	Ca	0.49684 0.42786 0.42786 1.47800
Ca	Ca	0.66598 0.46372 0.46372 1.47200
Ca	Ca	0.42470 0.92786 0.57214 1.47700
Ca	Ca	0.62970 0.96372 0.53628 1.47100
Ca	Ca	0.42470 0.57214 0.92786 1.47700
Ca	Ca	0.62970 0.53628 0.96372 1.47100
Ca	Ca	0.50316 0.57214 0.57214 1.47700
Ca	Ca	0.33402 0.53628 0.53628 1.47100
Ca	Ca	0.14744 0.92786 0.92786 1.47700
Ca	Ca	0.90658 0.96372 0.96372 1.46900
Ca	Ca	0.57530 0.07214 0.42786 1.47700
Ca	Ca	0.37030 0.03628 0.46372 1.47100
Ca	Ca	0.57530 0.42786 0.07214 1.47700
Ca	Ca	0.37030 0.46372 0.03628 1.47100
Ca	Ca	0.68630 0.12740 0.25000 1.51900
Ca	Ca	0.56370 0.37260 0.25000 1.51900
Ca	Ca	0.43630 0.75000 0.62740 1.51900
Ca	Ca	0.31370 0.75000 0.87260 1.51900
Ca	Ca	0.31370 0.87260 0.75000 1.51900
Ca	Ca	0.43630 0.62740 0.75000 1.51900
Ca	Ca	0.56370 0.25000 0.37260 1.51900
Ca	Ca	0.68630 0.25000 0.12740 1.51900
H 	H 	0.80200 0.98590 0.29870 0.06200
H 	H 	0.83056 0.03852 0.32056 0.05700
H 	H 	0.98252 0.93385 0.40511 0.12400
H 	H 	0.94127 0.00693 0.38573 0.11300
H 	H 	0.10158 0.96000 0.31600 -0.05500
H 	H 	0.99850 0.04213 0.26927 0.10200
H 	H 	0.07530 0.99122 0.21578 0.10400
H 	H 	0.03002 0.90508 0.18088 0.08900
H 	H 	0.92497 0.90323 0.21303 0.08900
H 	H 	0.86800 0.86780 0.32940 0.10900
H 	H 	0.93720 0.84796 0.37024 0.11500
H 	H 	0.14035 0.87415 0.24635 0.12600
H 	H 	0.10510 0.85201 0.31899 0.12600
H 	H 	0.02845 0.82195 0.25995 -0.05900
H 	H 	0.58660 0.51410 0.20130 0.06200
H 	H 	0.68964 0.46148 0.17944 0.05900
H 	H 	0.82148 0.56615 0.09489 0.12500
H 	H 	0.83393 0.49307 0.11427 0.11300
H 	H 	0.87758 0.54000 0.18400 -0.05600
H 	H 	0.80990 0.45787 0.23073 0.10600
H 	H 	0.78230 0.50878 0.28422 0.10500
H 	H 	0.61598 0.59492 0.31912 0.08700
H 	H 	0.54123 0.59677 0.28697 0.08800
H 	H 	0.56520 0.63220 0.17060 0.10900
H 	H 	0.65540 0.65204 0.12976 0.11500
H 	H 	0.76085 0.62585 0.25365 0.12600
H 	H 	0.77610 0.64799 0.18101 0.12600
H 	H 	0.61035 0.67805 0.24005 -0.05800
H 	H 	0.60070 0.70130 0.48590 0.06200
H 	H 	0.65112 0.67944 0.53852 0.05900
H 	H 	0.88763 0.59489 0.43385 0.12400
H 	H 	0.82700 0.61427 0.50693 0.11300
H 	H 	0.91758 0.68400 0.46000 -0.05600
H 	H 	0.76777 0.73073 0.54213 0.10600
H 	H 	0.79108 0.78422 0.49122 0.10400
H 	H 	0.71090 0.81912 0.40508 0.08700
H 	H 	0.63800 0.78697 0.40323 0.08800
H 	H 	0.69740 0.67060 0.36780 0.10800
H 	H 	0.80744 0.62976 0.34796 0.11500
H 	H 	0.88670 0.75365 0.37415 0.12600
H 	H 	0.92409 0.68101 0.35201 0.12600
H 	H 	0.78840 0.74005 0.32195 -0.05800
H 	H 	0.28790 0.79870 0.01410 0.05700
H 	H 	0.36908 0.82056 0.96148 0.04900
H 	H 	0.41637 0.90511 0.06615 0.11800
H 	H 	0.44820 0.88573 0.99307 0.10000
H 	H 	0.56158 0.81600 0.04000 -0.04800
H 	H 	0.54063 0.76927 0.95787 0.09500
H 	H 	0.56652 0.71578 0.00878 0.09900
H 	H 	0.43510 0.68088 0.09492 0.08400
H 	H 	0.32820 0.71303 0.09677 0.08500
H 	H 	0.23580 0.82940 0.13220 0.10500
H 	H 	0.28516 0.87024 0.15204 0.11200
H 	H 	0.51450 0.74635 0.12585 0.12200
H 	H 	0.45711 0.81899 0.14799 0.12200
H 	H 	0.35040 0.75995 0.17805 -0.05500
H 	H 	0.41340 0.79870 0.48590 0.06200
H 	H 	0.31036 0.82056 0.53852 0.05900
H 	H 	0.17852 0.90511 0.43385 0.12500
H 	H 	0.16607 0.88573 0.50693 0.11300
H 	H 	0.12242 0.81600 0.46000 -0.05600
H 	H 	0.19010 0.76927 0.54213 0.10600
H 	H 	0.21770 0.71578 0.49122 0.10500
H 	H 	0.38402 0.68088 0.40508 0.08700
H 	H 	0.45877 0.71303 0.40323 0.08800
H 	H 	0.43480 0.82940 0.36780 0.10900
H 	H 	0.34460 0.87024 0.34796 0.11500
H 	H 	0.23915 0.74635 0.37415 0.12600
H 	H 	0.22390 0.81899 0.35201 0.12600
H 	H 	0.38965 0.75995 0.32195 -0.05800
H 	H 	0.19800 0.70130 0.01410 0.06200
H 	H 	0.16944 0.67944 0.96148 0.05700
H 	H 	0.01748 0.59489 0.06615 0.12400
H 	H 	0.05873 0.61427 0.99307 0.11300
H 	H 	0.89842 0.68400 0.04000 -0.05500
H 	H 	0.00150 0.73073 0.95787 0.10200
H 	H 	0.92470 0.78422 0.00878 0.10400
H 	H 	0.96998 0.81912 0.09492 0.08900
H 	H 	0.07503 0.78697 0.09677 0.08900
H 	H 	0.13200 0.67060 0.13220 0.10900
H 	H 	0.06280 0.62976 0.15204 0.11500
H 	H 	0.85965 0.75365 0.12585 0.12600
H 	H 	0.89490 0.68101 0.14799 0.12600
H 	H 	0.97155 0.74005 0.17805 -0.05900
H 	H 	0.71210 0.98590 0.20130 0.05700
H 	H 	0.63092 0.03852 0.17944 0.04900
H 	H 	0.58363 0.93385 0.09489 0.11800
H 	H 	0.55180 0.00693 0.11427 0.10000
H 	H 	0.43842 0.96000 0.18400 -0.04800
H 	H 	0.45937 0.04213 0.23073 0.09500
H 	H 	0.43348 0.99122 0.28422 0.09900
H 	H 	0.56490 0.90508 0.31912 0.08400
H 	H 	0.67180 0.90323 0.28697 0.08500
H 	H 	0.76420 0.86780 0.17060 0.10500
H 	H 	0.71484 0.84796 0.12976 0.11200
H 	H 	0.48550 0.87415 0.25365 0.12200
H 	H 	0.54289 0.85201 0.18101 0.12200
H 	H 	0.64960 0.82195 0.24005 -0.05500
H 	H 	0.39930 0.51410 0.29870 0.06200
H 	H 	0.34888 0.46148 0.32056 0.05900
H 	H 	0.11237 0.56615 0.40511 0.12400
H 	H 	0.17300 0.49307 0.38573 0.11300
H 	H 	0.08242 0.54000 0.31600 -0.05600
H 	H 	0.23223 0.45787 0.26927 0.10600
H 	H 	0.20892 0.50878 0.21578 0.10400
H 	H 	0.28910 0.59492 0.18088 0.08700
H 	H 	0.36200 0.59677 0.21303 0.08800
H 	H 	0.30260 0.63220 0.32940 0.10800
H 	H 	0.19256 0.65204 0.37024 0.11500
H 	H 	0.11330 0.62585 0.24635 0.12600
H 	H 	0.07591 0.64799 0.31899 0.12600
H 	H 	0.21160 0.67805 0.25995 -0.05800
H 	H 	0.19800 0.01410 0.70130 0.06200
H 	H 	0.16944 0.96148 0.67944 0.05700
H 	H 	0.01748 0.06615 0.59489 0.12400
H 	H 	0.05873 0.99307 0.61427 0.11300
H 	H 	0.89842 0.04000 0.68400 -0.05500
H 	H 	0.00150 0.95787 0.73073 0.10200
H 	H 	0.92470 0.00878 0.78422 0.10400
H 	H 	0.96998 0.09492 0.81912 0.08900
H 	H 	0.07503 0.09677 0.78697 0.08900
H 	H 	0.13200 0.13220 0.67060 0.10900
H 	H 	0.06280 0.15204 0.62976 0.11500
H 	H 	0.85965 0.12585 0.75365 0.12600
H 	H 	0.89490 0.14799 0.68101 0.12600
H 	H 	0.97155 0.17805 0.74005 -0.05900
H 	H 	0.41340 0.48590 0.79870 0.06200
H 	H 	0.31036 0.53852 0.82056 0.05900
H 	H 	0.17852 0.43385 0.90511 0.12500
H 	H 	0.16607 0.50693 0.88573 0.11300
H 	H 	0.12242 0.46000 0.81600 -0.05600
H 	H 	0.19010 0.54213 0.76927 0.10600
H 	H 	0.21770 0.49122 0.71578 0.10500
H 	H 	0.38402 0.40508 0.68088 0.08700
H 	H 	0.45877 0.40323 0.71303 0.08800
H 	H 	0.43480 0.36780 0.82940 0.10900
H 	H 	0.34460 0.34796 0.87024 0.11500
H 	H 	0.23915 0.37415 0.74635 0.12600
H 	H 	0.22390 0.35201 0.81899 0.12600
H 	H 	0.38965 0.32195 0.75995 -0.05800
H 	H 	0.39930 0.29870 0.51410 0.06200
H 	H 	0.34888 0.32056 0.46148 0.05900
H 	H 	0.11237 0.40511 0.56615 0.12400
H 	H 	0.17300 0.38573 0.49307 0.11300
H 	H 	0.08242 0.31600 0.54000 -0.05600
H 	H 	0.23223 0.26927 0.45787 0.10600
H 	H 	0.20892 0.21578 0.50878 0.10400
H 	H 	0.28910 0.18088 0.59492 0.08700
H 	H 	0.36200 0.21303 0.59677 0.08800
H 	H 	0.30260 0.32940 0.63220 0.10800
H 	H 	0.19256 0.37024 0.65204 0.11500
H 	H 	0.11330 0.24635 0.62585 0.12600
H 	H 	0.07591 0.31899 0.64799 0.12600
H 	H 	0.21160 0.25995 0.67805 -0.05800
H 	H 	0.71210 0.20130 0.98590 0.05700
H 	H 	0.63092 0.17944 0.03852 0.04900
H 	H 	0.58363 0.09489 0.93385 0.11800
H 	H 	0.55180 0.11427 0.00693 0.10000
H 	H 	0.43842 0.18400 0.96000 -0.04800
H 	H 	0.45937 0.23073 0.04213 0.09500
H 	H 	0.43348 0.28422 0.99122 0.09900
H 	H 	0.56490 0.31912 0.90508 0.08400
H 	H 	0.67180 0.28697 0.90323 0.08500
H 	H 	0.76420 0.17060 0.86780 0.10500
H 	H 	0.71484 0.12976 0.84796 0.11200
H 	H 	0.48550 0.25365 0.87415 0.12200
H 	H 	0.54289 0.18101 0.85201 0.12200
H 	H 	0.64960 0.24005 0.82195 -0.05500
H 	H 	0.58660 0.20130 0.51410 0.06200
H 	H 	0.68964 0.17944 0.46148 0.05900
H 	H 	0.82148 0.09489 0.56615 0.12500
H 	H 	0.83393 0.11427 0.49307 0.11300
H 	H 	0.87758 0.18400 0.54000 -0.05600
H 	H 	0.80990 0.23073 0.45787 0.10600
H 	H 	0.78230 0.28422 0.50878 0.10500
H 	H 	0.61598 0.31912 0.59492 0.08700
H 	H 	0.54123 0.28697 0.59677 0.08800
H 	H 	0.56520 0.17060 0.63220 0.10900
H 	H 	0.65540 0.12976 0.65204 0.11500
H 	H 	0.76085 0.25365 0.62585 0.12600
H 	H 	0.77610 0.18101 0.64799 0.12600
H 	H 	0.61035 0.24005 0.67805 -0.05800
H 	H 	0.80200 0.29870 0.98590 0.06200
H 	H 	0.83056 0.32056 0.03852 0.05700
H 	H 	0.98252 0.40511 0.93385 0.12400
H 	H 	0.94127 0.38573 0.00693 0.11300
H 	H 	0.10158 0.31600 0.96000 -0.05500
H 	H 	0.99850 0.26927 0.04213 0.10200
H 	H 	0.07530 0.21578 0.99122 0.10400
H 	H 	0.03002 0.18088 0.90508 0.08900
H 	H 	0.92497 0.21303 0.90323 0.08900
H 	H 	0.86800 0.32940 0.86780 0.10900
H 	H 	0.93720 0.37024 0.84796 0.11500
H 	H 	0.14035 0.24635 0.87415 0.12600
H 	H 	0.10510 0.31899 0.85201 0.12600
H 	H 	0.02845 0.25995 0.82195 -0.05900
H 	H 	0.28790 0.01410 0.79870 0.05700
H 	H 	0.36908 0.96148 0.82056 0.04900
H 	H 	0.41637 0.06615 0.90511 0.11800
H 	H 	0.44820 0.99307 0.88573 0.10000
H 	H 	0.56158 0.04000 0.81600 -0.04800
H 	H 	0.54063 0.95787 0.76927 0.09500
H 	H 	0.56652 0.00878 0.71578 0.09900
H 	H 	0.43510 0.09492 0.68088 0.08400
H 	H 	0.32820 0.09677 0.71303 0.08500
H 	H 	0.23580 0.13220 0.82940 0.10500
H 	H 	0.28516 0.15204 0.87024 0.11200
H 	H 	0.51450 0.12585 0.74635 0.12200
H 	H 	0.45711 0.14799 0.81899 0.12200
H 	H 	0.35040 0.17805 0.75995 -0.05500
H 	H 	0.60070 0.48590 0.70130 0.06200
H 	H 	0.65112 0.53852 0.67944 0.05900
H 	H 	0.88763 0.43385 0.59489 0.12400
H 	H 	0.82700 0.50693 0.61427 0.11300
H 	H 	0.91758 0.46000 0.68400 -0.05600
H 	H 	0.76777 0.54213 0.73073 0.10600
H 	H 	0.79108 0.49122 0.78422 0.10400
H 	H 	0.71090 0.40508 0.81912 0.08700
H 	H 	0.63800 0.40323 0.78697 0.08800
H 	H 	0.69740 0.36780 0.67060 0.10800
H 	H 	0.80744 0.34796 0.62976 0.11500
H 	H 	0.88670 0.37415 0.75365 0.12600
H 	H 	0.92409 0.35201 0.68101 0.12600
H 	H 	0.78840 0.32195 0.74005 -0.05800
C 	C 	0.93964 0.98380 0.24292 0.06000
C 	C 	0.85369 0.99389 0.30633 -0.21000
C 	C 	0.88201 0.94812 0.35946 0.11400
C 	C 	0.96362 0.96234 0.37142 -0.31200
C 	C 	0.04983 0.95134 0.30824 0.23100
C 	C 	0.02052 0.99750 0.25546 -0.27700
C 	C 	0.97555 0.91231 0.22099 -0.27900
C 	C 	0.91866 0.87720 0.33688 -0.30800
C 	C 	0.08527 0.88124 0.28602 -0.36900
C 	C 	0.00507 0.86712 0.27414 0.23000
C 	C 	0.90910 0.02664 0.18996 0.30400
C 	C 	0.79620 0.95868 0.42132 0.25000
C 	C 	0.66636 0.51620 0.25708 0.05900
C 	C 	0.65391 0.50611 0.19367 -0.21300
C 	C 	0.68959 0.55188 0.14054 0.11400
C 	C 	0.79738 0.53766 0.12858 -0.31100
C 	C 	0.80941 0.54866 0.19176 0.23200
C 	C 	0.77348 0.50250 0.24454 -0.28500
C 	C 	0.60885 0.58769 0.27901 -0.27500
C 	C 	0.63274 0.62280 0.16312 -0.30600
C 	C 	0.75253 0.61876 0.21398 -0.36800
C 	C 	0.64633 0.63288 0.22586 0.22800
C 	C 	0.62570 0.47336 0.31004 0.30600
C 	C 	0.67620 0.54132 0.07868 0.25000
C 	C 	0.68256 0.75708 0.48380 0.05900
C 	C 	0.66002 0.69367 0.49389 -0.21200
C 	C 	0.74147 0.64054 0.44812 0.11400
C 	C 	0.83504 0.62858 0.46234 -0.31000
C 	C 	0.85807 0.69176 0.45134 0.23100
C 	C 	0.77598 0.74454 0.49750 -0.28400
C 	C 	0.69654 0.77901 0.41231 -0.27500
C 	C 	0.75554 0.66312 0.37720 -0.30600
C 	C 	0.87129 0.71398 0.38124 -0.36800
C 	C 	0.77921 0.72586 0.36712 0.22700
C 	C 	0.59906 0.81004 0.52664 0.30600
C 	C 	0.71752 0.57868 0.45868 0.25000
C 	C 	0.42344 0.74292 0.01620 0.04900
C 	C 	0.34758 0.80633 0.00611 -0.19100
C 	C 	0.33013 0.85946 0.05188 0.10000
C 	C 	0.42596 0.87142 0.03766 -0.28200
C 	C 	0.50117 0.80824 0.04866 0.21200
C 	C 	0.51802 0.75546 0.00250 -0.26000
C 	C 	0.38786 0.72099 0.08769 -0.26500
C 	C 	0.29586 0.83688 0.12280 -0.29500
C 	C 	0.46651 0.78602 0.11876 -0.35400
C 	C 	0.37219 0.77414 0.13288 0.21600
C 	C 	0.43574 0.68996 0.97336 0.30700
C 	C 	0.25488 0.92132 0.04132 0.25600
C 	C 	0.33364 0.74292 0.48380 0.05900
C 	C 	0.34609 0.80633 0.49389 -0.21300
C 	C 	0.31041 0.85946 0.44812 0.11400
C 	C 	0.20262 0.87142 0.46234 -0.31100
C 	C 	0.19059 0.80824 0.45134 0.23200
C 	C 	0.22652 0.75546 0.49750 -0.28500
C 	C 	0.39115 0.72099 0.41231 -0.27500
C 	C 	0.36726 0.83688 0.37720 -0.30600
C 	C 	0.24747 0.78602 0.38124 -0.36800
C 	C 	0.35367 0.77414 0.36712 0.22800
C 	C 	0.37430 0.68996 0.52664 0.30600
C 	C 	0.32380 0.92132 0.45868 0.25000
C 	C 	0.06036 0.75708 0.01620 0.06000
C 	C 	0.14631 0.69367 0.00611 -0.21000
C 	C 	0.11799 0.64054 0.05188 0.11400
C 	C 	0.03638 0.62858 0.03766 -0.31200
C 	C 	0.95017 0.69176 0.04866 0.23100
C 	C 	0.97948 0.74454 0.00250 -0.27700
C 	C 	0.02445 0.77901 0.08769 -0.27900
C 	C 	0.08134 0.66312 0.12280 -0.30800
C 	C 	0.91473 0.71398 0.11876 -0.36900
C 	C 	0.99493 0.72586 0.13288 0.23000
C 	C 	0.09090 0.81004 0.97336 0.30400
C 	C 	0.20380 0.57868 0.04132 0.25000
C 	C 	0.57656 0.98380 0.25708 0.04900
C 	C 	0.65242 0.99389 0.19367 -0.19100
C 	C 	0.66987 0.94812 0.14054 0.10000
C 	C 	0.57404 0.96234 0.12858 -0.28200
C 	C 	0.49883 0.95134 0.19176 0.21200
C 	C 	0.48198 0.99750 0.24454 -0.26000
C 	C 	0.61214 0.91231 0.27901 -0.26500
C 	C 	0.70414 0.87720 0.16312 -0.29500
C 	C 	0.53349 0.88124 0.21398 -0.35400
C 	C 	0.62781 0.86712 0.22586 0.21600
C 	C 	0.56426 0.02664 0.31004 0.30700
C 	C 	0.74512 0.95868 0.07868 0.25600
C 	C 	0.31744 0.51620 0.24292 0.05900
C 	C 	0.33998 0.50611 0.30633 -0.21200
C 	C 	0.25853 0.55188 0.35946 0.11400
C 	C 	0.16496 0.53766 0.37142 -0.31000
C 	C 	0.14193 0.54866 0.30824 0.23100
C 	C 	0.22402 0.50250 0.25546 -0.28400
C 	C 	0.30346 0.58769 0.22099 -0.27500
C 	C 	0.24446 0.62280 0.33688 -0.30600
C 	C 	0.12871 0.61876 0.28602 -0.36800
C 	C 	0.22079 0.63288 0.27414 0.22700
C 	C 	0.40094 0.47336 0.18996 0.30600
C 	C 	0.28248 0.54132 0.42132 0.25000
C 	C 	0.06036 0.01620 0.75708 0.06000
C 	C 	0.14631 0.00611 0.69367 -0.21000
C 	C 	0.11799 0.05188 0.64054 0.11400
C 	C 	0.03638 0.03766 0.62858 -0.31200
C 	C 	0.95017 0.04866 0.69176 0.23100
C 	C 	0.97948 0.00250 0.74454 -0.27700
C 	C 	0.02445 0.08769 0.77901 -0.27900
C 	C 	0.08134 0.12280 0.66312 -0.30800
C 	C 	0.91473 0.11876 0.71398 -0.36900
C 	C 	0.99493 0.13288 0.72586 0.23000
C 	C 	0.09090 0.97336 0.81004 0.30400
C 	C 	0.20380 0.04132 0.57868 0.25000
C 	C 	0.33364 0.48380 0.74292 0.05900
C 	C 	0.34609 0.49389 0.80633 -0.21300
C 	C 	0.31041 0.44812 0.85946 0.11400
C 	C 	0.20262 0.46234 0.87142 -0.31100
C 	C 	0.19059 0.45134 0.80824 0.23200
C 	C 	0.22652 0.49750 0.75546 -0.28500
C 	C 	0.39115 0.41231 0.72099 -0.27500
C 	C 	0.36726 0.37720 0.83688 -0.30600
C 	C 	0.24747 0.38124 0.78602 -0.36800
C 	C 	0.35367 0.36712 0.77414 0.22800
C 	C 	0.37430 0.52664 0.68996 0.30600
C 	C 	0.32380 0.45868 0.92132 0.25000
C 	C 	0.31744 0.24292 0.51620 0.05900
C 	C 	0.33998 0.30633 0.50611 -0.21200
C 	C 	0.25853 0.35946 0.55188 0.11400
C 	C 	0.16496 0.37142 0.53766 -0.31000
C 	C 	0.14193 0.30824 0.54866 0.23100
C 	C 	0.22402 0.25546 0.50250 -0.28400
C 	C 	0.30346 0.22099 0.58769 -0.27500
C 	C 	0.24446 0.33688 0.62280 -0.30600
C 	C 	0.12871 0.28602 0.61876 -0.36800
C 	C 	0.22079 0.27414 0.63288 0.22700
C 	C 	0.40094 0.18996 0.47336 0.30600
C 	C 	0.28248 0.42132 0.54132 0.25000
C 	C 	0.57656 0.25708 0.98380 0.04900
C 	C 	0.65242 0.19367 0.99389 -0.19100
C 	C 	0.66987 0.14054 0.94812 0.10000
C 	C 	0.57404 0.12858 0.96234 -0.28200
C 	C 	0.49883 0.19176 0.95134 0.21200
C 	C 	0.48198 0.24454 0.99750 -0.26000
C 	C 	0.61214 0.27901 0.91231 -0.26500
C 	C 	0.70414 0.16312 0.87720 -0.29500
C 	C 	0.53349 0.21398 0.88124 -0.35400
C 	C 	0.62781 0.22586 0.86712 0.21600
C 	C 	0.56426 0.31004 0.02664 0.30700
C 	C 	0.74512 0.07868 0.95868 0.25600
C 	C 	0.66636 0.25708 0.51620 0.05900
C 	C 	0.65391 0.19367 0.50611 -0.21300
C 	C 	0.68959 0.14054 0.55188 0.11400
C 	C 	0.79738 0.12858 0.53766 -0.31100
C 	C 	0.80941 0.19176 0.54866 0.23200
C 	C 	0.77348 0.24454 0.50250 -0.28500
C 	C 	0.60885 0.27901 0.58769 -0.27500
C 	C 	0.63274 0.16312 0.62280 -0.30600
C 	C 	0.75253 0.21398 0.61876 -0.36800
C 	C 	0.64633 0.22586 0.63288 0.22800
C 	C 	0.62570 0.31004 0.47336 0.30600
C 	C 	0.67620 0.07868 0.54132 0.25000
C 	C 	0.93964 0.24292 0.98380 0.06000
C 	C 	0.85369 0.30633 0.99389 -0.21000
C 	C 	0.88201 0.35946 0.94812 0.11400
C 	C 	0.96362 0.37142 0.96234 -0.31200
C 	C 	0.04983 0.30824 0.95134 0.23100
C 	C 	0.02052 0.25546 0.99750 -0.27700
C 	C 	0.97555 0.22099 0.91231 -0.27900
C 	C 	0.91866 0.33688 0.87720 -0.30800
C 	C 	0.08527 0.28602 0.88124 -0.36900
C 	C 	0.00507 0.27414 0.86712 0.23000
C 	C 	0.90910 0.18996 0.02664 0.30400
C 	C 	0.79620 0.42132 0.95868 0.25000
C 	C 	0.42344 0.01620 0.74292 0.04900
C 	C 	0.34758 0.00611 0.80633 -0.19100
C 	C 	0.33013 0.05188 0.85946 0.10000
C 	C 	0.42596 0.03766 0.87142 -0.28200
C 	C 	0.50117 0.04866 0.80824 0.21200
C 	C 	0.51802 0.00250 0.75546 -0.26000
C 	C 	0.38786 0.08769 0.72099 -0.26500
C 	C 	0.29586 0.12280 0.83688 -0.29500
C 	C 	0.46651 0.11876 0.78602 -0.35400
C 	C 	0.37219 0.13288 0.77414 0.21600
C 	C 	0.43574 0.97336 0.68996 0.30700
C 	C 	0.25488 0.04132 0.92132 0.25600
C 	C 	0.68256 0.48380 0.75708 0.05900
C 	C 	0.66002 0.49389 0.69367 -0.21200
C 	C 	0.74147 0.44812 0.64054 0.11400
C 	C 	0.83504 0.46234 0.62858 -0.31000
C 	C 	0.85807 0.45134 0.69176 0.23100
C 	C 	0.77598 0.49750 0.74454 -0.28400
C 	C 	0.69654 0.41231 0.77901 -0.27500
C 	C 	0.75554 0.37720 0.66312 -0.30600
C 	C 	0.87129 0.38124 0.71398 -0.36800
C 	C 	0.77921 0.36712 0.72586 0.22700
C 	C 	0.59906 0.52664 0.81004 0.30600
C 	C 	0.71752 0.45868 0.57868 0.25000
C 	C 	0.50923 0.25000 0.25000 0.82100
C 	C 	0.25923 0.75000 0.75000 0.82100
C 	C 	0.49077 0.75000 0.75000 0.82100
C 	C 	0.74077 0.25000 0.25000 0.82100
O 	O 	0.97740 0.02730 0.13170 -0.60800
O 	O 	0.83060 0.06930 0.18950 -0.59200
O 	O 	0.71580 0.97990 0.41390 -0.59300
O 	O 	0.80600 0.92950 0.47650 -0.38800
O 	O 	0.63640 0.47270 0.36830 -0.60700
O 	O 	0.58940 0.43070 0.31050 -0.59200
O 	O 	0.60960 0.52010 0.08610 -0.59300
O 	O 	0.71200 0.57050 0.02350 -0.38600
O 	O 	0.60910 0.86830 0.52730 -0.60700
O 	O 	0.52010 0.81050 0.56930 -0.59200
O 	O 	0.62970 0.58610 0.47990 -0.59300
O 	O 	0.78250 0.52350 0.42950 -0.38800
O 	O 	0.50470 0.63170 0.97270 -0.60800
O 	O 	0.39990 0.68950 0.93070 -0.59300
O 	O 	0.19570 0.91390 0.02010 -0.59200
O 	O 	0.23550 0.97650 0.07050 -0.38600
O 	O 	0.36360 0.63170 0.52730 -0.60700
O 	O 	0.41060 0.68950 0.56930 -0.59200
O 	O 	0.39040 0.91390 0.47990 -0.59300
O 	O 	0.28800 0.97650 0.42950 -0.38600
O 	O 	0.02260 0.86830 0.97270 -0.60800
O 	O 	0.16940 0.81050 0.93070 -0.59200
O 	O 	0.28420 0.58610 0.02010 -0.59300
O 	O 	0.19400 0.52350 0.07050 -0.38800
O 	O 	0.49530 0.02730 0.36830 -0.60800
O 	O 	0.60010 0.06930 0.31050 -0.59300
O 	O 	0.80430 0.97990 0.08610 -0.59200
O 	O 	0.76450 0.92950 0.02350 -0.38600
O 	O 	0.39090 0.47270 0.13170 -0.60700
O 	O 	0.47990 0.43070 0.18950 -0.59200
O 	O 	0.37030 0.52010 0.41390 -0.59300
O 	O 	0.21750 0.57050 0.47650 -0.38800
O 	O 	0.02260 0.97270 0.86830 -0.60800
O 	O 	0.16940 0.93070 0.81050 -0.59200
O 	O 	0.28420 0.02010 0.58610 -0.59300
O 	O 	0.19400 0.07050 0.52350 -0.38800
O 	O 	0.36360 0.52730 0.63170 -0.60700
O 	O 	0.41060 0.56930 0.68950 -0.59200
O 	O 	0.39040 0.47990 0.91390 -0.59300
O 	O 	0.28800 0.42950 0.97650 -0.38600
O 	O 	0.39090 0.13170 0.47270 -0.60700
O 	O 	0.47990 0.18950 0.43070 -0.59200
O 	O 	0.37030 0.41390 0.52010 -0.59300
O 	O 	0.21750 0.47650 0.57050 -0.38800
O 	O 	0.49530 0.36830 0.02730 -0.60800
O 	O 	0.60010 0.31050 0.06930 -0.59300
O 	O 	0.80430 0.08610 0.97990 -0.59200
O 	O 	0.76450 0.02350 0.92950 -0.38600
O 	O 	0.63640 0.36830 0.47270 -0.60700
O 	O 	0.58940 0.31050 0.43070 -0.59200
O 	O 	0.60960 0.08610 0.52010 -0.59300
O 	O 	0.71200 0.02350 0.57050 -0.38600
O 	O 	0.97740 0.13170 0.02730 -0.60800
O 	O 	0.83060 0.18950 0.06930 -0.59200
O 	O 	0.71580 0.41390 0.97990 -0.59300
O 	O 	0.80600 0.47650 0.92950 -0.38800
O 	O 	0.50470 0.97270 0.63170 -0.60800
O 	O 	0.39990 0.93070 0.68950 -0.59300
O 	O 	0.19570 0.02010 0.91390 -0.59200
O 	O 	0.23550 0.07050 0.97650 -0.38600
O 	O 	0.60910 0.52730 0.86830 -0.60700
O 	O 	0.52010 0.56930 0.81050 -0.59200
O 	O 	0.62970 0.47990 0.58610 -0.59300
O 	O 	0.78250 0.42950 0.52350 -0.38800
O 	O 	0.69720 0.14000 0.14000 -0.61000
O 	O 	0.47720 0.36000 0.36000 -0.61000
O 	O 	0.33720 0.86000 0.64000 -0.61000
O 	O 	0.33720 0.64000 0.86000 -0.61000
O 	O 	0.52280 0.64000 0.64000 -0.61000
O 	O 	0.30280 0.86000 0.86000 -0.61000
O 	O 	0.66280 0.14000 0.36000 -0.61000
O 	O 	0.66280 0.36000 0.14000 -0.61000
O 	O 	0.43354 0.25000 0.25000 -0.44100
O 	O 	0.18354 0.75000 0.75000 -0.44100
O 	O 	0.56646 0.75000 0.75000 -0.44100
O 	O 	0.81646 0.25000 0.25000 -0.44100
O 	O 	0.54707 0.21431 0.28569 -0.76200
O 	O 	0.54707 0.28569 0.21431 -0.76200
O 	O 	0.33276 0.71431 0.71431 -0.76200
O 	O 	0.26138 0.78569 0.78569 -0.76200
O 	O 	0.45293 0.78569 0.71431 -0.76200
O 	O 	0.45293 0.71431 0.78569 -0.76200
O 	O 	0.73862 0.21431 0.21431 -0.76200
O 	O 	0.66724 0.28569 0.28569 -0.76200
