data_crystal

_cell_length_a 12.07550
_cell_length_b 14.88870
_cell_length_c 11.83580
_cell_angle_alpha 90.00000
_cell_angle_beta  97.71900
_cell_angle_gamma 90.00000

_symmetry_space_group_name_	'P 1'
_symmetry_space_group_name_H-M	'P 1'

loop_
_symmetry_equiv_pos_as_xyz
  x,y,z

loop_
_atom_site_label
_atom_site_type_symbol
_atom_site_fract_x
_atom_site_fract_y
_atom_site_fract_z
_atom_site_charge
Zn	Zn	0.79550 0.38642 0.04387 1.20100
Zn	Zn	0.40407 0.23681 0.08893 1.23300
P 	P 	0.66986 0.23830 0.15549 0.53900
P 	P 	0.24787 0.41121 0.03706 0.58000
O 	O 	0.73450 0.32820 0.17050 -0.48300
O 	O 	0.26200 0.49190 0.96280 -0.44900
O 	O 	0.74290 0.16950 0.10240 -0.46400
O 	O 	0.56070 0.25140 0.07810 -0.51600
O 	O 	0.65180 0.20200 0.27290 -0.47200
O 	O 	0.33990 0.34550 0.01950 -0.46300
O 	O 	0.13420 0.36650 0.01280 -0.49200
O 	O 	0.26110 0.44570 0.16360 -0.48500
H 	H 	0.25380 0.40340 0.20650 0.28000
Zn	Zn	0.29550 0.88642 0.04387 1.20000
Zn	Zn	0.90407 0.73681 0.08893 1.22900
P 	P 	0.16986 0.73830 0.15549 0.53900
P 	P 	0.74787 0.91121 0.03706 0.57200
O 	O 	0.23450 0.82820 0.17050 -0.48300
O 	O 	0.76200 0.99190 0.96280 -0.44000
O 	O 	0.24290 0.66950 0.10240 -0.46400
O 	O 	0.06070 0.75140 0.07810 -0.51500
O 	O 	0.15180 0.70200 0.27290 -0.47200
O 	O 	0.83990 0.84550 0.01950 -0.46700
O 	O 	0.63420 0.86650 0.01280 -0.49700
O 	O 	0.76110 0.94570 0.16360 -0.48700
H 	H 	0.75380 0.90340 0.20650 0.28000
Zn	Zn	0.20450 0.38642 0.45613 1.20000
Zn	Zn	0.59593 0.23681 0.41107 1.23100
P 	P 	0.33014 0.23830 0.34451 0.53900
P 	P 	0.75213 0.41121 0.46294 0.57800
O 	O 	0.26550 0.32820 0.32950 -0.48200
O 	O 	0.73800 0.49190 0.53720 -0.44700
O 	O 	0.25710 0.16950 0.39760 -0.46400
O 	O 	0.43930 0.25140 0.42190 -0.51700
O 	O 	0.34820 0.20200 0.22710 -0.47100
O 	O 	0.66010 0.34550 0.48050 -0.46400
O 	O 	0.86580 0.36650 0.48720 -0.49600
O 	O 	0.73890 0.44570 0.33640 -0.48500
H 	H 	0.74620 0.40340 0.29350 0.27900
Zn	Zn	0.70450 0.88642 0.45613 1.20000
Zn	Zn	0.09593 0.73681 0.41107 1.23100
P 	P 	0.83014 0.73830 0.34451 0.53900
P 	P 	0.25213 0.91121 0.46294 0.57800
O 	O 	0.76550 0.82820 0.32950 -0.48300
O 	O 	0.23800 0.99190 0.53720 -0.44700
O 	O 	0.75710 0.66950 0.39760 -0.46500
O 	O 	0.93930 0.75140 0.42190 -0.51700
O 	O 	0.84820 0.70200 0.22710 -0.47300
O 	O 	0.16010 0.84550 0.48050 -0.46400
O 	O 	0.36580 0.86650 0.48720 -0.49600
O 	O 	0.23890 0.94570 0.33640 -0.48600
H 	H 	0.24620 0.90340 0.29350 0.27900
Zn	Zn	0.20450 0.61358 0.95613 1.20000
Zn	Zn	0.59593 0.76319 0.91107 1.23200
P 	P 	0.33014 0.76170 0.84451 0.53900
P 	P 	0.75213 0.58879 0.96294 0.58000
O 	O 	0.26550 0.67180 0.82950 -0.48300
O 	O 	0.73800 0.50810 0.03720 -0.44900
O 	O 	0.25710 0.83050 0.89760 -0.46400
O 	O 	0.43930 0.74860 0.92190 -0.51600
O 	O 	0.34820 0.79800 0.72710 -0.47200
O 	O 	0.66010 0.65450 0.98050 -0.46300
O 	O 	0.86580 0.63350 0.98720 -0.49200
O 	O 	0.73890 0.55430 0.83640 -0.48500
H 	H 	0.74620 0.59660 0.79350 0.28000
Zn	Zn	0.70450 0.11358 0.95613 1.20000
Zn	Zn	0.09593 0.26319 0.91107 1.22900
P 	P 	0.83014 0.26170 0.84451 0.53900
P 	P 	0.25213 0.08879 0.96294 0.57200
O 	O 	0.76550 0.17180 0.82950 -0.48300
O 	O 	0.23800 0.00810 0.03720 -0.44000
O 	O 	0.75710 0.33050 0.89760 -0.46400
O 	O 	0.93930 0.24860 0.92190 -0.51500
O 	O 	0.84820 0.29800 0.72710 -0.47200
O 	O 	0.16010 0.15450 0.98050 -0.46700
O 	O 	0.36580 0.13350 0.98720 -0.49700
O 	O 	0.23890 0.05430 0.83640 -0.48700
H 	H 	0.24620 0.09660 0.79350 0.28000
Zn	Zn	0.79550 0.61358 0.54387 1.20000
Zn	Zn	0.40407 0.76319 0.58893 1.23100
P 	P 	0.66986 0.76170 0.65549 0.53900
P 	P 	0.24787 0.58879 0.53706 0.57800
O 	O 	0.73450 0.67180 0.67050 -0.48200
O 	O 	0.26200 0.50810 0.46280 -0.44700
O 	O 	0.74290 0.83050 0.60240 -0.46400
O 	O 	0.56070 0.74860 0.57810 -0.51700
O 	O 	0.65180 0.79800 0.77290 -0.47100
O 	O 	0.33990 0.65450 0.51950 -0.46400
O 	O 	0.13420 0.63350 0.51280 -0.49600
O 	O 	0.26110 0.55430 0.66360 -0.48500
H 	H 	0.25380 0.59660 0.70650 0.27900
Zn	Zn	0.29550 0.11358 0.54387 1.20000
Zn	Zn	0.90407 0.26319 0.58893 1.23100
P 	P 	0.16986 0.26170 0.65549 0.53900
P 	P 	0.74787 0.08879 0.53706 0.57800
O 	O 	0.23450 0.17180 0.67050 -0.48300
O 	O 	0.76200 0.00810 0.46280 -0.44700
O 	O 	0.24290 0.33050 0.60240 -0.46500
O 	O 	0.06070 0.24860 0.57810 -0.51700
O 	O 	0.15180 0.29800 0.77290 -0.47300
O 	O 	0.83990 0.15450 0.51950 -0.46400
O 	O 	0.63420 0.13350 0.51280 -0.49600
O 	O 	0.76110 0.05430 0.66360 -0.48600
H 	H 	0.75380 0.09660 0.70650 0.27900
