data_crystal

_cell_length_a 12.08300
_cell_length_b 14.89300
_cell_length_c 11.78400
_cell_angle_alpha 90.00000
_cell_angle_beta  98.16000
_cell_angle_gamma 90.00000

_symmetry_space_group_name_	'P 1'
_symmetry_space_group_name_H-M	'P 1'

loop_
_symmetry_equiv_pos_as_xyz
  x,y,z

loop_
_atom_site_label
_atom_site_type_symbol
_atom_site_fract_x
_atom_site_fract_y
_atom_site_fract_z
_atom_site_charge
Zn	Zn	0.40399 0.73576 0.08798 1.23200
Zn	Zn	0.29531 0.61343 0.54504 1.20000
P 	P 	0.33025 0.73789 0.34463 0.52700
P 	P 	0.24860 0.91163 0.03598 0.52400
O 	O 	0.26403 0.99241 0.96169 -0.43700
O 	O 	0.44014 0.75183 0.42348 -0.51000
O 	O 	0.33810 0.84333 0.01580 -0.44700
O 	O 	0.13247 0.86882 0.01236 -0.47500
O 	O 	0.25706 0.66877 0.39727 -0.46500
O 	O 	0.26477 0.82760 0.32788 -0.43700
O 	O 	0.26579 0.94480 0.16424 -0.25000
O 	O 	0.34927 0.70107 0.22692 -0.46200
Zn	Zn	0.90399 0.23576 0.08798 1.23200
Zn	Zn	0.79531 0.11343 0.54504 1.20000
P 	P 	0.83025 0.23789 0.34463 0.52700
P 	P 	0.74860 0.41163 0.03598 0.52300
O 	O 	0.76403 0.49241 0.96169 -0.43600
O 	O 	0.94014 0.25183 0.42348 -0.51100
O 	O 	0.83810 0.34333 0.01580 -0.44700
O 	O 	0.63247 0.36882 0.01236 -0.47500
O 	O 	0.75706 0.16877 0.39727 -0.46500
O 	O 	0.76477 0.32760 0.32788 -0.43700
O 	O 	0.76579 0.44480 0.16424 -0.24900
O 	O 	0.84927 0.20107 0.22692 -0.46300
Zn	Zn	0.59601 0.73576 0.41202 1.23200
Zn	Zn	0.70469 0.61343 0.95496 1.20100
P 	P 	0.66975 0.73789 0.15537 0.52700
P 	P 	0.75140 0.91163 0.46402 0.52500
O 	O 	0.73597 0.99241 0.53831 -0.43900
O 	O 	0.55986 0.75183 0.07652 -0.51100
O 	O 	0.66190 0.84333 0.48420 -0.44600
O 	O 	0.86753 0.86882 0.48764 -0.47600
O 	O 	0.74294 0.66877 0.10273 -0.46700
O 	O 	0.73523 0.82760 0.17212 -0.43900
O 	O 	0.73421 0.94480 0.33576 -0.25000
O 	O 	0.65073 0.70107 0.27308 -0.46300
Zn	Zn	0.09601 0.23576 0.41202 1.23300
Zn	Zn	0.20469 0.11343 0.95496 1.19800
P 	P 	0.16975 0.23789 0.15537 0.52700
P 	P 	0.25140 0.41163 0.46402 0.52500
O 	O 	0.23597 0.49241 0.53831 -0.43900
O 	O 	0.05986 0.25183 0.07652 -0.50700
O 	O 	0.16190 0.34333 0.48420 -0.44600
O 	O 	0.36753 0.36882 0.48764 -0.47600
O 	O 	0.24294 0.16877 0.10273 -0.46200
O 	O 	0.23523 0.32760 0.17212 -0.43600
O 	O 	0.23421 0.44480 0.33576 -0.24800
O 	O 	0.15073 0.20107 0.27308 -0.46200
Zn	Zn	0.59601 0.26424 0.91202 1.23200
Zn	Zn	0.70469 0.38657 0.45496 1.20000
P 	P 	0.66975 0.26211 0.65537 0.52700
P 	P 	0.75140 0.08837 0.96402 0.52400
O 	O 	0.73597 0.00759 0.03831 -0.43700
O 	O 	0.55986 0.24817 0.57652 -0.51000
O 	O 	0.66190 0.15667 0.98420 -0.44700
O 	O 	0.86753 0.13118 0.98764 -0.47500
O 	O 	0.74294 0.33123 0.60273 -0.46500
O 	O 	0.73523 0.17240 0.67212 -0.43700
O 	O 	0.73421 0.05520 0.83576 -0.25000
O 	O 	0.65073 0.29893 0.77308 -0.46200
Zn	Zn	0.09601 0.76424 0.91202 1.23200
Zn	Zn	0.20469 0.88657 0.45496 1.20000
P 	P 	0.16975 0.76211 0.65537 0.52700
P 	P 	0.25140 0.58837 0.96402 0.52300
O 	O 	0.23597 0.50759 0.03831 -0.43600
O 	O 	0.05986 0.74817 0.57652 -0.51100
O 	O 	0.16190 0.65667 0.98420 -0.44700
O 	O 	0.36753 0.63118 0.98764 -0.47500
O 	O 	0.24294 0.83123 0.60273 -0.46500
O 	O 	0.23523 0.67240 0.67212 -0.43700
O 	O 	0.23421 0.55520 0.83576 -0.24900
O 	O 	0.15073 0.79893 0.77308 -0.46300
Zn	Zn	0.40399 0.26424 0.58798 1.23200
Zn	Zn	0.29531 0.38657 0.04504 1.20100
P 	P 	0.33025 0.26211 0.84463 0.52700
P 	P 	0.24860 0.08837 0.53598 0.52500
O 	O 	0.26403 0.00759 0.46169 -0.43900
O 	O 	0.44014 0.24817 0.92348 -0.51100
O 	O 	0.33810 0.15667 0.51580 -0.44600
O 	O 	0.13247 0.13118 0.51236 -0.47600
O 	O 	0.25706 0.33123 0.89727 -0.46700
O 	O 	0.26477 0.17240 0.82788 -0.43900
O 	O 	0.26579 0.05520 0.66424 -0.25000
O 	O 	0.34927 0.29893 0.72692 -0.46300
Zn	Zn	0.90399 0.76424 0.58798 1.23300
Zn	Zn	0.79531 0.88657 0.04504 1.19800
P 	P 	0.83025 0.76211 0.84463 0.52700
P 	P 	0.74860 0.58837 0.53598 0.52500
O 	O 	0.76403 0.50759 0.46169 -0.43900
O 	O 	0.94014 0.74817 0.92348 -0.50700
O 	O 	0.83810 0.65667 0.51580 -0.44600
O 	O 	0.63247 0.63118 0.51236 -0.47600
O 	O 	0.75706 0.83123 0.89727 -0.46200
O 	O 	0.76477 0.67240 0.82788 -0.43600
O 	O 	0.76579 0.55520 0.66424 -0.24800
O 	O 	0.84927 0.79893 0.72692 -0.46200
