data_crystal

_cell_length_a 12.09300
_cell_length_b 14.89700
_cell_length_c 11.84900
_cell_angle_alpha 90.00000
_cell_angle_beta  97.82100
_cell_angle_gamma 90.00000

_symmetry_space_group_name_	'P 1'
_symmetry_space_group_name_H-M	'P 1'

loop_
_symmetry_equiv_pos_as_xyz
  x,y,z

loop_
_atom_site_label
_atom_site_type_symbol
_atom_site_fract_x
_atom_site_fract_y
_atom_site_fract_z
_atom_site_charge
Zn	Zn	0.90416 0.23676 0.08895 1.23100
Zn	Zn	0.79552 0.11355 0.54378 1.20200
P 	P 	0.83020 0.23830 0.34462 0.53000
P 	P 	0.74770 0.41102 0.03719 0.57500
O 	O 	0.83950 0.34540 0.01960 -0.46500
O 	O 	0.84790 0.20223 0.22680 -0.46900
O 	O 	0.94070 0.25110 0.42210 -0.51500
O 	O 	0.86610 0.13360 0.98730 -0.48900
O 	O 	0.75700 0.16948 0.39770 -0.46200
O 	O 	0.76470 0.32822 0.32980 -0.48100
O 	O 	0.76160 0.49210 0.96300 -0.44500
O 	O 	0.76070 0.44540 0.16410 -0.47600
H 	H 	0.76200 0.40500 0.21300 0.27500
Zn	Zn	0.40416 0.73676 0.08895 1.23200
Zn	Zn	0.29552 0.61355 0.54378 1.20100
P 	P 	0.33020 0.73830 0.34462 0.52900
P 	P 	0.24770 0.91102 0.03719 0.57500
O 	O 	0.33950 0.84540 0.01960 -0.46500
O 	O 	0.34790 0.70223 0.22680 -0.46900
O 	O 	0.44070 0.75110 0.42210 -0.51600
O 	O 	0.36610 0.63360 0.98730 -0.49000
O 	O 	0.25700 0.66948 0.39770 -0.46300
O 	O 	0.26470 0.82822 0.32980 -0.48200
O 	O 	0.26160 0.99210 0.96300 -0.44700
O 	O 	0.26070 0.94540 0.16410 -0.47800
H 	H 	0.26200 0.90500 0.21300 0.27400
Zn	Zn	0.09584 0.23676 0.41105 1.23100
Zn	Zn	0.20448 0.11355 0.95622 1.19800
P 	P 	0.16980 0.23830 0.15538 0.52900
P 	P 	0.25230 0.41102 0.46281 0.57600
O 	O 	0.16050 0.34540 0.48040 -0.46500
O 	O 	0.15210 0.20223 0.27320 -0.46900
O 	O 	0.05930 0.25110 0.07790 -0.51300
O 	O 	0.13390 0.13360 0.51270 -0.49200
O 	O 	0.24300 0.16948 0.10230 -0.46000
O 	O 	0.23530 0.32822 0.17020 -0.48200
O 	O 	0.23840 0.49210 0.53700 -0.44800
O 	O 	0.23930 0.44540 0.33590 -0.47600
H 	H 	0.23800 0.40500 0.28700 0.27400
Zn	Zn	0.59584 0.73676 0.41105 1.23100
Zn	Zn	0.70448 0.61355 0.95622 1.20100
P 	P 	0.66980 0.73830 0.15538 0.52900
P 	P 	0.75230 0.91102 0.46281 0.57600
O 	O 	0.66050 0.84540 0.48040 -0.46500
O 	O 	0.65210 0.70223 0.27320 -0.47000
O 	O 	0.55930 0.75110 0.07790 -0.51700
O 	O 	0.63390 0.63360 0.51270 -0.49100
O 	O 	0.74300 0.66948 0.10230 -0.46500
O 	O 	0.73530 0.82822 0.17020 -0.48400
O 	O 	0.73840 0.99210 0.53700 -0.44900
O 	O 	0.73930 0.94540 0.33590 -0.47800
H 	H 	0.73800 0.90500 0.28700 0.27400
Zn	Zn	0.09584 0.76324 0.91105 1.23000
Zn	Zn	0.20448 0.88645 0.45622 1.20100
P 	P 	0.16980 0.76170 0.65538 0.52900
P 	P 	0.25230 0.58898 0.96281 0.57400
O 	O 	0.16050 0.65460 0.98040 -0.46600
O 	O 	0.15210 0.79777 0.77320 -0.47000
O 	O 	0.05930 0.74890 0.57790 -0.51600
O 	O 	0.13390 0.86640 0.01270 -0.49000
O 	O 	0.24300 0.83052 0.60230 -0.46300
O 	O 	0.23530 0.67178 0.67020 -0.48200
O 	O 	0.23840 0.50790 0.03700 -0.44600
O 	O 	0.23930 0.55460 0.83590 -0.47700
H 	H 	0.23800 0.59500 0.78700 0.27400
Zn	Zn	0.59584 0.26324 0.91105 1.23100
Zn	Zn	0.70448 0.38645 0.45622 1.20100
P 	P 	0.66980 0.26170 0.65538 0.52900
P 	P 	0.75230 0.08898 0.96281 0.57500
O 	O 	0.66050 0.15460 0.98040 -0.46500
O 	O 	0.65210 0.29777 0.77320 -0.46900
O 	O 	0.55930 0.24890 0.57790 -0.51600
O 	O 	0.63390 0.36640 0.01270 -0.49000
O 	O 	0.74300 0.33052 0.60230 -0.46300
O 	O 	0.73530 0.17178 0.67020 -0.48200
O 	O 	0.73840 0.00790 0.03700 -0.44700
O 	O 	0.73930 0.05460 0.83590 -0.47800
H 	H 	0.73800 0.09500 0.78700 0.27400
Zn	Zn	0.90416 0.76324 0.58895 1.23100
Zn	Zn	0.79552 0.88645 0.04378 1.19800
P 	P 	0.83020 0.76170 0.84462 0.52900
P 	P 	0.74770 0.58898 0.53719 0.57600
O 	O 	0.83950 0.65460 0.51960 -0.46500
O 	O 	0.84790 0.79777 0.72680 -0.46900
O 	O 	0.94070 0.74890 0.92210 -0.51300
O 	O 	0.86610 0.86640 0.48730 -0.49200
O 	O 	0.75700 0.83052 0.89770 -0.46000
O 	O 	0.76470 0.67178 0.82980 -0.48200
O 	O 	0.76160 0.50790 0.46300 -0.44800
O 	O 	0.76070 0.55460 0.66410 -0.47600
H 	H 	0.76200 0.59500 0.71300 0.27400
Zn	Zn	0.40416 0.26324 0.58895 1.23100
Zn	Zn	0.29552 0.38645 0.04378 1.20100
P 	P 	0.33020 0.26170 0.84462 0.52900
P 	P 	0.24770 0.08898 0.53719 0.57600
O 	O 	0.33950 0.15460 0.51960 -0.46500
O 	O 	0.34790 0.29777 0.72680 -0.47000
O 	O 	0.44070 0.24890 0.92210 -0.51700
O 	O 	0.36610 0.36640 0.48730 -0.49100
O 	O 	0.25700 0.33052 0.89770 -0.46500
O 	O 	0.26470 0.17178 0.82980 -0.48400
O 	O 	0.26160 0.00790 0.46300 -0.44900
O 	O 	0.26070 0.05460 0.66410 -0.47800
H 	H 	0.26200 0.09500 0.71300 0.27400
