data_crystal

_cell_length_a 4.96800
_cell_length_b 11.62100
_cell_length_c 19.66900
_cell_angle_alpha 107.16000
_cell_angle_beta  90.00000
_cell_angle_gamma 90.00000

_symmetry_space_group_name_	'P 1'
_symmetry_space_group_name_H-M	'P 1'

loop_
_symmetry_equiv_pos_as_xyz
  x,y,z

loop_
_atom_site_label
_atom_site_type_symbol
_atom_site_fract_x
_atom_site_fract_y
_atom_site_fract_z
_atom_site_charge
Mn	Mn	0.72526 0.61730 0.73122 1.25400
Mn	Mn	0.72065 0.87847 0.25697 1.25400
Mn	Mn	0.22395 0.87868 0.75777 1.18600
Mn	Mn	0.22590 0.61860 0.23400 1.18400
Mn	Mn	0.72526 0.38270 0.26878 1.25500
Mn	Mn	0.72065 0.12153 0.74303 1.25500
Mn	Mn	0.22395 0.12132 0.24223 1.18600
Mn	Mn	0.22590 0.38140 0.76600 1.18400
P 	P 	0.28820 0.67320 0.83625 0.23900
P 	P 	0.28330 0.83220 0.15535 0.18900
P 	P 	0.78450 0.32670 0.66260 0.37400
P 	P 	0.78690 0.16750 0.34250 0.42500
P 	P 	0.28820 0.32680 0.16375 0.23900
P 	P 	0.28330 0.16780 0.84465 0.18900
P 	P 	0.78450 0.67330 0.33740 0.37400
P 	P 	0.78690 0.83250 0.65750 0.42500
H 	H 	0.75726 0.76122 0.93202 0.10300
H 	H 	0.76093 0.80588 0.06421 0.11500
H 	H 	0.84766 0.07616 0.56490 0.01300
H 	H 	0.96171 0.02587 0.43491 0.04800
H 	H 	0.75726 0.23878 0.06798 0.10300
H 	H 	0.76093 0.19412 0.93579 0.11500
H 	H 	0.84766 0.92384 0.43510 0.01300
H 	H 	0.96171 0.97413 0.56509 0.04800
C 	C 	0.34700 0.73290 0.93030 -0.05600
C 	C 	0.36070 0.79380 0.06330 -0.03400
C 	C 	0.59820 0.76110 0.95970 -0.01400
C 	C 	0.59950 0.79040 0.03620 -0.03100
C 	C 	0.83300 0.18780 0.43570 -0.07200
C 	C 	0.84700 0.26630 0.56850 -0.04500
C 	C 	0.86070 0.13290 0.53810 -0.02500
C 	C 	0.89610 0.10290 0.46300 -0.01100
C 	C 	0.34700 0.26710 0.06970 -0.05600
C 	C 	0.36070 0.20620 0.93670 -0.03400
C 	C 	0.59820 0.23890 0.04030 -0.01400
C 	C 	0.59950 0.20960 0.96380 -0.03100
C 	C 	0.83300 0.81220 0.56430 -0.07200
C 	C 	0.84700 0.73370 0.43150 -0.04500
C 	C 	0.86070 0.86710 0.46190 -0.02500
C 	C 	0.89610 0.89710 0.53700 -0.01100
S 	S 	0.11430 0.74430 0.99681 -0.22000
S 	S 	0.80670 0.32770 0.50280 0.00300
S 	S 	0.11430 0.25570 0.00319 -0.22000
S 	S 	0.80670 0.67230 0.49720 0.00300
O 	O 	0.43200 0.74940 0.79900 -0.57900
O 	O 	0.43500 0.54850 0.80700 -0.54700
O 	O 	0.99220 0.66560 0.82180 -0.30500
O 	O 	0.42900 0.73330 0.18470 -0.54800
O 	O 	0.43000 0.95410 0.19030 -0.56000
O 	O 	0.98050 0.83580 0.16720 -0.29600
O 	O 	0.92800 0.23990 0.69920 -0.49500
O 	O 	0.93200 0.45060 0.68630 -0.46300
O 	O 	0.48400 0.33390 0.67460 -0.53800
O 	O 	0.92300 0.25830 0.31460 -0.49300
O 	O 	0.92000 0.04520 0.30330 -0.51000
O 	O 	0.48700 0.16670 0.33140 -0.54600
O 	O 	0.43200 0.25060 0.20100 -0.57900
O 	O 	0.43500 0.45150 0.19300 -0.54700
O 	O 	0.99220 0.33440 0.17820 -0.30500
O 	O 	0.42900 0.26670 0.81530 -0.54800
O 	O 	0.43000 0.04590 0.80970 -0.56000
O 	O 	0.98050 0.16420 0.83280 -0.29600
O 	O 	0.92800 0.76010 0.30080 -0.49500
O 	O 	0.93200 0.54940 0.31370 -0.46300
O 	O 	0.48400 0.66610 0.32540 -0.53800
O 	O 	0.92300 0.74170 0.68540 -0.49300
O 	O 	0.92000 0.95480 0.69670 -0.51000
O 	O 	0.48700 0.83330 0.66860 -0.54600
