data_crystal

_cell_length_a 9.63480
_cell_length_b 20.82200
_cell_length_c 20.82200
_cell_angle_alpha 90.00000
_cell_angle_beta  90.00000
_cell_angle_gamma 90.00000

_symmetry_space_group_name_	'P 1'
_symmetry_space_group_name_H-M	'P 1'

loop_
_symmetry_equiv_pos_as_xyz
  x,y,z

loop_
_atom_site_label
_atom_site_type_symbol
_atom_site_fract_x
_atom_site_fract_y
_atom_site_fract_z
_atom_site_charge
K 	K 	0.13870 0.83663 0.01563 0.63800
K 	K 	0.13870 0.66337 0.48437 0.63800
K 	K 	0.63870 0.98437 0.33663 0.63800
K 	K 	0.63870 0.51563 0.16337 0.63800
K 	K 	0.86130 0.16337 0.98437 0.63800
K 	K 	0.86130 0.33663 0.51563 0.63800
K 	K 	0.36130 0.01563 0.66337 0.63700
K 	K 	0.36130 0.48437 0.83663 0.63700
H 	H 	0.77900 0.87010 0.82430 0.02200
H 	H 	0.62000 0.95340 0.84470 0.07000
H 	H 	0.62600 0.76010 0.95550 0.02100
H 	H 	0.46200 0.83840 0.98290 0.05100
H 	H 	0.11900 0.36670 0.89110 0.02200
H 	H 	0.09700 0.26530 0.93760 0.04000
H 	H 	0.43200 0.31290 0.78550 0.01200
H 	H 	0.42800 0.20540 0.82880 0.05900
H 	H 	0.88400 0.91020 0.23450 0.00600
H 	H 	0.03200 0.92410 0.14390 0.07100
H 	H 	0.74600 0.08120 0.21260 -0.00400
H 	H 	0.89600 0.10870 0.12890 0.03600
H 	H 	0.77900 0.62990 0.67570 0.02200
H 	H 	0.62000 0.54660 0.65530 0.07000
H 	H 	0.62600 0.73990 0.54450 0.02000
H 	H 	0.46200 0.66160 0.51710 0.05100
H 	H 	0.11900 0.13330 0.60890 0.02300
H 	H 	0.09700 0.23470 0.56240 0.04000
H 	H 	0.43200 0.18710 0.71450 0.01200
H 	H 	0.42800 0.29460 0.67120 0.05900
H 	H 	0.88400 0.58980 0.26550 0.00500
H 	H 	0.03200 0.57590 0.35610 0.07300
H 	H 	0.74600 0.41880 0.28740 -0.00400
H 	H 	0.89600 0.39130 0.37110 0.03700
H 	H 	0.27900 0.17570 0.37010 0.02200
H 	H 	0.12000 0.15530 0.45340 0.07000
H 	H 	0.12600 0.04450 0.26010 0.02100
H 	H 	0.96200 0.01710 0.33840 0.05000
H 	H 	0.61900 0.10890 0.86670 0.02200
H 	H 	0.59700 0.06240 0.76530 0.03900
H 	H 	0.93200 0.21450 0.81290 0.01100
H 	H 	0.92800 0.17120 0.70540 0.05900
H 	H 	0.38400 0.76550 0.41020 0.00500
H 	H 	0.53200 0.85610 0.42410 0.07300
H 	H 	0.24600 0.78740 0.58120 -0.00400
H 	H 	0.39600 0.87110 0.60870 0.03700
H 	H 	0.27900 0.32430 0.12990 0.02200
H 	H 	0.12000 0.34470 0.04660 0.07000
H 	H 	0.12600 0.45550 0.23990 0.02000
H 	H 	0.96200 0.48290 0.16160 0.05100
H 	H 	0.61900 0.39110 0.63330 0.02200
H 	H 	0.59700 0.43760 0.73470 0.03900
H 	H 	0.93200 0.28550 0.68710 0.01100
H 	H 	0.92800 0.32880 0.79460 0.05900
H 	H 	0.38400 0.73450 0.08980 0.00500
H 	H 	0.53200 0.64390 0.07590 0.07400
H 	H 	0.24600 0.71260 0.91880 -0.00400
H 	H 	0.39600 0.62890 0.89130 0.03700
H 	H 	0.22100 0.12990 0.17570 0.02200
H 	H 	0.38000 0.04660 0.15530 0.07000
H 	H 	0.37400 0.23990 0.04450 0.02100
H 	H 	0.53800 0.16160 0.01710 0.05100
H 	H 	0.88100 0.63330 0.10890 0.02200
H 	H 	0.90300 0.73470 0.06240 0.04000
H 	H 	0.56800 0.68710 0.21450 0.01200
H 	H 	0.57200 0.79460 0.17120 0.05900
H 	H 	0.11600 0.08980 0.76550 0.00600
H 	H 	0.96800 0.07590 0.85610 0.07100
H 	H 	0.25400 0.91880 0.78740 -0.00400
H 	H 	0.10400 0.89130 0.87110 0.03600
H 	H 	0.22100 0.37010 0.32430 0.02200
H 	H 	0.38000 0.45340 0.34470 0.07000
H 	H 	0.37400 0.26010 0.45550 0.02000
H 	H 	0.53800 0.33840 0.48290 0.05100
H 	H 	0.88100 0.86670 0.39110 0.02300
H 	H 	0.90300 0.76530 0.43760 0.04000
H 	H 	0.56800 0.81290 0.28550 0.01200
H 	H 	0.57200 0.70540 0.32880 0.05900
H 	H 	0.11600 0.41020 0.73450 0.00500
H 	H 	0.96800 0.42410 0.64390 0.07300
H 	H 	0.25400 0.58120 0.71260 -0.00400
H 	H 	0.10400 0.60870 0.62890 0.03700
H 	H 	0.72100 0.82430 0.62990 0.02200
H 	H 	0.88000 0.84470 0.54660 0.07000
H 	H 	0.87400 0.95550 0.73990 0.02100
H 	H 	0.03800 0.98290 0.66160 0.05000
H 	H 	0.38100 0.89110 0.13330 0.02200
H 	H 	0.40300 0.93760 0.23470 0.03900
H 	H 	0.06800 0.78550 0.18710 0.01100
H 	H 	0.07200 0.82880 0.29460 0.05900
H 	H 	0.61600 0.23450 0.58980 0.00500
H 	H 	0.46800 0.14390 0.57590 0.07300
H 	H 	0.75400 0.21260 0.41880 -0.00400
H 	H 	0.60400 0.12890 0.39130 0.03700
H 	H 	0.72100 0.67570 0.87010 0.02200
H 	H 	0.88000 0.65530 0.95340 0.07000
H 	H 	0.87400 0.54450 0.76010 0.02000
H 	H 	0.03800 0.51710 0.83840 0.05100
H 	H 	0.38100 0.60890 0.36670 0.02200
H 	H 	0.40300 0.56240 0.26530 0.03900
H 	H 	0.06800 0.71450 0.31290 0.01100
H 	H 	0.07200 0.67120 0.20540 0.05900
H 	H 	0.61600 0.26550 0.91020 0.00500
H 	H 	0.46800 0.35610 0.92410 0.07400
H 	H 	0.75400 0.28740 0.08120 -0.00400
H 	H 	0.60400 0.37110 0.10870 0.03700
C 	C 	0.52149 0.90439 0.91657 0.03000
C 	C 	0.71318 0.86679 0.85396 0.05500
C 	C 	0.61683 0.91439 0.86731 -0.10100
C 	C 	0.62696 0.80137 0.93209 0.05600
C 	C 	0.52622 0.84590 0.94904 -0.09700
C 	C 	0.42189 0.95556 0.93611 0.10300
C 	C 	0.25843 0.22441 0.88695 0.01400
C 	C 	0.18074 0.33366 0.87768 0.03400
C 	C 	0.16752 0.27312 0.90537 -0.08100
C 	C 	0.36360 0.30116 0.81658 0.04000
C 	C 	0.35858 0.23932 0.84141 -0.08200
C 	C 	0.25286 0.15903 0.91668 0.10400
C 	C 	0.98235 0.01472 0.12431 0.02700
C 	C 	0.88459 0.94902 0.20711 0.06600
C 	C 	0.97656 0.95628 0.15630 -0.11700
C 	C 	0.80748 0.05173 0.19681 0.04900
C 	C 	0.89558 0.06380 0.14572 -0.08700
C 	C 	0.07736 0.02477 0.06884 0.10700
C 	C 	0.24897 0.98635 0.00430 0.15000
C 	C 	0.25210 0.04650 0.97408 -0.14300
C 	C 	0.34559 0.05845 0.92401 0.16700
C 	C 	0.15745 0.09396 0.99257 0.15000
C 	C 	0.52149 0.59561 0.58343 0.03000
C 	C 	0.71318 0.63321 0.64604 0.05500
C 	C 	0.61683 0.58561 0.63269 -0.10100
C 	C 	0.62696 0.69863 0.56791 0.05600
C 	C 	0.52622 0.65410 0.55096 -0.09700
C 	C 	0.42189 0.54444 0.56389 0.10300
C 	C 	0.25843 0.27559 0.61305 0.01400
C 	C 	0.18074 0.16634 0.62232 0.03400
C 	C 	0.16752 0.22688 0.59463 -0.08100
C 	C 	0.36360 0.19884 0.68342 0.04000
C 	C 	0.35858 0.26068 0.65859 -0.08200
C 	C 	0.25286 0.34097 0.58332 0.10400
C 	C 	0.98235 0.48528 0.37569 0.03000
C 	C 	0.88459 0.55098 0.29289 0.06700
C 	C 	0.97656 0.54372 0.34370 -0.12100
C 	C 	0.80748 0.44827 0.30319 0.05000
C 	C 	0.89558 0.43620 0.35428 -0.08800
C 	C 	0.07736 0.47523 0.43116 0.10400
C 	C 	0.24897 0.51365 0.49570 0.15200
C 	C 	0.25210 0.45350 0.52592 -0.14400
C 	C 	0.34559 0.44155 0.57599 0.16700
C 	C 	0.15745 0.40604 0.50743 0.15100
C 	C 	0.02149 0.08343 0.40439 0.03000
C 	C 	0.21318 0.14604 0.36679 0.05500
C 	C 	0.11683 0.13269 0.41439 -0.10200
C 	C 	0.12696 0.06791 0.30137 0.05500
C 	C 	0.02622 0.05096 0.34590 -0.09500
C 	C 	0.92189 0.06389 0.45556 0.10200
C 	C 	0.75843 0.11305 0.72441 0.01400
C 	C 	0.68074 0.12232 0.83366 0.03400
C 	C 	0.66752 0.09463 0.77312 -0.08100
C 	C 	0.86360 0.18342 0.80116 0.04000
C 	C 	0.85858 0.15859 0.73932 -0.08200
C 	C 	0.75286 0.08332 0.65903 0.10400
C 	C 	0.48235 0.87569 0.51472 0.03000
C 	C 	0.38459 0.79289 0.44902 0.06800
C 	C 	0.47656 0.84370 0.45628 -0.12200
C 	C 	0.30748 0.80319 0.55173 0.05000
C 	C 	0.39558 0.85428 0.56380 -0.08900
C 	C 	0.57736 0.93116 0.52477 0.10400
C 	C 	0.74897 0.99570 0.48635 0.15300
C 	C 	0.75210 0.02592 0.54650 -0.14500
C 	C 	0.84559 0.07599 0.55845 0.16700
C 	C 	0.65745 0.00743 0.59396 0.15000
C 	C 	0.02149 0.41657 0.09561 0.03000
C 	C 	0.21318 0.35396 0.13321 0.05500
C 	C 	0.11683 0.36731 0.08561 -0.10100
C 	C 	0.12696 0.43209 0.19863 0.05600
C 	C 	0.02622 0.44904 0.15410 -0.09700
C 	C 	0.92189 0.43611 0.04444 0.10300
C 	C 	0.75843 0.38695 0.77559 0.01400
C 	C 	0.68074 0.37768 0.66634 0.03400
C 	C 	0.66752 0.40537 0.72688 -0.08100
C 	C 	0.86360 0.31658 0.69884 0.04000
C 	C 	0.85858 0.34141 0.76068 -0.08200
C 	C 	0.75286 0.41668 0.84097 0.10400
C 	C 	0.48235 0.62431 0.98528 0.03100
C 	C 	0.38459 0.70711 0.05098 0.06800
C 	C 	0.47656 0.65630 0.04372 -0.12300
C 	C 	0.30748 0.69681 0.94827 0.05100
C 	C 	0.39558 0.64572 0.93620 -0.08900
C 	C 	0.57736 0.56884 0.97523 0.10400
C 	C 	0.74897 0.50430 0.01365 0.15200
C 	C 	0.75210 0.47408 0.95350 -0.14400
C 	C 	0.84559 0.42401 0.94155 0.16700
C 	C 	0.65745 0.49257 0.90604 0.15100
C 	C 	0.47851 0.09561 0.08343 0.03000
C 	C 	0.28682 0.13321 0.14604 0.05500
C 	C 	0.38317 0.08561 0.13269 -0.10100
C 	C 	0.37304 0.19863 0.06791 0.05600
C 	C 	0.47378 0.15410 0.05096 -0.09700
C 	C 	0.57811 0.04444 0.06389 0.10300
C 	C 	0.74157 0.77559 0.11305 0.01400
C 	C 	0.81926 0.66634 0.12232 0.03400
C 	C 	0.83248 0.72688 0.09463 -0.08100
C 	C 	0.63640 0.69884 0.18342 0.04000
C 	C 	0.64142 0.76068 0.15859 -0.08200
C 	C 	0.74714 0.84097 0.08332 0.10400
C 	C 	0.01765 0.98528 0.87569 0.02700
C 	C 	0.11541 0.05098 0.79289 0.06600
C 	C 	0.02344 0.04372 0.84370 -0.11700
C 	C 	0.19252 0.94827 0.80319 0.04900
C 	C 	0.10442 0.93620 0.85428 -0.08700
C 	C 	0.92264 0.97523 0.93116 0.10700
C 	C 	0.75103 0.01365 0.99570 0.15000
C 	C 	0.74790 0.95350 0.02592 -0.14300
C 	C 	0.65441 0.94155 0.07599 0.16700
C 	C 	0.84255 0.90604 0.00743 0.15000
C 	C 	0.47851 0.40439 0.41657 0.03000
C 	C 	0.28682 0.36679 0.35396 0.05500
C 	C 	0.38317 0.41439 0.36731 -0.10100
C 	C 	0.37304 0.30137 0.43209 0.05600
C 	C 	0.47378 0.34590 0.44904 -0.09700
C 	C 	0.57811 0.45556 0.43611 0.10300
C 	C 	0.74157 0.72441 0.38695 0.01400
C 	C 	0.81926 0.83366 0.37768 0.03400
C 	C 	0.83248 0.77312 0.40537 -0.08100
C 	C 	0.63640 0.80116 0.31658 0.04000
C 	C 	0.64142 0.73932 0.34141 -0.08200
C 	C 	0.74714 0.65903 0.41668 0.10400
C 	C 	0.01765 0.51472 0.62431 0.03000
C 	C 	0.11541 0.44902 0.70711 0.06700
C 	C 	0.02344 0.45628 0.65630 -0.12100
C 	C 	0.19252 0.55173 0.69681 0.05000
C 	C 	0.10442 0.56380 0.64572 -0.08800
C 	C 	0.92264 0.52477 0.56884 0.10400
C 	C 	0.75103 0.48635 0.50430 0.15200
C 	C 	0.74790 0.54650 0.47408 -0.14400
C 	C 	0.65441 0.55845 0.42401 0.16700
C 	C 	0.84255 0.59396 0.49257 0.15100
C 	C 	0.97851 0.91657 0.59561 0.03000
C 	C 	0.78682 0.85396 0.63321 0.05500
C 	C 	0.88317 0.86731 0.58561 -0.10200
C 	C 	0.87304 0.93209 0.69863 0.05500
C 	C 	0.97378 0.94904 0.65410 -0.09500
C 	C 	0.07811 0.93611 0.54444 0.10200
C 	C 	0.24157 0.88695 0.27559 0.01400
C 	C 	0.31926 0.87768 0.16634 0.03400
C 	C 	0.33248 0.90537 0.22688 -0.08100
C 	C 	0.13640 0.81658 0.19884 0.04000
C 	C 	0.14142 0.84141 0.26068 -0.08200
C 	C 	0.24714 0.91668 0.34097 0.10400
C 	C 	0.51765 0.12431 0.48528 0.03000
C 	C 	0.61541 0.20711 0.55098 0.06800
C 	C 	0.52344 0.15630 0.54372 -0.12200
C 	C 	0.69252 0.19681 0.44827 0.05000
C 	C 	0.60442 0.14572 0.43620 -0.08900
C 	C 	0.42264 0.06884 0.47523 0.10400
C 	C 	0.25103 0.00430 0.51365 0.15300
C 	C 	0.24790 0.97408 0.45350 -0.14500
C 	C 	0.15441 0.92401 0.44155 0.16700
C 	C 	0.34255 0.99257 0.40604 0.15000
C 	C 	0.97851 0.58343 0.90439 0.03000
C 	C 	0.78682 0.64604 0.86679 0.05500
C 	C 	0.88317 0.63269 0.91439 -0.10100
C 	C 	0.87304 0.56791 0.80137 0.05600
C 	C 	0.97378 0.55096 0.84590 -0.09700
C 	C 	0.07811 0.56389 0.95556 0.10300
C 	C 	0.24157 0.61305 0.22441 0.01400
C 	C 	0.31926 0.62232 0.33366 0.03400
C 	C 	0.33248 0.59463 0.27312 -0.08100
C 	C 	0.13640 0.68342 0.30116 0.04000
C 	C 	0.14142 0.65859 0.23932 -0.08200
C 	C 	0.24714 0.58332 0.15903 0.10400
C 	C 	0.51765 0.37569 0.01472 0.03100
C 	C 	0.61541 0.29289 0.94902 0.06800
C 	C 	0.52344 0.34370 0.95628 -0.12300
C 	C 	0.69252 0.30319 0.05173 0.05100
C 	C 	0.60442 0.35428 0.06380 -0.08900
C 	C 	0.42264 0.43116 0.02477 0.10400
C 	C 	0.25103 0.49570 0.98635 0.15200
C 	C 	0.24790 0.52592 0.04650 -0.14400
C 	C 	0.15441 0.57599 0.05845 0.16700
C 	C 	0.34255 0.50743 0.09396 0.15100
N 	N 	0.72137 0.81102 0.88601 -0.12700
N 	N 	0.33413 0.93911 0.98385 -0.18000
N 	N 	0.43412 0.01157 0.90499 -0.15100
N 	N 	0.27670 0.34837 0.83355 -0.15700
N 	N 	0.34813 0.11697 0.89555 -0.15300
N 	N 	0.15475 0.15119 0.96178 -0.18400
N 	N 	0.80064 0.99551 0.22786 -0.17400
N 	N 	0.06786 0.08284 0.04095 -0.18200
N 	N 	0.15990 0.97537 0.05345 -0.17700
N 	N 	0.72137 0.68898 0.61399 -0.12700
N 	N 	0.33413 0.56089 0.51615 -0.18100
N 	N 	0.43412 0.48843 0.59501 -0.15100
N 	N 	0.27670 0.15163 0.66645 -0.15700
N 	N 	0.34813 0.38303 0.60445 -0.15300
N 	N 	0.15475 0.34881 0.53822 -0.18400
N 	N 	0.80064 0.50449 0.27214 -0.17500
N 	N 	0.06786 0.41716 0.45905 -0.18200
N 	N 	0.15990 0.52463 0.44655 -0.17600
N 	N 	0.22137 0.11399 0.31102 -0.12700
N 	N 	0.83413 0.01615 0.43911 -0.18100
N 	N 	0.93412 0.09501 0.51157 -0.15100
N 	N 	0.77670 0.16645 0.84837 -0.15700
N 	N 	0.84813 0.10445 0.61697 -0.15400
N 	N 	0.65475 0.03822 0.65119 -0.18500
N 	N 	0.30064 0.77214 0.49551 -0.17500
N 	N 	0.56786 0.95905 0.58284 -0.18200
N 	N 	0.65990 0.94655 0.47537 -0.17600
N 	N 	0.22137 0.38601 0.18898 -0.12700
N 	N 	0.83413 0.48385 0.06089 -0.18100
N 	N 	0.93412 0.40499 0.98843 -0.15100
N 	N 	0.77670 0.33355 0.65163 -0.15700
N 	N 	0.84813 0.39555 0.88303 -0.15400
N 	N 	0.65475 0.46178 0.84881 -0.18400
N 	N 	0.30064 0.72786 0.00449 -0.17500
N 	N 	0.56786 0.54095 0.91716 -0.18200
N 	N 	0.65990 0.55345 0.02463 -0.17600
N 	N 	0.27863 0.18898 0.11399 -0.12700
N 	N 	0.66587 0.06089 0.01615 -0.18000
N 	N 	0.56588 0.98843 0.09501 -0.15100
N 	N 	0.72330 0.65163 0.16645 -0.15700
N 	N 	0.65187 0.88303 0.10445 -0.15300
N 	N 	0.84525 0.84881 0.03822 -0.18400
N 	N 	0.19936 0.00449 0.77214 -0.17400
N 	N 	0.93214 0.91716 0.95905 -0.18200
N 	N 	0.84010 0.02463 0.94655 -0.17700
N 	N 	0.27863 0.31102 0.38601 -0.12700
N 	N 	0.66587 0.43911 0.48385 -0.18100
N 	N 	0.56588 0.51157 0.40499 -0.15100
N 	N 	0.72330 0.84837 0.33355 -0.15700
N 	N 	0.65187 0.61697 0.39555 -0.15300
N 	N 	0.84525 0.65119 0.46178 -0.18400
N 	N 	0.19936 0.49551 0.72786 -0.17500
N 	N 	0.93214 0.58284 0.54095 -0.18200
N 	N 	0.84010 0.47537 0.55345 -0.17600
N 	N 	0.77863 0.88601 0.68898 -0.12700
N 	N 	0.16587 0.98385 0.56089 -0.18100
N 	N 	0.06588 0.90499 0.48843 -0.15100
N 	N 	0.22330 0.83355 0.15163 -0.15700
N 	N 	0.15187 0.89555 0.38303 -0.15400
N 	N 	0.34525 0.96178 0.34881 -0.18500
N 	N 	0.69936 0.22786 0.50449 -0.17500
N 	N 	0.43214 0.04095 0.41716 -0.18200
N 	N 	0.34010 0.05345 0.52463 -0.17600
N 	N 	0.77863 0.61399 0.81102 -0.12700
N 	N 	0.16587 0.51615 0.93911 -0.18100
N 	N 	0.06588 0.59501 0.01157 -0.15100
N 	N 	0.22330 0.66645 0.34837 -0.15700
N 	N 	0.15187 0.60445 0.11697 -0.15400
N 	N 	0.34525 0.53822 0.15119 -0.18400
N 	N 	0.69936 0.27214 0.99551 -0.17500
N 	N 	0.43214 0.45905 0.08284 -0.18200
N 	N 	0.34010 0.44655 0.97537 -0.17600
