data_crystal

_cell_length_a 17.12270
_cell_length_b 17.12270
_cell_length_c 17.12270
_cell_angle_alpha 90.00000
_cell_angle_beta  90.00000
_cell_angle_gamma 90.00000

_symmetry_space_group_name_	'P 1'
_symmetry_space_group_name_H-M	'P 1'

loop_
_symmetry_equiv_pos_as_xyz
  x,y,z

loop_
_atom_site_label
_atom_site_type_symbol
_atom_site_fract_x
_atom_site_fract_y
_atom_site_fract_z
_atom_site_charge
Zn	Zn	0.56533 0.43467 0.43467 1.21400
Zn	Zn	0.43467 0.56533 0.43467 1.21400
Zn	Zn	0.43467 0.43467 0.56533 1.21400
Zn	Zn	0.56533 0.56533 0.56533 1.21400
H 	H 	0.79621 0.58474 0.58474 0.04500
H 	H 	0.92277 0.62871 0.62871 0.11300
H 	H 	0.20379 0.41526 0.58474 0.05300
H 	H 	0.02813 0.44024 0.64619 0.12300
H 	H 	0.20379 0.58474 0.41526 0.03000
H 	H 	0.79621 0.41526 0.41526 0.03000
H 	H 	0.58474 0.79621 0.58474 0.05300
H 	H 	0.55268 0.99642 0.62753 0.12300
H 	H 	0.58474 0.20379 0.41526 0.03000
H 	H 	0.41526 0.20379 0.58474 0.04700
H 	H 	0.39494 0.07132 0.64617 0.11400
H 	H 	0.41526 0.79621 0.41526 0.03000
H 	H 	0.58474 0.58474 0.79621 0.03000
H 	H 	0.41526 0.58474 0.20379 0.04600
H 	H 	0.39494 0.64617 0.07132 0.11400
H 	H 	0.58474 0.41526 0.20379 0.03000
H 	H 	0.41526 0.41526 0.79621 0.05500
H 	H 	0.39911 0.44022 1.01506 0.12700
C 	C 	0.83030 0.54430 0.54430 0.01000
C 	C 	0.91120 0.54510 0.54510 0.09700
C 	C 	0.16970 0.45570 0.54430 0.01200
C 	C 	0.08880 0.45490 0.54510 0.10400
C 	C 	0.16970 0.54430 0.45570 0.07000
C 	C 	0.08880 0.54510 0.45490 -0.06800
C 	C 	0.83030 0.45570 0.45570 0.07100
C 	C 	0.91120 0.45490 0.45490 -0.07000
C 	C 	0.54430 0.83030 0.54430 0.01100
C 	C 	0.54510 0.91120 0.54510 0.10600
C 	C 	0.54430 0.16970 0.45570 0.07200
C 	C 	0.54510 0.08880 0.45490 -0.07200
C 	C 	0.45570 0.16970 0.54430 0.01100
C 	C 	0.45490 0.08880 0.54510 0.09300
C 	C 	0.45570 0.83030 0.45570 0.06800
C 	C 	0.45490 0.91120 0.45490 -0.06400
C 	C 	0.54430 0.54430 0.83030 0.06900
C 	C 	0.54510 0.54510 0.91120 -0.06500
C 	C 	0.45570 0.54430 0.16970 0.00900
C 	C 	0.45490 0.54510 0.08880 0.09200
C 	C 	0.54430 0.45570 0.16970 0.07000
C 	C 	0.54510 0.45490 0.08880 -0.07200
C 	C 	0.45570 0.45570 0.83030 0.01300
C 	C 	0.45490 0.45490 0.91120 0.10800
C 	C 	0.71150 0.50000 0.50000 0.43000
C 	C 	0.78970 0.50000 0.50000 -0.18600
C 	C 	0.95870 0.50000 0.50000 0.01200
C 	C 	0.28850 0.50000 0.50000 0.43000
C 	C 	0.21030 0.50000 0.50000 -0.18500
C 	C 	0.04130 0.50000 0.50000 0.00600
C 	C 	0.50000 0.71150 0.50000 0.42900
C 	C 	0.50000 0.78970 0.50000 -0.18400
C 	C 	0.50000 0.95870 0.50000 -0.00200
C 	C 	0.50000 0.28850 0.50000 0.43000
C 	C 	0.50000 0.21030 0.50000 -0.18700
C 	C 	0.50000 0.04130 0.50000 0.01200
C 	C 	0.50000 0.50000 0.71150 0.43000
C 	C 	0.50000 0.50000 0.78970 -0.18400
C 	C 	0.50000 0.50000 0.95870 -0.00300
C 	C 	0.50000 0.50000 0.28850 0.43000
C 	C 	0.50000 0.50000 0.21030 -0.18600
C 	C 	0.50000 0.50000 0.04130 0.00000
O 	O 	0.50000 0.50000 0.50000 -0.96400
O 	O 	0.67520 0.45380 0.45380 -0.51100
O 	O 	0.95900 0.59070 0.59070 -0.24000
O 	O 	0.32480 0.54620 0.45380 -0.51100
O 	O 	0.04100 0.40930 0.59070 -0.23900
O 	O 	0.32480 0.45380 0.54620 -0.50900
O 	O 	0.67520 0.54620 0.54620 -0.51000
O 	O 	0.45380 0.67520 0.45380 -0.51100
O 	O 	0.59070 0.95900 0.59070 -0.24200
O 	O 	0.45380 0.32480 0.54620 -0.51000
O 	O 	0.54620 0.32480 0.45380 -0.51100
O 	O 	0.40930 0.04100 0.59070 -0.24000
O 	O 	0.54620 0.67520 0.54620 -0.51000
O 	O 	0.45380 0.45380 0.67520 -0.50900
O 	O 	0.54620 0.45380 0.32480 -0.51100
O 	O 	0.40930 0.59070 0.04100 -0.24000
O 	O 	0.45380 0.54620 0.32480 -0.51100
O 	O 	0.54620 0.54620 0.67520 -0.51000
O 	O 	0.40930 0.40930 0.95900 -0.24000
H 	H 	0.05632 0.58620 0.41380 0.05200
H 	H 	0.94368 0.41380 0.41380 0.05400
H 	H 	0.58620 0.05632 0.41380 0.05400
H 	H 	0.41380 0.94368 0.41380 0.05100
H 	H 	0.58620 0.58620 0.94368 0.05000
H 	H 	0.58620 0.41380 0.05632 0.05200
