data_crystal

_cell_length_a 15.18690
_cell_length_b 24.15870
_cell_length_c 15.85110
_cell_angle_alpha 90.00000
_cell_angle_beta  111.14100
_cell_angle_gamma 90.00000

_symmetry_space_group_name_	'P 1'
_symmetry_space_group_name_H-M	'P 1'

loop_
_symmetry_equiv_pos_as_xyz
  x,y,z

loop_
_atom_site_label
_atom_site_type_symbol
_atom_site_fract_x
_atom_site_fract_y
_atom_site_fract_z
_atom_site_charge
Zn	Zn	0.57358 0.48734 0.36179 1.21900
O 	O 	0.67140 0.56556 0.35700 -0.36800
O 	O 	0.52740 0.56422 0.35770 -0.46000
O 	O 	0.59340 0.82411 0.36510 -0.31500
O 	O 	0.87000 0.94646 0.21150 -0.52300
O 	O 	0.95950 0.94544 0.35740 -0.50600
N 	N 	0.65800 0.46782 0.48880 -0.26900
C 	C 	0.62400 0.44950 0.55120 0.10300
H 	H 	0.55880 0.44050 0.53180 -0.00400
C 	C 	0.67720 0.44280 0.64090 -0.18500
H 	H 	0.64960 0.42880 0.68160 0.10800
C 	C 	0.77280 0.45670 0.67170 0.14500
C 	C 	0.80890 0.47360 0.60730 -0.17900
H 	H 	0.87420 0.48190 0.62480 0.09400
C 	C 	0.75080 0.47860 0.51820 0.10100
H 	H 	0.77760 0.49030 0.47540 -0.00500
C 	C 	0.82730 0.45660 0.76880 -0.12900
H 	H 	0.80880 0.43160 0.80560 0.08900
C 	C 	0.90100 0.48920 0.80890 -0.02300
H 	H 	0.92270 0.51140 0.77100 0.04000
C 	C 	0.95160 0.49380 0.90650 0.02500
C 	C 	0.00640 0.54050 0.94090 -0.06200
H 	H 	0.01130 0.56850 0.90070 0.05800
C 	C 	0.94630 0.45350 0.96710 -0.05100
H 	H 	0.90950 0.42120 0.94480 0.05500
C 	C 	0.59950 0.59050 0.35700 0.34800
C 	C 	0.59800 0.65190 0.35740 -0.18700
C 	C 	0.67170 0.68070 0.34700 0.14200
H 	H 	0.72250 0.66130 0.33930 -0.00800
C 	C 	0.67180 0.73810 0.34790 -0.26600
H 	H 	0.72170 0.75800 0.33910 0.12600
C 	C 	0.59930 0.76600 0.36160 0.28200
C 	C 	0.52490 0.73750 0.37270 -0.25200
H 	H 	0.47490 0.75690 0.38200 0.12700
C 	C 	0.52470 0.68060 0.36980 0.14400
H 	H 	0.47360 0.66070 0.37650 -0.00200
C 	C 	0.88430 0.93520 0.29250 0.48000
C 	C 	0.80640 0.90730 0.31120 -0.26800
C 	C 	0.72620 0.89160 0.24230 0.21400
H 	H 	0.71960 0.89950 0.18170 -0.02700
C 	C 	0.65430 0.86410 0.25940 -0.32800
H 	H 	0.59880 0.85310 0.21110 0.15600
C 	C 	0.66500 0.85310 0.34740 0.33500
C 	C 	0.74200 0.86960 0.41710 -0.33400
H 	H 	0.74690 0.86270 0.47770 0.15700
C 	C 	0.81330 0.89650 0.39950 0.21600
H 	H 	0.86810 0.90780 0.44840 -0.02900
Zn	Zn	0.07358 0.98734 0.36179 1.22000
O 	O 	0.17140 0.06556 0.35700 -0.36700
O 	O 	0.02740 0.06422 0.35770 -0.45900
O 	O 	0.09340 0.32411 0.36510 -0.31400
O 	O 	0.37000 0.44646 0.21150 -0.52200
O 	O 	0.45950 0.44544 0.35740 -0.50500
N 	N 	0.15800 0.96782 0.48880 -0.26800
C 	C 	0.12400 0.94950 0.55120 0.10400
H 	H 	0.05880 0.94050 0.53180 -0.00300
C 	C 	0.17720 0.94280 0.64090 -0.18400
H 	H 	0.14960 0.92880 0.68160 0.11000
C 	C 	0.27280 0.95670 0.67170 0.14700
C 	C 	0.30890 0.97360 0.60730 -0.17800
H 	H 	0.37420 0.98190 0.62480 0.09600
C 	C 	0.25080 0.97860 0.51820 0.10200
H 	H 	0.27760 0.99030 0.47540 -0.00400
C 	C 	0.32730 0.95660 0.76880 -0.12800
H 	H 	0.30880 0.93160 0.80560 0.09000
C 	C 	0.40100 0.98920 0.80890 -0.02100
H 	H 	0.42270 0.01140 0.77100 0.03800
C 	C 	0.45160 0.99380 0.90650 0.02700
C 	C 	0.50640 0.04050 0.94090 -0.06500
H 	H 	0.51130 0.06850 0.90070 0.05800
C 	C 	0.44630 0.95350 0.96710 -0.04900
H 	H 	0.40950 0.92120 0.94480 0.05400
C 	C 	0.09950 0.09050 0.35700 0.34700
C 	C 	0.09800 0.15190 0.35740 -0.18700
C 	C 	0.17170 0.18070 0.34700 0.14200
H 	H 	0.22250 0.16130 0.33930 -0.00800
C 	C 	0.17180 0.23810 0.34790 -0.26600
H 	H 	0.22170 0.25800 0.33910 0.12600
C 	C 	0.09930 0.26600 0.36160 0.28200
C 	C 	0.02490 0.23750 0.37270 -0.25200
H 	H 	0.97490 0.25690 0.38200 0.12700
C 	C 	0.02470 0.18060 0.36980 0.14300
H 	H 	0.97360 0.16070 0.37650 -0.00200
C 	C 	0.38430 0.43520 0.29250 0.48000
C 	C 	0.30640 0.40730 0.31120 -0.26800
C 	C 	0.22620 0.39160 0.24230 0.21400
H 	H 	0.21960 0.39950 0.18170 -0.02700
C 	C 	0.15430 0.36410 0.25940 -0.32800
H 	H 	0.09880 0.35310 0.21110 0.15600
C 	C 	0.16500 0.35310 0.34740 0.33500
C 	C 	0.24200 0.36960 0.41710 -0.33300
H 	H 	0.24690 0.36270 0.47770 0.15700
C 	C 	0.31330 0.39650 0.39950 0.21600
H 	H 	0.36810 0.40780 0.44840 -0.02900
Zn	Zn	0.42642 0.48734 0.13821 1.22000
O 	O 	0.32860 0.56556 0.14300 -0.36700
O 	O 	0.47260 0.56422 0.14230 -0.45900
O 	O 	0.40660 0.82411 0.13490 -0.31400
O 	O 	0.13000 0.94646 0.28850 -0.52200
O 	O 	0.04050 0.94544 0.14260 -0.50500
N 	N 	0.34200 0.46782 0.01120 -0.26800
C 	C 	0.37600 0.44950 0.94880 0.10300
H 	H 	0.44120 0.44050 0.96820 -0.00300
C 	C 	0.32280 0.44280 0.85910 -0.18400
H 	H 	0.35040 0.42880 0.81840 0.10900
C 	C 	0.22720 0.45670 0.82830 0.14600
C 	C 	0.19110 0.47360 0.89270 -0.17800
H 	H 	0.12580 0.48190 0.87520 0.09500
C 	C 	0.24920 0.47860 0.98180 0.10100
H 	H 	0.22240 0.49030 0.02460 -0.00400
C 	C 	0.17270 0.45660 0.73120 -0.12700
H 	H 	0.19120 0.43160 0.69440 0.09000
C 	C 	0.09900 0.48920 0.69110 -0.02300
H 	H 	0.07730 0.51140 0.72900 0.03900
C 	C 	0.04840 0.49380 0.59350 0.02500
C 	C 	0.99360 0.54050 0.55910 -0.06200
H 	H 	0.98870 0.56850 0.59930 0.05800
C 	C 	0.05370 0.45350 0.53290 -0.05100
H 	H 	0.09050 0.42120 0.55520 0.05500
C 	C 	0.40050 0.59050 0.14300 0.34800
C 	C 	0.40200 0.65190 0.14260 -0.18700
C 	C 	0.32830 0.68070 0.15300 0.14200
H 	H 	0.27750 0.66130 0.16070 -0.00800
C 	C 	0.32820 0.73810 0.15210 -0.26600
H 	H 	0.27830 0.75800 0.16090 0.12600
C 	C 	0.40070 0.76600 0.13840 0.28200
C 	C 	0.47510 0.73750 0.12730 -0.25200
H 	H 	0.52510 0.75690 0.11800 0.12700
C 	C 	0.47530 0.68060 0.13020 0.14400
H 	H 	0.52640 0.66070 0.12350 -0.00200
C 	C 	0.11570 0.93520 0.20750 0.48000
C 	C 	0.19360 0.90730 0.18880 -0.26800
C 	C 	0.27380 0.89160 0.25770 0.21400
H 	H 	0.28040 0.89950 0.31830 -0.02700
C 	C 	0.34570 0.86410 0.24060 -0.32800
H 	H 	0.40120 0.85310 0.28890 0.15600
C 	C 	0.33500 0.85310 0.15260 0.33500
C 	C 	0.25800 0.86960 0.08290 -0.33400
H 	H 	0.25310 0.86270 0.02230 0.15700
C 	C 	0.18670 0.89650 0.10050 0.21600
H 	H 	0.13190 0.90780 0.05160 -0.03000
Zn	Zn	0.92642 0.98734 0.13821 1.21900
O 	O 	0.82860 0.06556 0.14300 -0.36700
O 	O 	0.97260 0.06422 0.14230 -0.45800
O 	O 	0.90660 0.32411 0.13490 -0.31400
O 	O 	0.63000 0.44646 0.28850 -0.52200
O 	O 	0.54050 0.44544 0.14260 -0.50500
N 	N 	0.84200 0.96782 0.01120 -0.27100
C 	C 	0.87600 0.94950 0.94880 0.10700
H 	H 	0.94120 0.94050 0.96820 -0.00400
C 	C 	0.82280 0.94280 0.85910 -0.18600
H 	H 	0.85040 0.92880 0.81840 0.11000
C 	C 	0.72720 0.95670 0.82830 0.15000
C 	C 	0.69110 0.97360 0.89270 -0.18200
H 	H 	0.62580 0.98190 0.87520 0.09700
C 	C 	0.74920 0.97860 0.98180 0.10800
H 	H 	0.72240 0.99030 0.02460 -0.00800
C 	C 	0.67270 0.95660 0.73120 -0.13000
H 	H 	0.69120 0.93160 0.69440 0.09100
C 	C 	0.59900 0.98920 0.69110 -0.02000
H 	H 	0.57730 0.01140 0.72900 0.03800
C 	C 	0.54840 0.99380 0.59350 0.02500
C 	C 	0.49360 0.04050 0.55910 -0.06200
H 	H 	0.48870 0.06850 0.59930 0.05700
C 	C 	0.55370 0.95350 0.53290 -0.05100
H 	H 	0.59050 0.92120 0.55520 0.05500
C 	C 	0.90050 0.09050 0.14300 0.34800
C 	C 	0.90200 0.15190 0.14260 -0.18700
C 	C 	0.82830 0.18070 0.15300 0.14200
H 	H 	0.77750 0.16130 0.16070 -0.00800
C 	C 	0.82820 0.23810 0.15210 -0.26600
H 	H 	0.77830 0.25800 0.16090 0.12600
C 	C 	0.90070 0.26600 0.13840 0.28200
C 	C 	0.97510 0.23750 0.12730 -0.25200
H 	H 	0.02510 0.25690 0.11800 0.12700
C 	C 	0.97530 0.18060 0.13020 0.14400
H 	H 	0.02640 0.16070 0.12350 -0.00200
C 	C 	0.61570 0.43520 0.20750 0.48000
C 	C 	0.69360 0.40730 0.18880 -0.26800
C 	C 	0.77380 0.39160 0.25770 0.21400
H 	H 	0.78040 0.39950 0.31830 -0.02700
C 	C 	0.84570 0.36410 0.24060 -0.32800
H 	H 	0.90120 0.35310 0.28890 0.15600
C 	C 	0.83500 0.35310 0.15260 0.33500
C 	C 	0.75800 0.36960 0.08290 -0.33300
H 	H 	0.75310 0.36270 0.02230 0.15700
C 	C 	0.68670 0.39650 0.10050 0.21600
H 	H 	0.63190 0.40780 0.05160 -0.02900
Zn	Zn	0.42642 0.51266 0.63821 1.22000
O 	O 	0.32860 0.43444 0.64300 -0.36700
O 	O 	0.47260 0.43578 0.64230 -0.45900
O 	O 	0.40660 0.17589 0.63490 -0.31400
O 	O 	0.13000 0.05354 0.78850 -0.52200
O 	O 	0.04050 0.05456 0.64260 -0.50500
N 	N 	0.34200 0.53218 0.51120 -0.26800
C 	C 	0.37600 0.55050 0.44880 0.10400
H 	H 	0.44120 0.55950 0.46820 -0.00300
C 	C 	0.32280 0.55720 0.35910 -0.18400
H 	H 	0.35040 0.57120 0.31840 0.10900
C 	C 	0.22720 0.54330 0.32830 0.14600
C 	C 	0.19110 0.52640 0.39270 -0.17800
H 	H 	0.12580 0.51810 0.37520 0.09500
C 	C 	0.24920 0.52140 0.48180 0.10200
H 	H 	0.22240 0.50970 0.52460 -0.00400
C 	C 	0.17270 0.54340 0.23120 -0.12800
H 	H 	0.19120 0.56840 0.19440 0.09000
C 	C 	0.09900 0.51080 0.19110 -0.02300
H 	H 	0.07730 0.48860 0.22900 0.04000
C 	C 	0.04840 0.50620 0.09350 0.02500
C 	C 	0.99360 0.45950 0.05910 -0.06200
H 	H 	0.98870 0.43150 0.09930 0.05800
C 	C 	0.05370 0.54650 0.03290 -0.05100
H 	H 	0.09050 0.57880 0.05520 0.05500
C 	C 	0.40050 0.40950 0.64300 0.34800
C 	C 	0.40200 0.34810 0.64260 -0.18700
C 	C 	0.32830 0.31930 0.65300 0.14200
H 	H 	0.27750 0.33870 0.66070 -0.00800
C 	C 	0.32820 0.26190 0.65210 -0.26600
H 	H 	0.27830 0.24200 0.66090 0.12600
C 	C 	0.40070 0.23400 0.63840 0.28200
C 	C 	0.47510 0.26250 0.62730 -0.25200
H 	H 	0.52510 0.24310 0.61800 0.12700
C 	C 	0.47530 0.31940 0.63020 0.14400
H 	H 	0.52640 0.33930 0.62350 -0.00200
C 	C 	0.11570 0.06480 0.70750 0.48000
C 	C 	0.19360 0.09270 0.68880 -0.26800
C 	C 	0.27380 0.10840 0.75770 0.21400
H 	H 	0.28040 0.10050 0.81830 -0.02700
C 	C 	0.34570 0.13590 0.74060 -0.32800
H 	H 	0.40120 0.14690 0.78890 0.15600
C 	C 	0.33500 0.14690 0.65260 0.33500
C 	C 	0.25800 0.13040 0.58290 -0.33400
H 	H 	0.25310 0.13730 0.52230 0.15700
C 	C 	0.18670 0.10350 0.60050 0.21600
H 	H 	0.13190 0.09220 0.55160 -0.02900
Zn	Zn	0.92642 0.01266 0.63821 1.22000
O 	O 	0.82860 0.93444 0.64300 -0.36700
O 	O 	0.97260 0.93578 0.64230 -0.45900
O 	O 	0.90660 0.67589 0.63490 -0.31400
O 	O 	0.63000 0.55354 0.78850 -0.52200
O 	O 	0.54050 0.55456 0.64260 -0.50500
N 	N 	0.84200 0.03218 0.51120 -0.26800
C 	C 	0.87600 0.05050 0.44880 0.10400
H 	H 	0.94120 0.05950 0.46820 -0.00300
C 	C 	0.82280 0.05720 0.35910 -0.18400
H 	H 	0.85040 0.07120 0.31840 0.11000
C 	C 	0.72720 0.04330 0.32830 0.14700
C 	C 	0.69110 0.02640 0.39270 -0.17800
H 	H 	0.62580 0.01810 0.37520 0.09600
C 	C 	0.74920 0.02140 0.48180 0.10200
H 	H 	0.72240 0.00970 0.52460 -0.00400
C 	C 	0.67270 0.04340 0.23120 -0.12800
H 	H 	0.69120 0.06840 0.19440 0.09000
C 	C 	0.59900 0.01080 0.19110 -0.02100
H 	H 	0.57730 0.98860 0.22900 0.03800
C 	C 	0.54840 0.00620 0.09350 0.02700
C 	C 	0.49360 0.95950 0.05910 -0.06500
H 	H 	0.48870 0.93150 0.09930 0.05800
C 	C 	0.55370 0.04650 0.03290 -0.04900
H 	H 	0.59050 0.07880 0.05520 0.05400
C 	C 	0.90050 0.90950 0.64300 0.34700
C 	C 	0.90200 0.84810 0.64260 -0.18700
C 	C 	0.82830 0.81930 0.65300 0.14200
H 	H 	0.77750 0.83870 0.66070 -0.00800
C 	C 	0.82820 0.76190 0.65210 -0.26600
H 	H 	0.77830 0.74200 0.66090 0.12600
C 	C 	0.90070 0.73400 0.63840 0.28200
C 	C 	0.97510 0.76250 0.62730 -0.25200
H 	H 	0.02510 0.74310 0.61800 0.12700
C 	C 	0.97530 0.81940 0.63020 0.14300
H 	H 	0.02640 0.83930 0.62350 -0.00200
C 	C 	0.61570 0.56480 0.70750 0.48000
C 	C 	0.69360 0.59270 0.68880 -0.26800
C 	C 	0.77380 0.60840 0.75770 0.21400
H 	H 	0.78040 0.60050 0.81830 -0.02700
C 	C 	0.84570 0.63590 0.74060 -0.32800
H 	H 	0.90120 0.64690 0.78890 0.15600
C 	C 	0.83500 0.64690 0.65260 0.33500
C 	C 	0.75800 0.63040 0.58290 -0.33300
H 	H 	0.75310 0.63730 0.52230 0.15700
C 	C 	0.68670 0.60350 0.60050 0.21600
H 	H 	0.63190 0.59220 0.55160 -0.02900
Zn	Zn	0.57358 0.51266 0.86179 1.22000
O 	O 	0.67140 0.43444 0.85700 -0.36700
O 	O 	0.52740 0.43578 0.85770 -0.45900
O 	O 	0.59340 0.17589 0.86510 -0.31400
O 	O 	0.87000 0.05354 0.71150 -0.52200
O 	O 	0.95950 0.05456 0.85740 -0.50500
N 	N 	0.65800 0.53218 0.98880 -0.26800
C 	C 	0.62400 0.55050 0.05120 0.10300
H 	H 	0.55880 0.55950 0.03180 -0.00300
C 	C 	0.67720 0.55720 0.14090 -0.18400
H 	H 	0.64960 0.57120 0.18160 0.10900
C 	C 	0.77280 0.54330 0.17170 0.14600
C 	C 	0.80890 0.52640 0.10730 -0.17800
H 	H 	0.87420 0.51810 0.12480 0.09500
C 	C 	0.75080 0.52140 0.01820 0.10100
H 	H 	0.77760 0.50970 0.97540 -0.00400
C 	C 	0.82730 0.54340 0.26880 -0.12700
H 	H 	0.80880 0.56840 0.30560 0.09000
C 	C 	0.90100 0.51080 0.30890 -0.02300
H 	H 	0.92270 0.48860 0.27100 0.03900
C 	C 	0.95160 0.50620 0.40650 0.02500
C 	C 	0.00640 0.45950 0.44090 -0.06200
H 	H 	0.01130 0.43150 0.40070 0.05800
C 	C 	0.94630 0.54650 0.46710 -0.05100
H 	H 	0.90950 0.57880 0.44480 0.05500
C 	C 	0.59950 0.40950 0.85700 0.34800
C 	C 	0.59800 0.34810 0.85740 -0.18700
C 	C 	0.67170 0.31930 0.84700 0.14200
H 	H 	0.72250 0.33870 0.83930 -0.00800
C 	C 	0.67180 0.26190 0.84790 -0.26600
H 	H 	0.72170 0.24200 0.83910 0.12600
C 	C 	0.59930 0.23400 0.86160 0.28200
C 	C 	0.52490 0.26250 0.87270 -0.25200
H 	H 	0.47490 0.24310 0.88200 0.12700
C 	C 	0.52470 0.31940 0.86980 0.14400
H 	H 	0.47360 0.33930 0.87650 -0.00200
C 	C 	0.88430 0.06480 0.79250 0.48000
C 	C 	0.80640 0.09270 0.81120 -0.26800
C 	C 	0.72620 0.10840 0.74230 0.21400
H 	H 	0.71960 0.10050 0.68170 -0.02700
C 	C 	0.65430 0.13590 0.75940 -0.32800
H 	H 	0.59880 0.14690 0.71110 0.15600
C 	C 	0.66500 0.14690 0.84740 0.33500
C 	C 	0.74200 0.13040 0.91710 -0.33400
H 	H 	0.74690 0.13730 0.97770 0.15700
C 	C 	0.81330 0.10350 0.89950 0.21600
H 	H 	0.86810 0.09220 0.94840 -0.03000
Zn	Zn	0.07358 0.01266 0.86179 1.21900
O 	O 	0.17140 0.93444 0.85700 -0.36700
O 	O 	0.02740 0.93578 0.85770 -0.45800
O 	O 	0.09340 0.67589 0.86510 -0.31400
O 	O 	0.37000 0.55354 0.71150 -0.52200
O 	O 	0.45950 0.55456 0.85740 -0.50500
N 	N 	0.15800 0.03218 0.98880 -0.27100
C 	C 	0.12400 0.05050 0.05120 0.10700
H 	H 	0.05880 0.05950 0.03180 -0.00400
C 	C 	0.17720 0.05720 0.14090 -0.18600
H 	H 	0.14960 0.07120 0.18160 0.11000
C 	C 	0.27280 0.04330 0.17170 0.15000
C 	C 	0.30890 0.02640 0.10730 -0.18200
H 	H 	0.37420 0.01810 0.12480 0.09700
C 	C 	0.25080 0.02140 0.01820 0.10800
H 	H 	0.27760 0.00970 0.97540 -0.00800
C 	C 	0.32730 0.04340 0.26880 -0.13000
H 	H 	0.30880 0.06840 0.30560 0.09100
C 	C 	0.40100 0.01080 0.30890 -0.02000
H 	H 	0.42270 0.98860 0.27100 0.03800
C 	C 	0.45160 0.00620 0.40650 0.02500
C 	C 	0.50640 0.95950 0.44090 -0.06200
H 	H 	0.51130 0.93150 0.40070 0.05700
C 	C 	0.44630 0.04650 0.46710 -0.05100
H 	H 	0.40950 0.07880 0.44480 0.05500
C 	C 	0.09950 0.90950 0.85700 0.34800
C 	C 	0.09800 0.84810 0.85740 -0.18700
C 	C 	0.17170 0.81930 0.84700 0.14200
H 	H 	0.22250 0.83870 0.83930 -0.00800
C 	C 	0.17180 0.76190 0.84790 -0.26600
H 	H 	0.22170 0.74200 0.83910 0.12600
C 	C 	0.09930 0.73400 0.86160 0.28200
C 	C 	0.02490 0.76250 0.87270 -0.25200
H 	H 	0.97490 0.74310 0.88200 0.12700
C 	C 	0.02470 0.81940 0.86980 0.14400
H 	H 	0.97360 0.83930 0.87650 -0.00200
C 	C 	0.38430 0.56480 0.79250 0.48000
C 	C 	0.30640 0.59270 0.81120 -0.26800
C 	C 	0.22620 0.60840 0.74230 0.21400
H 	H 	0.21960 0.60050 0.68170 -0.02700
C 	C 	0.15430 0.63590 0.75940 -0.32800
H 	H 	0.09880 0.64690 0.71110 0.15600
C 	C 	0.16500 0.64690 0.84740 0.33500
C 	C 	0.24200 0.63040 0.91710 -0.33300
H 	H 	0.24690 0.63730 0.97770 0.15700
C 	C 	0.31330 0.60350 0.89950 0.21600
H 	H 	0.36810 0.59220 0.94840 -0.02900
