data_crystal

_cell_length_a 9.77620
_cell_length_b 9.92770
_cell_length_c 21.45260
_cell_angle_alpha 90.00000
_cell_angle_beta  93.44500
_cell_angle_gamma 90.00000

_symmetry_space_group_name_	'P 1'
_symmetry_space_group_name_H-M	'P 1'

loop_
_symmetry_equiv_pos_as_xyz
  x,y,z

loop_
_atom_site_label
_atom_site_type_symbol
_atom_site_fract_x
_atom_site_fract_y
_atom_site_fract_z
_atom_site_charge
Eu	Eu	0.06209 0.81114 0.96777 1.60000
Eu	Eu	0.43791 0.31114 0.53223 1.62600
Eu	Eu	0.93791 0.18887 0.03223 1.60000
Eu	Eu	0.56209 0.68887 0.46777 1.62600
Cd	Cd	0.53466 0.96500 0.78438 1.20800
Cd	Cd	0.18842 0.45968 0.90627 1.13800
Cd	Cd	0.96534 0.46500 0.71562 1.20900
Cd	Cd	0.31158 0.95968 0.59373 1.13600
Cd	Cd	0.46534 0.03500 0.21562 1.20800
Cd	Cd	0.81158 0.54032 0.09373 1.13800
Cd	Cd	0.03466 0.53500 0.28438 1.20900
Cd	Cd	0.68842 0.04032 0.40627 1.13600
H 	H 	0.67090 0.69660 0.69440 -0.04800
H 	H 	0.42040 0.30090 0.80960 -0.05300
H 	H 	0.82910 0.19660 0.80560 -0.04900
H 	H 	0.07960 0.80090 0.69040 -0.05600
H 	H 	0.32910 0.30340 0.30560 -0.04800
H 	H 	0.57960 0.69910 0.19040 -0.05300
H 	H 	0.17090 0.80340 0.19440 -0.04900
H 	H 	0.92040 0.19910 0.30960 -0.05600
C 	C 	0.76540 0.76790 0.82788 -0.07500
C 	C 	0.75350 0.85410 0.88368 0.35900
C 	C 	0.85300 0.66490 0.81304 -0.07700
C 	C 	0.96280 0.59140 0.84846 0.36400
C 	C 	0.71430 0.70260 0.73409 0.10000
C 	C 	0.27710 0.04650 0.85251 -0.07000
C 	C 	0.26540 0.89800 0.85021 0.35400
C 	C 	0.20740 0.15010 0.88044 -0.07500
C 	C 	0.09850 0.15720 0.92399 0.34600
C 	C 	0.36470 0.23780 0.82770 0.08200
C 	C 	0.73460 0.26790 0.67212 -0.07600
C 	C 	0.74650 0.35410 0.61632 0.36000
C 	C 	0.64700 0.16490 0.68696 -0.07900
C 	C 	0.53720 0.09140 0.65154 0.36800
C 	C 	0.78570 0.20260 0.76591 0.09900
C 	C 	0.22290 0.54650 0.64749 -0.08000
C 	C 	0.23460 0.39800 0.64979 0.36300
C 	C 	0.29260 0.65010 0.61956 -0.07500
C 	C 	0.40150 0.65720 0.57601 0.34500
C 	C 	0.13530 0.73780 0.67230 0.08100
C 	C 	0.23460 0.23210 0.17212 -0.07500
C 	C 	0.24650 0.14590 0.11632 0.35900
C 	C 	0.14700 0.33510 0.18696 -0.07700
C 	C 	0.03720 0.40860 0.15154 0.36400
C 	C 	0.28570 0.29740 0.26591 0.10000
C 	C 	0.72290 0.95350 0.14749 -0.07000
C 	C 	0.73460 0.10200 0.14979 0.35400
C 	C 	0.79260 0.84990 0.11956 -0.07500
C 	C 	0.90150 0.84280 0.07601 0.34600
C 	C 	0.63530 0.76220 0.17230 0.08200
C 	C 	0.26540 0.73210 0.32788 -0.07600
C 	C 	0.25350 0.64590 0.38368 0.36000
C 	C 	0.35300 0.83510 0.31304 -0.07900
C 	C 	0.46280 0.90860 0.34846 0.36800
C 	C 	0.21430 0.79740 0.23409 0.09900
C 	C 	0.77710 0.45350 0.35251 -0.08000
C 	C 	0.76540 0.60200 0.35021 0.36300
C 	C 	0.70740 0.34990 0.38044 -0.07500
C 	C 	0.59850 0.34280 0.42399 0.34500
C 	C 	0.86470 0.26220 0.32770 0.08100
N 	N 	0.67630 0.78910 0.77706 -0.23800
N 	N 	0.82040 0.62500 0.75293 -0.22900
N 	N 	0.37700 0.10420 0.81916 -0.23400
N 	N 	0.26520 0.27120 0.86444 -0.26200
N 	N 	0.82370 0.28910 0.72294 -0.23800
N 	N 	0.67960 0.12500 0.74707 -0.22900
N 	N 	0.12300 0.60420 0.68084 -0.23500
N 	N 	0.23480 0.77120 0.63556 -0.26300
N 	N 	0.32370 0.21090 0.22294 -0.23800
N 	N 	0.17960 0.37500 0.24707 -0.22900
N 	N 	0.62300 0.89580 0.18084 -0.23400
N 	N 	0.73480 0.72880 0.13556 -0.26200
N 	N 	0.17630 0.71090 0.27706 -0.23800
N 	N 	0.32040 0.87500 0.25293 -0.22900
N 	N 	0.87700 0.39580 0.31916 -0.23500
N 	N 	0.76520 0.22880 0.36444 -0.26300
O 	O 	0.65400 0.93390 0.88411 -0.44900
O 	O 	0.84010 0.84550 0.92887 -0.47900
O 	O 	0.99510 0.61710 0.90515 -0.60300
O 	O 	0.02490 0.49870 0.82163 -0.56300
O 	O 	0.34710 0.83570 0.81846 -0.44600
O 	O 	0.17170 0.84040 0.87872 -0.52700
O 	O 	0.04320 0.05290 0.94651 -0.52700
O 	O 	0.05780 0.27220 0.94189 -0.59100
O 	O 	0.84600 0.43390 0.61589 -0.44900
O 	O 	0.65990 0.34550 0.57113 -0.48400
O 	O 	0.50490 0.11710 0.59485 -0.60700
O 	O 	0.47510 0.99870 0.67837 -0.56500
O 	O 	0.15290 0.33570 0.68154 -0.44600
O 	O 	0.32830 0.34040 0.62128 -0.52800
O 	O 	0.45680 0.55290 0.55349 -0.53700
O 	O 	0.44220 0.77220 0.55811 -0.59600
O 	O 	0.34600 0.06610 0.11589 -0.44900
O 	O 	0.15990 0.15450 0.07113 -0.47900
O 	O 	0.00490 0.38290 0.09485 -0.60300
O 	O 	0.97510 0.50130 0.17837 -0.56300
O 	O 	0.65290 0.16430 0.18154 -0.44600
O 	O 	0.82830 0.15960 0.12128 -0.52700
O 	O 	0.95680 0.94710 0.05349 -0.52700
O 	O 	0.94220 0.72780 0.05811 -0.59100
O 	O 	0.15400 0.56610 0.38411 -0.44900
O 	O 	0.34010 0.65450 0.42887 -0.48400
O 	O 	0.49510 0.88290 0.40515 -0.60700
O 	O 	0.52490 0.00130 0.32163 -0.56500
O 	O 	0.84710 0.66430 0.31846 -0.44600
O 	O 	0.67170 0.65960 0.37872 -0.52800
O 	O 	0.54320 0.44710 0.44651 -0.53700
O 	O 	0.55780 0.22780 0.44189 -0.59600
