data_crystal

_cell_length_a 9.74810
_cell_length_b 9.88500
_cell_length_c 21.37850
_cell_angle_alpha 90.00000
_cell_angle_beta  93.46700
_cell_angle_gamma 90.00000

_symmetry_space_group_name_	'P 1'
_symmetry_space_group_name_H-M	'P 1'

loop_
_symmetry_equiv_pos_as_xyz
  x,y,z

loop_
_atom_site_label
_atom_site_type_symbol
_atom_site_fract_x
_atom_site_fract_y
_atom_site_fract_z
_atom_site_charge
C 	C 	0.23640 0.23200 0.17240 -0.06700
C 	C 	0.24670 0.14500 0.11650 0.35900
C 	C 	0.14630 0.33560 0.18700 -0.06800
C 	C 	0.03690 0.40790 0.15080 0.36000
C 	C 	0.28580 0.30110 0.26530 0.11300
H 	H 	0.32870 0.30800 0.30520 -0.04500
C 	C 	0.72520 0.95280 0.14810 -0.06100
C 	C 	0.73680 0.10130 0.14980 0.36200
C 	C 	0.79420 0.85070 0.11850 -0.07200
C 	C 	0.90370 0.84290 0.07520 0.34400
C 	C 	0.63680 0.76250 0.17200 0.09700
H 	H 	0.58240 0.69860 0.19060 -0.02600
Cd	Cd	0.46726 0.03643 0.21613 1.21300
Cd	Cd	0.81012 0.53903 0.09211 1.17800
Tb	Tb	0.93918 0.18787 0.03275 1.56700
N 	N 	0.32730 0.21190 0.22300 -0.23800
N 	N 	0.18090 0.37820 0.24680 -0.22900
N 	N 	0.62300 0.89630 0.18090 -0.23100
N 	N 	0.73440 0.72960 0.13460 -0.23700
O 	O 	0.34830 0.06600 0.11610 -0.43800
O 	O 	0.15890 0.15300 0.07150 -0.46800
O 	O 	0.00530 0.38180 0.09363 -0.57900
O 	O 	0.97330 0.50090 0.17770 -0.53700
O 	O 	0.65600 0.16520 0.18180 -0.45100
O 	O 	0.83020 0.16030 0.12090 -0.50700
O 	O 	0.95980 0.94830 0.05328 -0.51700
O 	O 	0.94070 0.72650 0.05640 -0.57700
O 	O 	0.63310 0.41620 0.12990 -0.41100
H 	H 	0.67300 0.35800 0.15400 -0.20200
H 	H 	0.56700 0.38000 0.10900 0.13100
O 	O 	0.68800 0.43300 0.17100 -0.29100
H 	H 	0.65320 0.34280 0.16540 0.46100
H 	H 	0.77310 0.45190 0.17300 0.07200
C 	C 	0.26360 0.73200 0.32760 -0.06900
C 	C 	0.25330 0.64500 0.38350 0.35900
C 	C 	0.35370 0.83560 0.31300 -0.07200
C 	C 	0.46310 0.90790 0.34920 0.36300
C 	C 	0.21420 0.80110 0.23470 0.11200
H 	H 	0.17130 0.80800 0.19480 -0.04600
C 	C 	0.77480 0.45280 0.35190 -0.07100
C 	C 	0.76320 0.60130 0.35020 0.37200
C 	C 	0.70580 0.35070 0.38150 -0.07100
C 	C 	0.59630 0.34290 0.42480 0.34400
C 	C 	0.86320 0.26250 0.32800 0.09600
H 	H 	0.91760 0.19860 0.30940 -0.02900
Cd	Cd	0.03274 0.53643 0.28387 1.21300
Cd	Cd	0.68988 0.03903 0.40789 1.17600
Tb	Tb	0.56082 0.68787 0.46725 1.59400
N 	N 	0.17270 0.71190 0.27700 -0.23900
N 	N 	0.31910 0.87820 0.25320 -0.22800
N 	N 	0.87700 0.39630 0.31910 -0.23100
N 	N 	0.76560 0.22960 0.36540 -0.23900
O 	O 	0.15170 0.56600 0.38390 -0.43800
O 	O 	0.34110 0.65300 0.42850 -0.47300
O 	O 	0.49470 0.88180 0.40637 -0.58400
O 	O 	0.52670 0.00090 0.32230 -0.54000
O 	O 	0.84400 0.66520 0.31820 -0.45200
O 	O 	0.66980 0.66030 0.37910 -0.50800
O 	O 	0.54020 0.44830 0.44672 -0.52800
O 	O 	0.55930 0.22650 0.44360 -0.58200
O 	O 	0.86690 0.91620 0.37010 -0.41100
H 	H 	0.82700 0.85800 0.34600 -0.19900
H 	H 	0.93300 0.88000 0.39100 0.13400
O 	O 	0.81200 0.93300 0.32900 -0.28800
H 	H 	0.84680 0.84280 0.33460 0.45800
H 	H 	0.72690 0.95190 0.32700 0.07400
C 	C 	0.76360 0.76800 0.82760 -0.06800
C 	C 	0.75330 0.85500 0.88350 0.35800
C 	C 	0.85370 0.66440 0.81300 -0.06900
C 	C 	0.96310 0.59210 0.84920 0.35900
C 	C 	0.71420 0.69890 0.73470 0.11300
H 	H 	0.67130 0.69200 0.69480 -0.04500
C 	C 	0.27480 0.04720 0.85190 -0.06100
C 	C 	0.26320 0.89870 0.85020 0.36200
C 	C 	0.20580 0.14930 0.88150 -0.07200
C 	C 	0.09630 0.15710 0.92480 0.34400
C 	C 	0.36320 0.23750 0.82800 0.09700
H 	H 	0.41760 0.30140 0.80940 -0.02600
Cd	Cd	0.53274 0.96357 0.78387 1.21300
Cd	Cd	0.18988 0.46097 0.90789 1.17800
Tb	Tb	0.06082 0.81213 0.96725 1.56700
N 	N 	0.67270 0.78810 0.77700 -0.23800
N 	N 	0.81910 0.62180 0.75320 -0.22900
N 	N 	0.37700 0.10370 0.81910 -0.23100
N 	N 	0.26560 0.27040 0.86540 -0.23700
O 	O 	0.65170 0.93400 0.88390 -0.43800
O 	O 	0.84110 0.84700 0.92850 -0.46800
O 	O 	0.99470 0.61820 0.90637 -0.57900
O 	O 	0.02670 0.49910 0.82230 -0.53700
O 	O 	0.34400 0.83480 0.81820 -0.45100
O 	O 	0.16980 0.83970 0.87910 -0.50700
O 	O 	0.04020 0.05170 0.94672 -0.51700
O 	O 	0.05930 0.27350 0.94360 -0.57700
O 	O 	0.36690 0.58380 0.87010 -0.41100
H 	H 	0.32700 0.64200 0.84600 -0.20200
H 	H 	0.43300 0.62000 0.89100 0.13100
O 	O 	0.31200 0.56700 0.82900 -0.29100
H 	H 	0.34680 0.65720 0.83460 0.46100
H 	H 	0.22690 0.54810 0.82700 0.07200
C 	C 	0.73640 0.26800 0.67240 -0.06900
C 	C 	0.74670 0.35500 0.61650 0.35900
C 	C 	0.64630 0.16440 0.68700 -0.07200
C 	C 	0.53690 0.09210 0.65080 0.36300
C 	C 	0.78580 0.19890 0.76530 0.11200
H 	H 	0.82870 0.19200 0.80520 -0.04600
C 	C 	0.22520 0.54720 0.64810 -0.07100
C 	C 	0.23680 0.39870 0.64980 0.37200
C 	C 	0.29420 0.64930 0.61850 -0.07100
C 	C 	0.40370 0.65710 0.57520 0.34400
C 	C 	0.13680 0.73750 0.67200 0.09600
H 	H 	0.08240 0.80140 0.69060 -0.02900
Cd	Cd	0.96726 0.46357 0.71613 1.21300
Cd	Cd	0.31012 0.96097 0.59211 1.17600
Tb	Tb	0.43918 0.31213 0.53275 1.59400
N 	N 	0.82730 0.28810 0.72300 -0.23900
N 	N 	0.68090 0.12180 0.74680 -0.22800
N 	N 	0.12300 0.60370 0.68090 -0.23100
N 	N 	0.23440 0.77040 0.63460 -0.23900
O 	O 	0.84830 0.43400 0.61610 -0.43800
O 	O 	0.65890 0.34700 0.57150 -0.47300
O 	O 	0.50530 0.11820 0.59363 -0.58400
O 	O 	0.47330 0.99910 0.67770 -0.54000
O 	O 	0.15600 0.33480 0.68180 -0.45200
O 	O 	0.33020 0.33970 0.62090 -0.50800
O 	O 	0.45980 0.55170 0.55328 -0.52800
O 	O 	0.44070 0.77350 0.55640 -0.58200
O 	O 	0.13310 0.08380 0.62990 -0.41100
H 	H 	0.17300 0.14200 0.65400 -0.19900
H 	H 	0.06700 0.12000 0.60900 0.13400
O 	O 	0.18800 0.06700 0.67100 -0.28800
H 	H 	0.15320 0.15720 0.66540 0.45800
H 	H 	0.27310 0.04810 0.67300 0.07400
