data_crystal

_cell_length_a 11.96790
_cell_length_b 19.20170
_cell_length_c 19.20170
_cell_angle_alpha 84.42680
_cell_angle_beta  71.84210
_cell_angle_gamma 71.84210

_symmetry_space_group_name_	'P 1'
_symmetry_space_group_name_H-M	'P 1'

loop_
_symmetry_equiv_pos_as_xyz
  x,y,z

loop_
_atom_site_label
_atom_site_type_symbol
_atom_site_fract_x
_atom_site_fract_y
_atom_site_fract_z
_atom_site_charge
Dy	Dy	0.48038 0.20110 0.63728 2.04600
Dy	Dy	0.42980 0.02168 0.60526 1.91800
Dy	Dy	0.81876 0.29890 0.86272 2.04800
Dy	Dy	0.55674 0.47832 0.89474 1.92100
Dy	Dy	0.11766 0.36272 0.70110 2.04300
Dy	Dy	0.03506 0.39474 0.52168 1.92000
Dy	Dy	0.68148 0.13728 0.79890 2.04500
Dy	Dy	0.45148 0.10526 0.97832 1.90300
Dy	Dy	0.51962 0.79890 0.36272 2.04500
Dy	Dy	0.57020 0.97832 0.39474 1.91700
Dy	Dy	0.18124 0.70110 0.13728 2.04700
Dy	Dy	0.44326 0.52168 0.10526 1.92000
Dy	Dy	0.88234 0.63728 0.29890 2.04200
Dy	Dy	0.96494 0.60526 0.47832 1.91900
Dy	Dy	0.31852 0.86272 0.20110 2.04500
Dy	Dy	0.54852 0.89474 0.02168 1.90300
H 	H 	0.64950 0.20950 0.43850 0.14900
H 	H 	0.76620 0.14300 0.43840 0.15600
H 	H 	0.79930 0.09380 0.54980 0.12900
H 	H 	0.85960 0.15780 0.53460 0.13500
H 	H 	0.54560 0.94010 0.77430 0.12700
H 	H 	0.67850 0.91310 0.71970 0.14100
H 	H 	0.46140 0.84060 0.68080 0.12000
H 	H 	0.48790 0.84940 0.75400 0.11800
H 	H 	0.05430 0.14880 0.67000 0.15300
H 	H 	0.11730 0.09900 0.72540 0.14200
H 	H 	0.09970 0.07230 0.55230 0.13600
H 	H 	0.14670 0.14050 0.54910 0.13000
H 	H 	0.68900 0.23780 0.53080 0.08900
H 	H 	0.61090 0.88610 0.64110 0.08000
H 	H 	0.17070 0.02540 0.63780 0.08600
H 	H 	0.79750 0.29050 0.06150 0.14900
H 	H 	0.84760 0.35700 0.06160 0.15500
H 	H 	0.94290 0.40620 0.95020 0.12500
H 	H 	0.05200 0.34220 0.96540 0.12600
H 	H 	0.76000 0.55990 0.72570 0.12700
H 	H 	0.81130 0.58690 0.78030 0.14200
H 	H 	0.48280 0.65940 0.81920 0.12000
H 	H 	0.59130 0.65060 0.74600 0.11800
H 	H 	0.37310 0.35120 0.83000 0.15400
H 	H 	0.44170 0.40100 0.77460 0.14300
H 	H 	0.22430 0.42770 0.94770 0.13600
H 	H 	0.33630 0.35950 0.95090 0.13000
H 	H 	0.95760 0.26220 0.96920 0.09100
H 	H 	0.63810 0.61390 0.85890 0.08000
H 	H 	0.33390 0.47460 0.86220 0.08700
H 	H 	0.08800 0.56150 0.70950 0.14800
H 	H 	0.20460 0.56160 0.64300 0.15500
H 	H 	0.34910 0.45020 0.59380 0.12800
H 	H 	0.39420 0.46540 0.65780 0.13400
H 	H 	0.31990 0.22570 0.44010 0.12700
H 	H 	0.39820 0.28030 0.41310 0.14100
H 	H 	0.14220 0.31920 0.34060 0.12000
H 	H 	0.24190 0.24600 0.34940 0.11800
H 	H 	0.72430 0.33000 0.64880 0.15400
H 	H 	0.84270 0.27460 0.59900 0.14300
H 	H 	0.65200 0.44770 0.57230 0.13600
H 	H 	0.69580 0.45090 0.64050 0.13000
H 	H 	0.21980 0.46920 0.73780 0.08900
H 	H 	0.25200 0.35890 0.38610 0.08000
H 	H 	0.80850 0.36220 0.52540 0.08700
H 	H 	0.85900 0.93850 0.79050 0.14900
H 	H 	0.90920 0.93840 0.85700 0.15700
H 	H 	0.89310 0.04980 0.90620 0.12400
H 	H 	0.01740 0.03460 0.84220 0.12600
H 	H 	0.48570 0.27430 0.05990 0.12600
H 	H 	0.59160 0.21970 0.08690 0.14000
H 	H 	0.30200 0.18080 0.15940 0.12000
H 	H 	0.33730 0.25400 0.15060 0.11800
H 	H 	0.20310 0.17000 0.85120 0.15300
H 	H 	0.21630 0.22540 0.90100 0.14200
H 	H 	0.17200 0.05230 0.92770 0.13600
H 	H 	0.28720 0.04910 0.85950 0.13200
H 	H 	0.92680 0.03080 0.76220 0.09000
H 	H 	0.49700 0.14110 0.11390 0.08000
H 	H 	0.19610 0.13780 0.97460 0.08400
H 	H 	0.35050 0.79050 0.56150 0.14900
H 	H 	0.23380 0.85700 0.56160 0.15600
H 	H 	0.20070 0.90620 0.45020 0.12900
H 	H 	0.14040 0.84220 0.46540 0.13500
H 	H 	0.45440 0.05990 0.22570 0.12700
H 	H 	0.32150 0.08690 0.28030 0.14100
H 	H 	0.53860 0.15940 0.31920 0.12000
H 	H 	0.51210 0.15060 0.24600 0.11800
H 	H 	0.94570 0.85120 0.33000 0.15300
H 	H 	0.88270 0.90100 0.27460 0.14200
H 	H 	0.90030 0.92770 0.44770 0.13600
H 	H 	0.85330 0.85950 0.45090 0.13000
H 	H 	0.31100 0.76220 0.46920 0.08900
H 	H 	0.38910 0.11390 0.35890 0.08000
H 	H 	0.82930 0.97460 0.36220 0.08600
H 	H 	0.20250 0.70950 0.93850 0.14900
H 	H 	0.15240 0.64300 0.93840 0.15500
H 	H 	0.05710 0.59380 0.04980 0.12500
H 	H 	0.94800 0.65780 0.03460 0.12600
H 	H 	0.24000 0.44010 0.27430 0.12700
H 	H 	0.18870 0.41310 0.21970 0.14200
H 	H 	0.51720 0.34060 0.18080 0.12000
H 	H 	0.40870 0.34940 0.25400 0.11800
H 	H 	0.62690 0.64880 0.17000 0.15400
H 	H 	0.55830 0.59900 0.22540 0.14300
H 	H 	0.77570 0.57230 0.05230 0.13600
H 	H 	0.66370 0.64050 0.04910 0.13000
H 	H 	0.04240 0.73780 0.03080 0.09100
H 	H 	0.36190 0.38610 0.14110 0.08000
H 	H 	0.66610 0.52540 0.13780 0.08700
H 	H 	0.91200 0.43850 0.29050 0.14800
H 	H 	0.79540 0.43840 0.35700 0.15500
H 	H 	0.65090 0.54980 0.40620 0.12800
H 	H 	0.60580 0.53460 0.34220 0.13400
H 	H 	0.68010 0.77430 0.55990 0.12700
H 	H 	0.60180 0.71970 0.58690 0.14100
H 	H 	0.85780 0.68080 0.65940 0.12000
H 	H 	0.75810 0.75400 0.65060 0.11800
H 	H 	0.27570 0.67000 0.35120 0.15400
H 	H 	0.15730 0.72540 0.40100 0.14300
H 	H 	0.34800 0.55230 0.42770 0.13600
H 	H 	0.30420 0.54910 0.35950 0.13000
H 	H 	0.78020 0.53080 0.26220 0.08900
H 	H 	0.74800 0.64110 0.61390 0.08000
H 	H 	0.19150 0.63780 0.47460 0.08700
H 	H 	0.14100 0.06150 0.20950 0.14900
H 	H 	0.09080 0.06160 0.14300 0.15700
H 	H 	0.10690 0.95020 0.09380 0.12400
H 	H 	0.98260 0.96540 0.15780 0.12600
H 	H 	0.51430 0.72570 0.94010 0.12600
H 	H 	0.40840 0.78030 0.91310 0.14000
H 	H 	0.69800 0.81920 0.84060 0.12000
H 	H 	0.66270 0.74600 0.84940 0.11800
H 	H 	0.79690 0.83000 0.14880 0.15300
H 	H 	0.78370 0.77460 0.09900 0.14200
H 	H 	0.82800 0.94770 0.07230 0.13600
H 	H 	0.71280 0.95090 0.14050 0.13200
H 	H 	0.07320 0.96920 0.23780 0.09000
H 	H 	0.50300 0.85890 0.88610 0.08000
H 	H 	0.80390 0.86220 0.02540 0.08400
C 	C 	0.60600 0.11540 0.47800 0.55900
C 	C 	0.68200 0.16730 0.46630 -0.39100
C 	C 	0.78570 0.14450 0.56110 -0.33100
C 	C 	0.76080 0.15250 0.64230 0.43200
C 	C 	0.59800 0.02320 0.71140 0.54900
C 	C 	0.59530 0.94430 0.72430 -0.35500
C 	C 	0.46110 0.87600 0.71360 -0.30800
C 	C 	0.33210 0.92670 0.74290 0.41000
C 	C 	0.20650 0.17340 0.67380 0.56700
C 	C 	0.13290 0.12170 0.67730 -0.38900
C 	C 	0.16990 0.08740 0.55220 -0.33800
C 	C 	0.27450 0.05600 0.48660 0.43200
C 	C 	0.69940 0.38460 0.02200 0.55900
C 	C 	0.81560 0.33270 0.03370 -0.39100
C 	C 	0.99130 0.35550 0.93890 -0.31400
C 	C 	0.05560 0.34750 0.85770 0.42400
C 	C 	0.83260 0.47680 0.78860 0.55200
C 	C 	0.76390 0.55570 0.77570 -0.35900
C 	C 	0.55070 0.62400 0.78640 -0.30900
C 	C 	0.50170 0.57330 0.75710 0.41100
C 	C 	0.55370 0.32660 0.82620 0.56700
C 	C 	0.43190 0.37830 0.82270 -0.39000
C 	C 	0.30950 0.41260 0.94780 -0.34100
C 	C 	0.31710 0.44400 0.01340 0.43600
C 	C 	0.08400 0.52200 0.61540 0.55900
C 	C 	0.14830 0.53370 0.66730 -0.39000
C 	C 	0.34680 0.43890 0.64450 -0.33000
C 	C 	0.40310 0.35770 0.65250 0.43200
C 	C 	0.30940 0.28860 0.52320 0.55200
C 	C 	0.31960 0.27570 0.44430 -0.35900
C 	C 	0.17470 0.28640 0.37600 -0.30900
C 	C 	0.07500 0.25710 0.42670 0.41100
C 	C 	0.88030 0.32620 0.67340 0.56700
C 	C 	0.81020 0.32270 0.62170 -0.39000
C 	C 	0.72210 0.44780 0.58740 -0.33800
C 	C 	0.76110 0.51340 0.55600 0.43300
C 	C 	0.72140 0.97800 0.88460 0.56500
C 	C 	0.84930 0.96630 0.83270 -0.38900
C 	C 	0.93020 0.06110 0.85550 -0.31900
C 	C 	0.91330 0.14230 0.84750 0.42800
C 	C 	0.62120 0.21140 0.97680 0.54700
C 	C 	0.53960 0.22430 0.05570 -0.35400
C 	C 	0.33710 0.21360 0.12400 -0.30700
C 	C 	0.25880 0.24290 0.07330 0.40900
C 	C 	0.37990 0.17380 0.82660 0.56600
C 	C 	0.25460 0.17730 0.87830 -0.39000
C 	C 	0.25730 0.05220 0.91260 -0.34800
C 	C 	0.33050 0.98660 0.94400 0.44000
C 	C 	0.39400 0.88460 0.52200 0.55900
C 	C 	0.31800 0.83270 0.53370 -0.39100
C 	C 	0.21430 0.85550 0.43890 -0.33100
C 	C 	0.23920 0.84750 0.35770 0.43200
C 	C 	0.40200 0.97680 0.28860 0.54900
C 	C 	0.40470 0.05570 0.27570 -0.35500
C 	C 	0.53890 0.12400 0.28640 -0.30800
C 	C 	0.66790 0.07330 0.25710 0.41000
C 	C 	0.79350 0.82660 0.32620 0.56700
C 	C 	0.86710 0.87830 0.32270 -0.38900
C 	C 	0.83010 0.91260 0.44780 -0.33800
C 	C 	0.72550 0.94400 0.51340 0.43200
C 	C 	0.30060 0.61540 0.97800 0.55900
C 	C 	0.18440 0.66730 0.96630 -0.39100
C 	C 	0.00870 0.64450 0.06110 -0.31400
C 	C 	0.94440 0.65250 0.14230 0.42400
C 	C 	0.16740 0.52320 0.21140 0.55200
C 	C 	0.23610 0.44430 0.22430 -0.35900
C 	C 	0.44930 0.37600 0.21360 -0.30900
C 	C 	0.49830 0.42670 0.24290 0.41100
C 	C 	0.44630 0.67340 0.17380 0.56700
C 	C 	0.56810 0.62170 0.17730 -0.39000
C 	C 	0.69050 0.58740 0.05220 -0.34100
C 	C 	0.68290 0.55600 0.98660 0.43600
C 	C 	0.91600 0.47800 0.38460 0.55900
C 	C 	0.85170 0.46630 0.33270 -0.39000
C 	C 	0.65320 0.56110 0.35550 -0.33000
C 	C 	0.59690 0.64230 0.34750 0.43200
C 	C 	0.69060 0.71140 0.47680 0.55200
C 	C 	0.68040 0.72430 0.55570 -0.35900
C 	C 	0.82530 0.71360 0.62400 -0.30900
C 	C 	0.92500 0.74290 0.57330 0.41100
C 	C 	0.11970 0.67380 0.32660 0.56700
C 	C 	0.18980 0.67730 0.37830 -0.39000
C 	C 	0.27790 0.55220 0.41260 -0.33800
C 	C 	0.23890 0.48660 0.44400 0.43300
C 	C 	0.27860 0.02200 0.11540 0.56500
C 	C 	0.15070 0.03370 0.16730 -0.38900
C 	C 	0.06980 0.93890 0.14450 -0.31900
C 	C 	0.08670 0.85770 0.15250 0.42800
C 	C 	0.37880 0.78860 0.02320 0.54700
C 	C 	0.46040 0.77570 0.94430 -0.35400
C 	C 	0.66290 0.78640 0.87600 -0.30700
C 	C 	0.74120 0.75710 0.92670 0.40900
C 	C 	0.62010 0.82620 0.17340 0.56600
C 	C 	0.74540 0.82270 0.12170 -0.39000
C 	C 	0.74270 0.94780 0.08740 -0.34800
C 	C 	0.66950 0.01340 0.05600 0.44000
N 	N 	0.68010 0.19210 0.53770 -0.16700
N 	N 	0.54670 0.91650 0.67450 -0.15100
N 	N 	0.19890 0.06460 0.62120 -0.14900
N 	N 	0.90990 0.30790 0.96230 -0.16900
N 	N 	0.63770 0.58350 0.82550 -0.15100
N 	N 	0.38470 0.43540 0.87880 -0.14900
N 	N 	0.21780 0.46230 0.69210 -0.16700
N 	N 	0.22120 0.32550 0.41650 -0.15100
N 	N 	0.82010 0.37880 0.56460 -0.14900
N 	N 	0.87220 0.03770 0.80790 -0.17000
N 	N 	0.46320 0.17450 0.08350 -0.15000
N 	N 	0.26350 0.12120 0.93540 -0.14800
N 	N 	0.31990 0.80790 0.46230 -0.16700
N 	N 	0.45330 0.08350 0.32550 -0.15100
N 	N 	0.80110 0.93540 0.37880 -0.14900
N 	N 	0.09010 0.69210 0.03770 -0.16900
N 	N 	0.36230 0.41650 0.17450 -0.15100
N 	N 	0.61530 0.56460 0.12120 -0.14900
N 	N 	0.78220 0.53770 0.30790 -0.16700
N 	N 	0.77880 0.67450 0.58350 -0.15100
N 	N 	0.17990 0.62120 0.43540 -0.14900
N 	N 	0.12780 0.96230 0.19210 -0.17000
N 	N 	0.53680 0.82550 0.91650 -0.15000
N 	N 	0.73650 0.87880 0.06460 -0.14800
O 	O 	0.53760 0.10940 0.54140 -0.61900
O 	O 	0.61190 0.08350 0.42250 -0.52700
O 	O 	0.64760 0.18020 0.68120 -0.62400
O 	O 	0.84110 0.12620 0.67320 -0.43900
O 	O 	0.53020 0.06430 0.67550 -0.59900
O 	O 	0.66470 0.04100 0.74080 -0.53500
O 	O 	0.31570 0.99150 0.72210 -0.46700
O 	O 	0.25080 0.89580 0.77620 -0.28100
O 	O 	0.32390 0.14760 0.64420 -0.64500
O 	O 	0.15390 0.23680 0.69720 -0.55600
O 	O 	0.38590 0.04370 0.49010 -0.59000
O 	O 	0.25490 0.04230 0.43070 -0.33600
O 	O 	0.68840 0.39060 0.95860 -0.62000
O 	O 	0.61790 0.41650 0.07750 -0.52800
O 	O 	0.00900 0.31980 0.81880 -0.62400
O 	O 	0.14050 0.37380 0.82680 -0.43800
O 	O 	0.77000 0.43570 0.82450 -0.59900
O 	O 	0.94650 0.45900 0.75920 -0.53300
O 	O 	0.52930 0.50850 0.77790 -0.47100
O 	O 	0.42280 0.60420 0.72380 -0.28300
O 	O 	0.61570 0.35240 0.85580 -0.64600
O 	O 	0.58790 0.26320 0.80280 -0.55600
O 	O 	0.41970 0.45630 0.00990 -0.59100
O 	O 	0.22790 0.45770 0.06930 -0.33700
O 	O 	0.07900 0.45860 0.60940 -0.62000
O 	O 	0.03440 0.57750 0.58350 -0.52800
O 	O 	0.32880 0.31880 0.68020 -0.62300
O 	O 	0.51430 0.32680 0.62620 -0.44000
O 	O 	0.20570 0.32450 0.56430 -0.59900
O 	O 	0.40550 0.25920 0.54100 -0.53500
O 	O 	0.03780 0.27790 0.49150 -0.47100
O 	O 	0.02700 0.22380 0.39580 -0.28300
O 	O 	0.96810 0.35580 0.64760 -0.64400
O 	O 	0.85110 0.30280 0.73680 -0.55500
O 	O 	0.87600 0.50990 0.54370 -0.59100
O 	O 	0.68560 0.56930 0.54230 -0.33700
O 	O 	0.64700 0.04140 0.89060 -0.62400
O 	O 	0.69540 0.92250 0.91650 -0.52500
O 	O 	0.82780 0.18120 0.81980 -0.62300
O 	O 	0.96730 0.17320 0.87380 -0.43700
O 	O 	0.59450 0.17550 0.93570 -0.59800
O 	O 	0.70570 0.24080 0.95900 -0.53500
O 	O 	0.30720 0.22210 0.00850 -0.46500
O 	O 	0.14660 0.27620 0.10420 -0.28000
O 	O 	0.47150 0.14420 0.85240 -0.64500
O 	O 	0.39070 0.19720 0.76320 -0.55500
O 	O 	0.42960 0.99010 0.95630 -0.58600
O 	O 	0.29720 0.93070 0.95770 -0.33600
O 	O 	0.46240 0.89060 0.45860 -0.61900
O 	O 	0.38810 0.91650 0.57750 -0.52700
O 	O 	0.35240 0.81980 0.31880 -0.62400
O 	O 	0.15890 0.87380 0.32680 -0.43900
O 	O 	0.46980 0.93570 0.32450 -0.59900
O 	O 	0.33530 0.95900 0.25920 -0.53500
O 	O 	0.68430 0.00850 0.27790 -0.46700
O 	O 	0.74920 0.10420 0.22380 -0.28100
O 	O 	0.67610 0.85240 0.35580 -0.64500
O 	O 	0.84610 0.76320 0.30280 -0.55600
O 	O 	0.61410 0.95630 0.50990 -0.59000
O 	O 	0.74510 0.95770 0.56930 -0.33600
O 	O 	0.31160 0.60940 0.04140 -0.62000
O 	O 	0.38210 0.58350 0.92250 -0.52800
O 	O 	0.99100 0.68020 0.18120 -0.62400
O 	O 	0.85950 0.62620 0.17320 -0.43800
O 	O 	0.23000 0.56430 0.17550 -0.59900
O 	O 	0.05350 0.54100 0.24080 -0.53300
O 	O 	0.47070 0.49150 0.22210 -0.47100
O 	O 	0.57720 0.39580 0.27620 -0.28300
O 	O 	0.38430 0.64760 0.14420 -0.64600
O 	O 	0.41210 0.73680 0.19720 -0.55600
O 	O 	0.58030 0.54370 0.99010 -0.59100
O 	O 	0.77210 0.54230 0.93070 -0.33700
O 	O 	0.92100 0.54140 0.39060 -0.62000
O 	O 	0.96560 0.42250 0.41650 -0.52800
O 	O 	0.67120 0.68120 0.31980 -0.62300
O 	O 	0.48570 0.67320 0.37380 -0.44000
O 	O 	0.79430 0.67550 0.43570 -0.59900
O 	O 	0.59450 0.74080 0.45900 -0.53500
O 	O 	0.96220 0.72210 0.50850 -0.47100
O 	O 	0.97300 0.77620 0.60420 -0.28300
O 	O 	0.03190 0.64420 0.35240 -0.64400
O 	O 	0.14890 0.69720 0.26320 -0.55500
O 	O 	0.12400 0.49010 0.45630 -0.59100
O 	O 	0.31440 0.43070 0.45770 -0.33700
O 	O 	0.35300 0.95860 0.10940 -0.62400
O 	O 	0.30460 0.07750 0.08350 -0.52500
O 	O 	0.17220 0.81880 0.18020 -0.62300
O 	O 	0.03270 0.82680 0.12620 -0.43700
O 	O 	0.40550 0.82450 0.06430 -0.59800
O 	O 	0.29430 0.75920 0.04100 -0.53500
O 	O 	0.69280 0.77790 0.99150 -0.46500
O 	O 	0.85340 0.72380 0.89580 -0.28000
O 	O 	0.52850 0.85580 0.14760 -0.64500
O 	O 	0.60930 0.80280 0.23680 -0.55500
O 	O 	0.57040 0.00990 0.04370 -0.58600
O 	O 	0.70280 0.06930 0.04230 -0.33600
