data_crystal

_cell_length_a 12.07330
_cell_length_b 19.50770
_cell_length_c 19.50770
_cell_angle_alpha 84.50490
_cell_angle_beta  71.97390
_cell_angle_gamma 71.97380

_symmetry_space_group_name_	'P 1'
_symmetry_space_group_name_H-M	'P 1'

loop_
_symmetry_equiv_pos_as_xyz
  x,y,z

loop_
_atom_site_label
_atom_site_type_symbol
_atom_site_fract_x
_atom_site_fract_y
_atom_site_fract_z
_atom_site_charge
Nd	Nd	0.98730 0.20204 0.63700 2.44800
Nd	Nd	0.93119 0.02054 0.60584 2.27800
Nd	Nd	0.32634 0.29796 0.86300 2.47100
Nd	Nd	0.05757 0.47946 0.89416 2.32700
Nd	Nd	0.62430 0.36300 0.70204 2.47100
Nd	Nd	0.53702 0.39417 0.52054 2.32000
Nd	Nd	0.18934 0.13700 0.79796 2.48100
Nd	Nd	0.95173 0.10584 0.97946 2.25800
Nd	Nd	0.01270 0.79796 0.36300 2.44700
Nd	Nd	0.06881 0.97946 0.39416 2.27700
Nd	Nd	0.67366 0.70204 0.13700 2.47100
Nd	Nd	0.94243 0.52054 0.10584 2.32700
Nd	Nd	0.37570 0.63700 0.29796 2.47100
Nd	Nd	0.46298 0.60583 0.47946 2.32000
Nd	Nd	0.81066 0.86300 0.20204 2.48100
Nd	Nd	0.04826 0.89417 0.02054 2.25800
H 	H 	0.15900 0.20690 0.43970 0.14700
H 	H 	0.27250 0.13970 0.43770 0.15600
H 	H 	0.30460 0.09030 0.54990 0.12000
H 	H 	0.36930 0.15100 0.53420 0.13400
H 	H 	0.03870 0.94500 0.77780 0.12200
H 	H 	0.17210 0.91390 0.72790 0.14300
H 	H 	0.96690 0.83990 0.68430 0.11400
H 	H 	0.98530 0.85170 0.75810 0.12200
H 	H 	0.55580 0.15200 0.66940 0.15100
H 	H 	0.61950 0.10110 0.72230 0.13800
H 	H 	0.59910 0.07300 0.55120 0.13200
H 	H 	0.64220 0.14140 0.54840 0.12400
H 	H 	0.20640 0.23160 0.52860 0.08100
H 	H 	0.11090 0.88760 0.64780 0.07500
H 	H 	0.66480 0.03030 0.63590 0.07600
H 	H 	0.30560 0.29310 0.06030 0.14700
H 	H 	0.34990 0.36030 0.06230 0.15700
H 	H 	0.44480 0.40970 0.95010 0.11900
H 	H 	0.55450 0.34900 0.96580 0.13300
H 	H 	0.26150 0.55500 0.72220 0.12200
H 	H 	0.31390 0.58610 0.77210 0.14100
H 	H 	0.99110 0.66010 0.81570 0.11700
H 	H 	0.09510 0.64830 0.74190 0.12200
H 	H 	0.87720 0.34800 0.83060 0.15300
H 	H 	0.94290 0.39890 0.77770 0.14100
H 	H 	0.72330 0.42700 0.94880 0.13400
H 	H 	0.83200 0.35860 0.95160 0.12300
H 	H 	0.46660 0.26840 0.97140 0.08000
H 	H 	0.14630 0.61240 0.85220 0.07500
H 	H 	0.83100 0.46970 0.86410 0.07800
H 	H 	0.59870 0.56030 0.70690 0.14600
H 	H 	0.71020 0.56230 0.63970 0.15700
H 	H 	0.85450 0.45010 0.59030 0.11800
H 	H 	0.90350 0.46580 0.65100 0.13300
H 	H 	0.81650 0.22220 0.44500 0.12100
H 	H 	0.90000 0.27210 0.41390 0.14000
H 	H 	0.65120 0.31570 0.33990 0.11400
H 	H 	0.74340 0.24190 0.35170 0.12100
H 	H 	0.22520 0.33060 0.65200 0.15200
H 	H 	0.34180 0.27770 0.60110 0.14000
H 	H 	0.15030 0.44880 0.57300 0.13300
H 	H 	0.19060 0.45160 0.64140 0.12400
H 	H 	0.73500 0.47140 0.73160 0.08100
H 	H 	0.75870 0.35220 0.38760 0.07500
H 	H 	0.30070 0.36410 0.53030 0.07900
H 	H 	0.36590 0.93970 0.79310 0.14500
H 	H 	0.41220 0.93770 0.86030 0.15700
H 	H 	0.39490 0.04990 0.90970 0.11700
H 	H 	0.52030 0.03420 0.84900 0.13000
H 	H 	0.98370 0.27780 0.05500 0.11700
H 	H 	0.08600 0.22790 0.08610 0.13800
H 	H 	0.80680 0.18430 0.16010 0.11400
H 	H 	0.83700 0.25810 0.14830 0.12000
H 	H 	0.70780 0.16940 0.84800 0.15100
H 	H 	0.72060 0.22230 0.89890 0.13900
H 	H 	0.67210 0.05120 0.92700 0.13500
H 	H 	0.78360 0.04840 0.85860 0.12500
H 	H 	0.43800 0.02860 0.76840 0.07900
H 	H 	0.99850 0.14780 0.11240 0.07400
H 	H 	0.69510 0.13590 0.96970 0.07600
H 	H 	0.84100 0.79310 0.56030 0.14700
H 	H 	0.72750 0.86030 0.56230 0.15600
H 	H 	0.69540 0.90970 0.45010 0.12000
H 	H 	0.63070 0.84900 0.46580 0.13400
H 	H 	0.96130 0.05500 0.22220 0.12200
H 	H 	0.82790 0.08610 0.27210 0.14300
H 	H 	0.03310 0.16010 0.31570 0.11400
H 	H 	0.01470 0.14830 0.24190 0.12200
H 	H 	0.44420 0.84800 0.33060 0.15100
H 	H 	0.38050 0.89890 0.27770 0.13800
H 	H 	0.40090 0.92700 0.44880 0.13200
H 	H 	0.35780 0.85860 0.45160 0.12400
H 	H 	0.79360 0.76840 0.47140 0.08100
H 	H 	0.88910 0.11240 0.35220 0.07500
H 	H 	0.33520 0.96970 0.36410 0.07600
H 	H 	0.69440 0.70690 0.93970 0.14700
H 	H 	0.65010 0.63970 0.93770 0.15700
H 	H 	0.55520 0.59030 0.04990 0.11900
H 	H 	0.44550 0.65100 0.03420 0.13300
H 	H 	0.73850 0.44500 0.27780 0.12200
H 	H 	0.68610 0.41390 0.22790 0.14100
H 	H 	0.00890 0.33990 0.18430 0.11700
H 	H 	0.90490 0.35170 0.25810 0.12200
H 	H 	0.12280 0.65200 0.16940 0.15300
H 	H 	0.05710 0.60110 0.22230 0.14100
H 	H 	0.27670 0.57300 0.05120 0.13400
H 	H 	0.16800 0.64140 0.04840 0.12300
H 	H 	0.53340 0.73160 0.02860 0.08000
H 	H 	0.85370 0.38760 0.14780 0.07500
H 	H 	0.16900 0.53030 0.13590 0.07800
H 	H 	0.40130 0.43970 0.29310 0.14600
H 	H 	0.28980 0.43770 0.36030 0.15700
H 	H 	0.14550 0.54990 0.40970 0.11800
H 	H 	0.09650 0.53420 0.34900 0.13300
H 	H 	0.18350 0.77780 0.55500 0.12100
H 	H 	0.10000 0.72790 0.58610 0.14000
H 	H 	0.34880 0.68430 0.66010 0.11400
H 	H 	0.25660 0.75810 0.64830 0.12100
H 	H 	0.77480 0.66940 0.34800 0.15200
H 	H 	0.65820 0.72230 0.39890 0.14000
H 	H 	0.84970 0.55120 0.42700 0.13300
H 	H 	0.80940 0.54840 0.35860 0.12400
H 	H 	0.26500 0.52860 0.26840 0.08100
H 	H 	0.24130 0.64780 0.61240 0.07500
H 	H 	0.69930 0.63590 0.46970 0.07900
H 	H 	0.63410 0.06030 0.20690 0.14500
H 	H 	0.58780 0.06230 0.13970 0.15700
H 	H 	0.60510 0.95010 0.09030 0.11700
H 	H 	0.47970 0.96580 0.15100 0.13000
H 	H 	0.01630 0.72220 0.94500 0.11700
H 	H 	0.91400 0.77210 0.91390 0.13800
H 	H 	0.19320 0.81570 0.83990 0.11400
H 	H 	0.16300 0.74190 0.85170 0.12000
H 	H 	0.29220 0.83060 0.15200 0.15100
H 	H 	0.27940 0.77770 0.10110 0.13900
H 	H 	0.32790 0.94880 0.07300 0.13500
H 	H 	0.21640 0.95160 0.14140 0.12500
H 	H 	0.56200 0.97140 0.23160 0.07900
H 	H 	0.00150 0.85220 0.88760 0.07400
H 	H 	0.30490 0.86410 0.03030 0.07600
C 	C 	0.11095 0.11549 0.47821 0.58100
C 	C 	0.19040 0.16460 0.46640 -0.40500
C 	C 	0.29450 0.13980 0.56040 -0.33500
C 	C 	0.27191 0.14761 0.64057 0.44700
C 	C 	0.10179 0.02205 0.71297 0.58600
C 	C 	0.09210 0.94590 0.72910 -0.38400
C 	C 	0.96180 0.87620 0.71680 -0.30800
C 	C 	0.83270 0.92440 0.74160 0.40300
C 	C 	0.70964 0.17353 0.67179 0.61100
C 	C 	0.63410 0.12400 0.67520 -0.41600
C 	C 	0.66730 0.08920 0.55140 -0.33900
C 	C 	0.77270 0.05950 0.48570 0.45200
C 	C 	0.20465 0.38451 0.02179 0.58500
C 	C 	0.32140 0.33540 0.03360 -0.40500
C 	C 	0.49470 0.36020 0.93960 -0.33500
C 	C 	0.56009 0.35239 0.85943 0.44800
C 	C 	0.33681 0.47795 0.78703 0.58000
C 	C 	0.26710 0.55410 0.77090 -0.37600
C 	C 	0.05480 0.62380 0.78320 -0.32300
C 	C 	0.99870 0.57560 0.75840 0.40700
C 	C 	0.05496 0.32647 0.82821 0.62100
C 	C 	0.93330 0.37600 0.82480 -0.42600
C 	C 	0.80790 0.41080 0.94860 -0.34500
C 	C 	0.81790 0.44050 0.01430 0.45900
C 	C 	0.58916 0.52179 0.61549 0.58500
C 	C 	0.65680 0.53360 0.66460 -0.40800
C 	C 	0.85490 0.43960 0.63980 -0.33200
C 	C 	0.91248 0.35943 0.64761 0.44000
C 	C 	0.81476 0.28703 0.52205 0.57900
C 	C 	0.82120 0.27090 0.44590 -0.37500
C 	C 	0.67860 0.28320 0.37620 -0.32000
C 	C 	0.57430 0.25840 0.42440 0.40600
C 	C 	0.38143 0.32821 0.67353 0.61300
C 	C 	0.30930 0.32480 0.62400 -0.41700
C 	C 	0.21870 0.44860 0.58920 -0.33900
C 	C 	0.25840 0.51430 0.55950 0.45500
C 	C 	0.22644 0.97821 0.88451 0.57500
C 	C 	0.35500 0.96640 0.83540 -0.40200
C 	C 	0.43430 0.06040 0.86020 -0.33400
C 	C 	0.41952 0.14057 0.85239 0.44700
C 	C 	0.12384 0.21297 0.97795 0.57400
C 	C 	0.03800 0.22910 0.05410 -0.36000
C 	C 	0.83800 0.21680 0.12380 -0.31700
C 	C 	0.75710 0.24160 0.07560 0.40400
C 	C 	0.88317 0.17179 0.82647 0.61100
C 	C 	0.75810 0.17520 0.87600 -0.41700
C 	C 	0.75650 0.05140 0.91080 -0.35900
C 	C 	0.83220 0.98570 0.94050 0.46800
C 	C 	0.88905 0.88451 0.52179 0.58100
C 	C 	0.80960 0.83540 0.53360 -0.40500
C 	C 	0.70550 0.86020 0.43960 -0.33500
C 	C 	0.72809 0.85239 0.35943 0.44700
C 	C 	0.89821 0.97795 0.28703 0.58600
C 	C 	0.90790 0.05410 0.27090 -0.38400
C 	C 	0.03820 0.12380 0.28320 -0.30800
C 	C 	0.16730 0.07560 0.25840 0.40300
C 	C 	0.29036 0.82647 0.32821 0.61100
C 	C 	0.36590 0.87600 0.32480 -0.41600
C 	C 	0.33270 0.91080 0.44860 -0.33900
C 	C 	0.22730 0.94050 0.51430 0.45200
C 	C 	0.79535 0.61549 0.97821 0.58500
C 	C 	0.67860 0.66460 0.96640 -0.40500
C 	C 	0.50530 0.63980 0.06040 -0.33500
C 	C 	0.43991 0.64761 0.14057 0.44800
C 	C 	0.66319 0.52205 0.21297 0.58000
C 	C 	0.73290 0.44590 0.22910 -0.37600
C 	C 	0.94520 0.37620 0.21680 -0.32300
C 	C 	0.00130 0.42440 0.24160 0.40700
C 	C 	0.94504 0.67353 0.17179 0.62100
C 	C 	0.06670 0.62400 0.17520 -0.42600
C 	C 	0.19210 0.58920 0.05140 -0.34500
C 	C 	0.18210 0.55950 0.98570 0.45900
C 	C 	0.41084 0.47821 0.38451 0.58500
C 	C 	0.34320 0.46640 0.33540 -0.40800
C 	C 	0.14510 0.56040 0.36020 -0.33200
C 	C 	0.08752 0.64057 0.35239 0.44000
C 	C 	0.18524 0.71297 0.47795 0.57900
C 	C 	0.17880 0.72910 0.55410 -0.37500
C 	C 	0.32140 0.71680 0.62380 -0.32000
C 	C 	0.42570 0.74160 0.57560 0.40600
C 	C 	0.61857 0.67179 0.32647 0.61300
C 	C 	0.69070 0.67520 0.37600 -0.41700
C 	C 	0.78130 0.55140 0.41080 -0.33900
C 	C 	0.74160 0.48570 0.44050 0.45500
C 	C 	0.77356 0.02179 0.11549 0.57500
C 	C 	0.64500 0.03360 0.16460 -0.40200
C 	C 	0.56570 0.93960 0.13980 -0.33400
C 	C 	0.58048 0.85943 0.14761 0.44700
C 	C 	0.87616 0.78703 0.02205 0.57400
C 	C 	0.96200 0.77090 0.94590 -0.36000
C 	C 	0.16200 0.78320 0.87620 -0.31700
C 	C 	0.24290 0.75840 0.92440 0.40400
C 	C 	0.11683 0.82821 0.17353 0.61100
C 	C 	0.24190 0.82480 0.12400 -0.41700
C 	C 	0.24350 0.94860 0.08920 -0.35900
C 	C 	0.16780 0.01430 0.05950 0.46800
N 	N 	0.19415 0.18740 0.53590 -0.18100
N 	N 	0.04593 0.91751 0.67983 -0.17500
N 	N 	0.69481 0.06814 0.61904 -0.16200
N 	N 	0.41745 0.31260 0.96410 -0.18300
N 	N 	0.14327 0.58249 0.82017 -0.17200
N 	N 	0.88199 0.43186 0.88096 -0.16200
N 	N 	0.73005 0.46410 0.68740 -0.18300
N 	N 	0.72576 0.32017 0.41751 -0.17300
N 	N 	0.31385 0.38096 0.56814 -0.16300
N 	N 	0.38155 0.03590 0.81260 -0.18400
N 	N 	0.96344 0.17983 0.08249 -0.17200
N 	N 	0.76295 0.11904 0.93186 -0.15900
N 	N 	0.80585 0.81260 0.46410 -0.18100
N 	N 	0.95407 0.08249 0.32017 -0.17500
N 	N 	0.30519 0.93186 0.38096 -0.16200
N 	N 	0.58255 0.68740 0.03590 -0.18300
N 	N 	0.85673 0.41751 0.17983 -0.17300
N 	N 	0.11801 0.56814 0.11904 -0.16200
N 	N 	0.26995 0.53590 0.31260 -0.18300
N 	N 	0.27424 0.67983 0.58249 -0.17300
N 	N 	0.68615 0.61904 0.43186 -0.16300
N 	N 	0.61845 0.96410 0.18740 -0.18400
N 	N 	0.03656 0.82017 0.91751 -0.17200
N 	N 	0.23705 0.88096 0.06814 -0.15900
O 	O 	0.04511 0.10869 0.54129 -0.69400
O 	O 	0.11458 0.08472 0.42372 -0.57200
O 	O 	0.16293 0.18071 0.67763 -0.72200
O 	O 	0.35293 0.12143 0.66951 -0.47900
O 	O 	0.03557 0.06364 0.67742 -0.67100
O 	O 	0.17079 0.03884 0.73978 -0.60200
O 	O 	0.81289 0.98937 0.72385 -0.49900
O 	O 	0.75090 0.89400 0.77300 -0.27700
O 	O 	0.82481 0.14755 0.64383 -0.74600
O 	O 	0.66008 0.23498 0.69766 -0.63700
O 	O 	0.88173 0.04640 0.49054 -0.67800
O 	O 	0.75239 0.05000 0.43002 -0.36200
O 	O 	0.19509 0.39131 0.95871 -0.70800
O 	O 	0.12302 0.41528 0.07628 -0.58500
O 	O 	0.52127 0.31929 0.82237 -0.72700
O 	O 	0.64387 0.37857 0.83049 -0.47800
O 	O 	0.27663 0.43636 0.82258 -0.68200
O 	O 	0.44941 0.46116 0.76022 -0.60200
O 	O 	0.02611 0.51063 0.77615 -0.51000
O 	O 	0.91790 0.60600 0.72700 -0.28000
O 	O 	0.11619 0.35245 0.85617 -0.75100
O 	O 	0.09272 0.26502 0.80234 -0.63700
O 	O 	0.91867 0.45360 0.00946 -0.68200
O 	O 	0.73241 0.45000 0.06998 -0.36200
O 	O 	0.58640 0.45871 0.60869 -0.70800
O 	O 	0.53830 0.57628 0.58472 -0.58400
O 	O 	0.84056 0.32237 0.68071 -0.72400
O 	O 	0.02244 0.33049 0.62143 -0.46900
O 	O 	0.71299 0.32258 0.56364 -0.68100
O 	O 	0.91057 0.26022 0.53884 -0.60200
O 	O 	0.53674 0.27615 0.48937 -0.51100
O 	O 	0.52390 0.22700 0.39400 -0.28100
O 	O 	0.46864 0.35617 0.64755 -0.74900
O 	O 	0.35774 0.30234 0.73498 -0.63700
O 	O 	0.37227 0.50946 0.54640 -0.68200
O 	O 	0.18241 0.56998 0.55000 -0.36100
O 	O 	0.15380 0.04129 0.89131 -0.69800
O 	O 	0.19930 0.92372 0.91528 -0.57400
O 	O 	0.34364 0.17763 0.81929 -0.72800
O 	O 	0.47436 0.16951 0.87857 -0.47900
O 	O 	0.09921 0.17742 0.93636 -0.67200
O 	O 	0.20963 0.23978 0.96116 -0.60100
O 	O 	0.80226 0.22385 0.01063 -0.49900
O 	O 	0.64490 0.27300 0.10600 -0.27800
O 	O 	0.97236 0.14383 0.85245 -0.75200
O 	O 	0.89506 0.19766 0.76502 -0.63700
O 	O 	0.92813 0.99054 0.95360 -0.66300
O 	O 	0.80239 0.93002 0.95000 -0.35800
O 	O 	0.95489 0.89131 0.45871 -0.69400
O 	O 	0.88542 0.91528 0.57628 -0.57200
O 	O 	0.83707 0.81929 0.32237 -0.72200
O 	O 	0.64707 0.87857 0.33049 -0.47900
O 	O 	0.96443 0.93636 0.32258 -0.67100
O 	O 	0.82921 0.96116 0.26022 -0.60200
O 	O 	0.18711 0.01063 0.27615 -0.49900
O 	O 	0.24910 0.10600 0.22700 -0.27700
O 	O 	0.17519 0.85245 0.35617 -0.74600
O 	O 	0.33992 0.76502 0.30234 -0.63700
O 	O 	0.11827 0.95360 0.50946 -0.67800
O 	O 	0.24761 0.95000 0.56998 -0.36200
O 	O 	0.80491 0.60869 0.04129 -0.70800
O 	O 	0.87698 0.58472 0.92372 -0.58500
O 	O 	0.47873 0.68071 0.17763 -0.72700
O 	O 	0.35613 0.62143 0.16951 -0.47800
O 	O 	0.72337 0.56364 0.17742 -0.68200
O 	O 	0.55059 0.53884 0.23978 -0.60200
O 	O 	0.97389 0.48937 0.22385 -0.51000
O 	O 	0.08210 0.39400 0.27300 -0.28000
O 	O 	0.88381 0.64755 0.14383 -0.75100
O 	O 	0.90728 0.73498 0.19766 -0.63700
O 	O 	0.08133 0.54640 0.99054 -0.68200
O 	O 	0.26759 0.55000 0.93002 -0.36200
O 	O 	0.41360 0.54129 0.39131 -0.70800
O 	O 	0.46170 0.42372 0.41528 -0.58400
O 	O 	0.15944 0.67763 0.31929 -0.72400
O 	O 	0.97756 0.66951 0.37857 -0.46900
O 	O 	0.28701 0.67742 0.43636 -0.68100
O 	O 	0.08943 0.73978 0.46116 -0.60200
O 	O 	0.46326 0.72385 0.51063 -0.51100
O 	O 	0.47610 0.77300 0.60600 -0.28100
O 	O 	0.53136 0.64383 0.35245 -0.74900
O 	O 	0.64226 0.69766 0.26502 -0.63700
O 	O 	0.62773 0.49054 0.45360 -0.68200
O 	O 	0.81759 0.43002 0.45000 -0.36100
O 	O 	0.84620 0.95871 0.10869 -0.69900
O 	O 	0.80070 0.07628 0.08472 -0.57400
O 	O 	0.65636 0.82237 0.18071 -0.72800
O 	O 	0.52564 0.83049 0.12143 -0.47900
O 	O 	0.90079 0.82258 0.06364 -0.67200
O 	O 	0.79037 0.76022 0.03884 -0.60100
O 	O 	0.19774 0.77615 0.98937 -0.49900
O 	O 	0.35510 0.72700 0.89400 -0.27800
O 	O 	0.02764 0.85617 0.14755 -0.75200
O 	O 	0.10494 0.80234 0.23498 -0.63700
O 	O 	0.07187 0.00946 0.04640 -0.66300
O 	O 	0.19761 0.06998 0.05000 -0.35800
