data_crystal

_cell_length_a 21.86900
_cell_length_b 21.86900
_cell_length_c 11.92900
_cell_angle_alpha 90.00000
_cell_angle_beta  90.00000
_cell_angle_gamma 90.00000

_symmetry_space_group_name_	'P 1'
_symmetry_space_group_name_H-M	'P 1'

loop_
_symmetry_equiv_pos_as_xyz
  x,y,z

loop_
_atom_site_label
_atom_site_type_symbol
_atom_site_fract_x
_atom_site_fract_y
_atom_site_fract_z
_atom_site_charge
Mo	Mo	0.07875 0.64527 0.16763 1.13400
O 	O 	0.06240 0.62280 0.01480 -0.46000
O 	O 	0.13410 0.57490 0.17170 -0.58700
O 	O 	0.27220 0.51560 0.89460 -0.09200
O 	O 	0.19980 0.62930 0.96700 -0.05200
O 	O 	0.15160 0.55950 0.82900 -0.07900
O 	O 	0.26690 0.54990 0.13080 -0.35300
C 	C 	0.38300 0.54200 0.24100 -0.23900
C 	C 	0.43100 0.54200 0.31900 -0.18700
C 	C 	0.38300 0.46000 0.41900 -0.25800
C 	C 	0.33600 0.45900 0.34200 -0.27900
La	La	0.17648 0.51557 0.02938 0.83100
O 	O 	0.17630 0.59580 0.94000 -0.22700
O 	O 	0.14980 0.52240 0.82200 -0.09800
C 	C 	0.34800 0.55320 0.31300 0.23300
C 	C 	0.39710 0.55410 0.39000 0.31400
C 	C 	0.42100 0.54950 0.33900 0.13900
C 	C 	0.36940 0.55190 0.26900 0.22300
Mo	Mo	0.57875 0.14527 0.66763 1.13300
O 	O 	0.56240 0.12280 0.51480 -0.45600
O 	O 	0.63410 0.07490 0.67170 -0.59100
O 	O 	0.77220 0.01560 0.39460 -0.15300
O 	O 	0.69980 0.12930 0.46700 -0.04800
O 	O 	0.65160 0.05950 0.32900 -0.00100
O 	O 	0.76690 0.04990 0.63080 -0.34800
C 	C 	0.88300 0.04200 0.74100 -0.29300
C 	C 	0.93100 0.04200 0.81900 -0.22800
C 	C 	0.88300 0.96000 0.91900 -0.32900
C 	C 	0.83600 0.95900 0.84200 -0.35700
La	La	0.67648 0.01557 0.52938 0.92300
O 	O 	0.67630 0.09580 0.44000 -0.25200
O 	O 	0.64980 0.02240 0.32200 -0.23100
C 	C 	0.84800 0.05320 0.81300 0.28400
C 	C 	0.89710 0.05410 0.89000 0.37300
C 	C 	0.92100 0.04950 0.83900 0.16600
C 	C 	0.86940 0.05190 0.76900 0.27000
Mo	Mo	0.92125 0.35473 0.16763 1.13500
O 	O 	0.93760 0.37720 0.01480 -0.45700
O 	O 	0.86590 0.42510 0.17170 -0.58800
O 	O 	0.72780 0.48440 0.89460 -0.09100
O 	O 	0.80020 0.37070 0.96700 -0.04900
O 	O 	0.84840 0.44050 0.82900 -0.07400
O 	O 	0.73310 0.45010 0.13080 -0.35400
C 	C 	0.61700 0.45800 0.24100 -0.24100
C 	C 	0.56900 0.45800 0.31900 -0.18900
C 	C 	0.61700 0.54000 0.41900 -0.26000
C 	C 	0.66400 0.54100 0.34200 -0.28000
La	La	0.82352 0.48443 0.02938 0.83200
O 	O 	0.82370 0.40420 0.94000 -0.22600
O 	O 	0.85020 0.47760 0.82200 -0.09900
C 	C 	0.65200 0.44680 0.31300 0.23400
C 	C 	0.60290 0.44590 0.39000 0.31600
C 	C 	0.57900 0.45050 0.33900 0.13900
C 	C 	0.63060 0.44810 0.26900 0.22400
Mo	Mo	0.42125 0.85473 0.66763 1.13400
O 	O 	0.43760 0.87720 0.51480 -0.45100
O 	O 	0.36590 0.92510 0.67170 -0.57900
O 	O 	0.22780 0.98440 0.39460 -0.03100
O 	O 	0.30020 0.87070 0.46700 -0.06300
O 	O 	0.34840 0.94050 0.32900 -0.15900
O 	O 	0.23310 0.95010 0.63080 -0.33700
C 	C 	0.11700 0.95800 0.74100 -0.29700
C 	C 	0.06900 0.95800 0.81900 -0.23100
C 	C 	0.11700 0.04000 0.91900 -0.29200
C 	C 	0.16400 0.04100 0.84200 -0.31700
La	La	0.32352 0.98443 0.52938 0.75200
O 	O 	0.32370 0.90420 0.44000 -0.20800
O 	O 	0.35020 0.97760 0.32200 0.03700
C 	C 	0.15200 0.94680 0.81300 0.29100
C 	C 	0.10290 0.94590 0.89000 0.37900
C 	C 	0.07900 0.95050 0.83900 0.16800
C 	C 	0.13060 0.94810 0.76900 0.27500
Mo	Mo	0.64527 0.92125 0.83237 1.13700
O 	O 	0.62280 0.93760 0.98520 -0.44200
O 	O 	0.57490 0.86590 0.82830 -0.58500
O 	O 	0.51560 0.72780 0.10540 -0.09600
O 	O 	0.62930 0.80020 0.03300 -0.05900
O 	O 	0.55950 0.84840 0.17100 -0.07700
O 	O 	0.54990 0.73310 0.86920 -0.34600
C 	C 	0.54200 0.61700 0.75900 -0.26100
C 	C 	0.54200 0.56900 0.68100 -0.20500
C 	C 	0.46000 0.61700 0.58100 -0.28100
C 	C 	0.45900 0.66400 0.65800 -0.30400
La	La	0.51557 0.82352 0.97062 0.84300
O 	O 	0.59580 0.82370 0.06000 -0.23300
O 	O 	0.52240 0.85020 0.17800 -0.09900
C 	C 	0.55320 0.65200 0.68700 0.25400
C 	C 	0.55410 0.60290 0.61000 0.34000
C 	C 	0.54950 0.57900 0.66100 0.15000
C 	C 	0.55190 0.63060 0.73100 0.24400
Mo	Mo	0.14527 0.42125 0.33237 1.13300
O 	O 	0.12280 0.43760 0.48520 -0.45600
O 	O 	0.07490 0.36590 0.32830 -0.59200
O 	O 	0.01560 0.22780 0.60540 -0.15100
O 	O 	0.12930 0.30020 0.53300 -0.04900
O 	O 	0.05950 0.34840 0.67100 -0.00300
O 	O 	0.04990 0.23310 0.36920 -0.35100
C 	C 	0.04200 0.11700 0.25900 -0.24500
C 	C 	0.04200 0.06900 0.18100 -0.19100
C 	C 	0.96000 0.11700 0.08100 -0.28600
C 	C 	0.95900 0.16400 0.15800 -0.30900
La	La	0.01557 0.32352 0.47062 0.92200
O 	O 	0.09580 0.32370 0.56000 -0.25100
O 	O 	0.02240 0.35020 0.67800 -0.22300
C 	C 	0.05320 0.15200 0.18700 0.23900
C 	C 	0.05410 0.10290 0.11000 0.31500
C 	C 	0.04950 0.07900 0.16100 0.13900
C 	C 	0.05190 0.13060 0.23100 0.22900
Mo	Mo	0.35473 0.07875 0.83237 1.13400
O 	O 	0.37720 0.06240 0.98520 -0.44700
O 	O 	0.42510 0.13410 0.82830 -0.58500
O 	O 	0.48440 0.27220 0.10540 -0.09700
O 	O 	0.37070 0.19980 0.03300 -0.06200
O 	O 	0.44050 0.15160 0.17100 -0.08200
O 	O 	0.45010 0.26690 0.86920 -0.34600
C 	C 	0.45800 0.38300 0.75900 -0.26000
C 	C 	0.45800 0.43100 0.68100 -0.20400
C 	C 	0.54000 0.38300 0.58100 -0.28000
C 	C 	0.54100 0.33600 0.65800 -0.30200
La	La	0.48443 0.17648 0.97062 0.84800
O 	O 	0.40420 0.17630 0.06000 -0.23500
O 	O 	0.47760 0.14980 0.17800 -0.10000
C 	C 	0.44680 0.34800 0.68700 0.25200
C 	C 	0.44590 0.39710 0.61000 0.33800
C 	C 	0.45050 0.42100 0.66100 0.15000
C 	C 	0.44810 0.36940 0.73100 0.24200
Mo	Mo	0.85473 0.57875 0.33237 1.13300
O 	O 	0.87720 0.56240 0.48520 -0.45100
O 	O 	0.92510 0.63410 0.32830 -0.58000
O 	O 	0.98440 0.77220 0.60540 -0.03700
O 	O 	0.87070 0.69980 0.53300 -0.06100
O 	O 	0.94050 0.65160 0.67100 -0.14900
O 	O 	0.95010 0.76690 0.36920 -0.33800
C 	C 	0.95800 0.88300 0.25900 -0.28400
C 	C 	0.95800 0.93100 0.18100 -0.21800
C 	C 	0.04000 0.88300 0.08100 -0.28400
C 	C 	0.04100 0.83600 0.15800 -0.30700
La	La	0.98443 0.67648 0.47062 0.76000
O 	O 	0.90420 0.67630 0.56000 -0.21000
O 	O 	0.97760 0.64980 0.67800 0.02300
C 	C 	0.94680 0.84800 0.18700 0.27800
C 	C 	0.94590 0.89710 0.11000 0.36000
C 	C 	0.95050 0.92100 0.16100 0.16400
C 	C 	0.94810 0.86940 0.23100 0.26700
Mo	Mo	0.07875 0.35473 0.16763 1.13200
O 	O 	0.06240 0.37720 0.01480 -0.46200
O 	O 	0.13410 0.42510 0.17170 -0.58800
O 	O 	0.27220 0.48440 0.89460 -0.09200
O 	O 	0.19980 0.37070 0.96700 -0.05100
O 	O 	0.15160 0.44050 0.82900 -0.07900
O 	O 	0.26690 0.45010 0.13080 -0.35400
C 	C 	0.38300 0.45800 0.24100 -0.23900
C 	C 	0.43100 0.45800 0.31900 -0.18700
C 	C 	0.38300 0.54000 0.41900 -0.25800
C 	C 	0.33600 0.54100 0.34200 -0.27900
La	La	0.17648 0.48443 0.02938 0.83400
O 	O 	0.17630 0.40420 0.94000 -0.22700
O 	O 	0.14980 0.47760 0.82200 -0.09800
C 	C 	0.34800 0.44680 0.31300 0.23300
C 	C 	0.39710 0.44590 0.39000 0.31400
C 	C 	0.42100 0.45050 0.33900 0.13900
C 	C 	0.36940 0.44810 0.26900 0.22300
Mo	Mo	0.57875 0.85473 0.66763 1.13400
O 	O 	0.56240 0.87720 0.51480 -0.45100
O 	O 	0.63410 0.92510 0.67170 -0.57900
O 	O 	0.77220 0.98440 0.39460 -0.03400
O 	O 	0.69980 0.87070 0.46700 -0.06200
O 	O 	0.65160 0.94050 0.32900 -0.15600
O 	O 	0.76690 0.95010 0.63080 -0.33600
C 	C 	0.88300 0.95800 0.74100 -0.31200
C 	C 	0.93100 0.95800 0.81900 -0.24100
C 	C 	0.88300 0.04000 0.91900 -0.30900
C 	C 	0.83600 0.04100 0.84200 -0.33600
La	La	0.67648 0.98443 0.52938 0.75600
O 	O 	0.67630 0.90420 0.44000 -0.20800
O 	O 	0.64980 0.97760 0.32200 0.03300
C 	C 	0.84800 0.94680 0.81300 0.30500
C 	C 	0.89710 0.94590 0.89000 0.39500
C 	C 	0.92100 0.95050 0.83900 0.17800
C 	C 	0.86940 0.94810 0.76900 0.28900
Mo	Mo	0.92125 0.64527 0.16763 1.13500
O 	O 	0.93760 0.62280 0.01480 -0.45600
O 	O 	0.86590 0.57490 0.17170 -0.58800
O 	O 	0.72780 0.51560 0.89460 -0.09100
O 	O 	0.80020 0.62930 0.96700 -0.04900
O 	O 	0.84840 0.55950 0.82900 -0.07500
O 	O 	0.73310 0.54990 0.13080 -0.35300
C 	C 	0.61700 0.54200 0.24100 -0.24000
C 	C 	0.56900 0.54200 0.31900 -0.18800
C 	C 	0.61700 0.46000 0.41900 -0.26000
C 	C 	0.66400 0.45900 0.34200 -0.28000
La	La	0.82352 0.51557 0.02938 0.83000
O 	O 	0.82370 0.59580 0.94000 -0.22500
O 	O 	0.85020 0.52240 0.82200 -0.09700
C 	C 	0.65200 0.55320 0.31300 0.23400
C 	C 	0.60290 0.55410 0.39000 0.31600
C 	C 	0.57900 0.54950 0.33900 0.13900
C 	C 	0.63060 0.55190 0.26900 0.22400
Mo	Mo	0.42125 0.14527 0.66763 1.13300
O 	O 	0.43760 0.12280 0.51480 -0.45600
O 	O 	0.36590 0.07490 0.67170 -0.59200
O 	O 	0.22780 0.01560 0.39460 -0.15700
O 	O 	0.30020 0.12930 0.46700 -0.04900
O 	O 	0.34840 0.05950 0.32900 0.00100
O 	O 	0.23310 0.04990 0.63080 -0.34900
C 	C 	0.11700 0.04200 0.74100 -0.27600
C 	C 	0.06900 0.04200 0.81900 -0.21600
C 	C 	0.11700 0.96000 0.91900 -0.31400
C 	C 	0.16400 0.95900 0.84200 -0.34000
La	La	0.32352 0.01557 0.52938 0.92600
O 	O 	0.32370 0.09580 0.44000 -0.25200
O 	O 	0.35020 0.02240 0.32200 -0.23500
C 	C 	0.15200 0.05320 0.81300 0.26800
C 	C 	0.10290 0.05410 0.89000 0.35400
C 	C 	0.07900 0.04950 0.83900 0.15400
C 	C 	0.13060 0.05190 0.76900 0.25400
Mo	Mo	0.64527 0.07875 0.83237 1.13500
O 	O 	0.62280 0.06240 0.98520 -0.44600
O 	O 	0.57490 0.13410 0.82830 -0.58500
O 	O 	0.51560 0.27220 0.10540 -0.09700
O 	O 	0.62930 0.19980 0.03300 -0.06200
O 	O 	0.55950 0.15160 0.17100 -0.08200
O 	O 	0.54990 0.26690 0.86920 -0.34600
C 	C 	0.54200 0.38300 0.75900 -0.26000
C 	C 	0.54200 0.43100 0.68100 -0.20400
C 	C 	0.46000 0.38300 0.58100 -0.28000
C 	C 	0.45900 0.33600 0.65800 -0.30300
La	La	0.51557 0.17648 0.97062 0.84600
O 	O 	0.59580 0.17630 0.06000 -0.23500
O 	O 	0.52240 0.14980 0.17800 -0.10000
C 	C 	0.55320 0.34800 0.68700 0.25200
C 	C 	0.55410 0.39710 0.61000 0.33800
C 	C 	0.54950 0.42100 0.66100 0.15000
C 	C 	0.55190 0.36940 0.73100 0.24200
Mo	Mo	0.14527 0.57875 0.33237 1.13300
O 	O 	0.12280 0.56240 0.48520 -0.45600
O 	O 	0.07490 0.63410 0.32830 -0.59200
O 	O 	0.01560 0.77220 0.60540 -0.14700
O 	O 	0.12930 0.69980 0.53300 -0.04900
O 	O 	0.05950 0.65160 0.67100 -0.00500
O 	O 	0.04990 0.76690 0.36920 -0.34900
C 	C 	0.04200 0.88300 0.25900 -0.26500
C 	C 	0.04200 0.93100 0.18100 -0.20500
C 	C 	0.96000 0.88300 0.08100 -0.30400
C 	C 	0.95900 0.83600 0.15800 -0.32800
La	La	0.01557 0.67648 0.47062 0.91900
O 	O 	0.09580 0.67630 0.56000 -0.25000
O 	O 	0.02240 0.64980 0.67800 -0.21900
C 	C 	0.05320 0.84800 0.18700 0.25800
C 	C 	0.05410 0.89710 0.11000 0.33700
C 	C 	0.04950 0.92100 0.16100 0.15200
C 	C 	0.05190 0.86940 0.23100 0.24700
Mo	Mo	0.35473 0.92125 0.83237 1.13700
O 	O 	0.37720 0.93760 0.98520 -0.44300
O 	O 	0.42510 0.86590 0.82830 -0.58500
O 	O 	0.48440 0.72780 0.10540 -0.09600
O 	O 	0.37070 0.80020 0.03300 -0.05800
O 	O 	0.44050 0.84840 0.17100 -0.07600
O 	O 	0.45010 0.73310 0.86920 -0.34700
C 	C 	0.45800 0.61700 0.75900 -0.26200
C 	C 	0.45800 0.56900 0.68100 -0.20500
C 	C 	0.54000 0.61700 0.58100 -0.28100
C 	C 	0.54100 0.66400 0.65800 -0.30400
La	La	0.48443 0.82352 0.97062 0.84500
O 	O 	0.40420 0.82370 0.06000 -0.23300
O 	O 	0.47760 0.85020 0.17800 -0.10000
C 	C 	0.44680 0.65200 0.68700 0.25400
C 	C 	0.44590 0.60290 0.61000 0.34000
C 	C 	0.45050 0.57900 0.66100 0.15000
C 	C 	0.44810 0.63060 0.73100 0.24300
Mo	Mo	0.85473 0.42125 0.33237 1.13300
O 	O 	0.87720 0.43760 0.48520 -0.45100
O 	O 	0.92510 0.36590 0.32830 -0.58000
O 	O 	0.98440 0.22780 0.60540 -0.03500
O 	O 	0.87070 0.30020 0.53300 -0.06200
O 	O 	0.94050 0.34840 0.67100 -0.15100
O 	O 	0.95010 0.23310 0.36920 -0.33900
C 	C 	0.95800 0.11700 0.25900 -0.26600
C 	C 	0.95800 0.06900 0.18100 -0.20600
C 	C 	0.04000 0.11700 0.08100 -0.26400
C 	C 	0.04100 0.16400 0.15800 -0.28600
La	La	0.98443 0.32352 0.47062 0.75600
O 	O 	0.90420 0.32370 0.56000 -0.20900
O 	O 	0.97760 0.35020 0.67800 0.02700
C 	C 	0.94680 0.15200 0.18700 0.26200
C 	C 	0.94590 0.10290 0.11000 0.34100
C 	C 	0.95050 0.07900 0.16100 0.15300
C 	C 	0.94810 0.13060 0.23100 0.25100
Mo	Mo	-0.00000 0.55865 0.97075 1.10000
O 	O 	-0.00000 0.68310 0.17660 -0.50500
O 	O 	-0.00000 0.55760 0.17450 -0.44100
Mo	Mo	0.50000 0.05865 0.47075 1.09900
O 	O 	0.50000 0.18310 0.67660 -0.50100
O 	O 	0.50000 0.05760 0.67450 -0.43600
Mo	Mo	-0.00000 0.44135 0.97075 1.10100
O 	O 	-0.00000 0.31690 0.17660 -0.50700
O 	O 	-0.00000 0.44240 0.17450 -0.44100
Mo	Mo	0.50000 0.94135 0.47075 1.10700
O 	O 	0.50000 0.81690 0.67660 -0.50000
O 	O 	0.50000 0.94240 0.67450 -0.42900
Mo	Mo	0.55865 -0.00000 0.02925 1.08900
O 	O 	0.68310 0.00000 0.82340 -0.50200
O 	O 	0.55760 -0.00000 0.82550 -0.43600
Mo	Mo	0.05865 0.50000 0.52925 1.09900
O 	O 	0.18310 0.50000 0.32340 -0.50100
O 	O 	0.05760 0.50000 0.32550 -0.43600
Mo	Mo	0.44135 -0.00000 0.02925 1.09000
O 	O 	0.31690 0.00000 0.82340 -0.50300
O 	O 	0.44240 -0.00000 0.82550 -0.43600
Mo	Mo	0.94135 0.50000 0.52925 1.10700
O 	O 	0.81690 0.50000 0.32340 -0.50100
O 	O 	0.94240 0.50000 0.32550 -0.42900
O 	O 	0.06590 0.50000 0.99370 -0.58400
C 	C 	0.28540 0.50000 0.16800 0.30500
C 	C 	0.43080 0.50000 0.40740 -0.12800
C 	C 	0.33560 0.50000 0.25280 0.01800
O 	O 	0.56590 -0.00000 0.49370 -0.59700
C 	C 	0.78540 -0.00000 0.66800 0.28800
C 	C 	0.93080 0.00000 0.90740 -0.08400
C 	C 	0.83560 -0.00000 0.75280 0.03800
O 	O 	0.93410 0.50000 0.99370 -0.57400
C 	C 	0.71460 0.50000 0.16800 0.30500
C 	C 	0.56920 0.50000 0.40740 -0.12800
C 	C 	0.66440 0.50000 0.25280 0.01800
O 	O 	0.43410 -0.00000 0.49370 -0.59700
C 	C 	0.21460 -0.00000 0.66800 0.28900
C 	C 	0.06920 0.00000 0.90740 -0.09700
C 	C 	0.16440 -0.00000 0.75280 0.03000
O 	O 	0.50000 0.93410 0.00630 -0.58800
C 	C 	0.50000 0.71460 0.83200 0.30100
C 	C 	0.50000 0.56920 0.59260 -0.12000
C 	C 	0.50000 0.66440 0.74720 0.02900
O 	O 	-0.00000 0.43410 0.50630 -0.59700
C 	C 	-0.00000 0.21460 0.33200 0.29200
C 	C 	-0.00000 0.06920 0.09260 -0.11600
C 	C 	0.00000 0.16440 0.24720 0.01700
O 	O 	0.50000 0.06590 0.00630 -0.60000
C 	C 	0.50000 0.28540 0.83200 0.30100
C 	C 	0.50000 0.43080 0.59260 -0.12100
C 	C 	0.50000 0.33560 0.74720 0.02900
O 	O 	-0.00000 0.56590 0.50630 -0.59600
C 	C 	-0.00000 0.78540 0.33200 0.29100
C 	C 	-0.00000 0.93080 0.09260 -0.10000
C 	C 	-0.00000 0.83560 0.24720 0.02600
P 	P 	-0.00000 0.50000 0.25000 0.50500
P 	P 	0.50000 -0.00000 0.75000 0.50600
Si	Si	0.50000 0.50000 0.50000 0.66500
Si	Si	-0.00000 0.00000 -0.00000 0.58800
