data_crystal

_cell_length_a 9.29920
_cell_length_b 11.51900
_cell_length_c 13.26200
_cell_angle_alpha 90.00000
_cell_angle_beta  90.91300
_cell_angle_gamma 90.00000

_symmetry_space_group_name_	'P 1'
_symmetry_space_group_name_H-M	'P 1'

loop_
_symmetry_equiv_pos_as_xyz
  x,y,z

loop_
_atom_site_label
_atom_site_type_symbol
_atom_site_fract_x
_atom_site_fract_y
_atom_site_fract_z
_atom_site_charge
Co	Co	0.25000 0.44970 0.50000 1.18600
Co	Co	0.75000 0.55030 0.50000 1.18500
H 	H 	0.76160 0.53740 0.23400 -0.00400
H 	H 	0.66430 0.45390 0.08950 0.12000
H 	H 	0.97450 0.21180 0.09690 0.12400
H 	H 	0.07110 0.29560 0.24140 -0.01300
H 	H 	0.06860 0.23790 0.42560 0.01000
H 	H 	0.06880 0.03950 0.41670 0.07800
H 	H 	0.15000 0.86040 0.36520 0.07700
H 	H 	0.15610 0.66200 0.36810 0.01000
H 	H 	0.73840 0.53740 0.76600 -0.01000
H 	H 	0.83570 0.45390 0.91050 0.15400
H 	H 	0.52550 0.21180 0.90310 0.15500
H 	H 	0.42890 0.29560 0.75860 -0.01700
H 	H 	0.43140 0.23790 0.57440 0.01000
H 	H 	0.43120 0.03950 0.58330 0.08000
H 	H 	0.35000 0.86040 0.63480 0.08100
H 	H 	0.34390 0.66200 0.63190 0.01100
H 	H 	0.23840 0.46260 0.76600 -0.01000
H 	H 	0.33570 0.54610 0.91050 0.15300
H 	H 	0.02550 0.78820 0.90310 0.15200
H 	H 	0.92890 0.70440 0.75860 -0.01300
H 	H 	0.93140 0.76210 0.57440 0.01100
H 	H 	0.93120 0.96050 0.58330 0.08100
H 	H 	0.85000 0.13960 0.63480 0.08100
H 	H 	0.84390 0.33800 0.63190 0.01100
H 	H 	0.26160 0.46260 0.23400 -0.00400
H 	H 	0.16430 0.54610 0.08950 0.12000
H 	H 	0.47450 0.78820 0.09690 0.12300
H 	H 	0.57110 0.70440 0.24140 -0.01100
H 	H 	0.56860 0.76210 0.42560 0.01000
H 	H 	0.56880 0.96050 0.41670 0.07800
H 	H 	0.65000 0.13960 0.36520 0.07700
H 	H 	0.65610 0.33800 0.36810 0.01000
C 	C 	0.98330 0.47590 0.35129 0.41700
C 	C 	0.92560 0.42421 0.25387 -0.20800
C 	C 	0.80400 0.47150 0.20693 0.14400
C 	C 	0.74540 0.42180 0.12049 -0.26900
C 	C 	0.80900 0.32420 0.08109 0.24600
C 	C 	0.93130 0.27680 0.12505 -0.26400
C 	C 	0.98890 0.32720 0.21145 0.15100
C 	C 	0.14460 0.19760 0.45556 0.08000
C 	C 	0.14240 0.07760 0.45165 -0.13500
C 	C 	0.19130 0.82220 0.42019 -0.13000
C 	C 	0.19460 0.70230 0.42298 0.07500
C 	C 	0.51670 0.47590 0.64871 0.42200
C 	C 	0.57440 0.42421 0.74613 -0.22500
C 	C 	0.69600 0.47150 0.79307 0.17600
C 	C 	0.75460 0.42180 0.87951 -0.30000
C 	C 	0.69100 0.32420 0.91891 0.31500
C 	C 	0.56870 0.27680 0.87495 -0.29600
C 	C 	0.51110 0.32720 0.78855 0.18000
C 	C 	0.35540 0.19760 0.54444 0.08100
C 	C 	0.35760 0.07760 0.54835 -0.13500
C 	C 	0.30870 0.82220 0.57981 -0.13000
C 	C 	0.30540 0.70230 0.57702 0.07500
C 	C 	0.01670 0.52410 0.64871 0.41800
C 	C 	0.07440 0.57579 0.74613 -0.22100
C 	C 	0.19600 0.52850 0.79307 0.17200
C 	C 	0.25460 0.57820 0.87951 -0.29700
C 	C 	0.19100 0.67580 0.91891 0.31200
C 	C 	0.06870 0.72320 0.87495 -0.29100
C 	C 	0.01110 0.67280 0.78855 0.17200
C 	C 	0.85540 0.80240 0.54444 0.08100
C 	C 	0.85760 0.92240 0.54835 -0.13500
C 	C 	0.80870 0.17780 0.57981 -0.12900
C 	C 	0.80540 0.29770 0.57702 0.07600
C 	C 	0.48330 0.52410 0.35129 0.41400
C 	C 	0.42560 0.57579 0.25387 -0.20600
C 	C 	0.30400 0.52850 0.20693 0.14200
C 	C 	0.24540 0.57820 0.12049 -0.26800
C 	C 	0.30900 0.67580 0.08109 0.24500
C 	C 	0.43130 0.72320 0.12505 -0.26200
C 	C 	0.48890 0.67280 0.21145 0.14700
C 	C 	0.64460 0.80240 0.45556 0.08000
C 	C 	0.64240 0.92240 0.45165 -0.13500
C 	C 	0.69130 0.17780 0.42019 -0.12900
C 	C 	0.69460 0.29770 0.42298 0.07500
C 	C 	0.25000 0.01400 0.50000 0.05600
C 	C 	0.25000 0.88540 0.50000 0.05100
C 	C 	0.75000 0.98600 0.50000 0.05600
C 	C 	0.75000 0.11460 0.50000 0.05100
N 	N 	0.25000 0.25870 0.50000 -0.20700
N 	N 	0.25000 0.64080 0.50000 -0.22100
N 	N 	0.75000 0.74130 0.50000 -0.20700
N 	N 	0.75000 0.35920 0.50000 -0.22100
O 	O 	0.10331 0.43752 0.38090 -0.43000
O 	O 	0.91122 0.55311 0.39329 -0.43300
O 	O 	0.39669 0.43752 0.61910 -0.43000
O 	O 	0.58878 0.55311 0.60671 -0.43300
O 	O 	0.89669 0.56248 0.61910 -0.42800
O 	O 	0.08878 0.44689 0.60671 -0.43300
O 	O 	0.60331 0.56248 0.38090 -0.42900
O 	O 	0.41122 0.44689 0.39329 -0.43300
O 	O 	0.75000 0.26320 1.00000 -0.27300
O 	O 	0.25000 0.73680 1.00000 -0.27300
