data_crystal

_cell_length_a 9.22360
_cell_length_b 10.36570
_cell_length_c 12.88390
_cell_angle_alpha 75.57600
_cell_angle_beta  69.46900
_cell_angle_gamma 86.16800

_symmetry_space_group_name_	'P 1'
_symmetry_space_group_name_H-M	'P 1'

loop_
_symmetry_equiv_pos_as_xyz
  x,y,z

loop_
_atom_site_label
_atom_site_type_symbol
_atom_site_fract_x
_atom_site_fract_y
_atom_site_fract_z
_atom_site_charge
Eu	Eu	0.95574 0.75083 0.99803 1.80000
Eu	Eu	0.04426 0.24917 0.00197 1.80000
H 	H 	0.37730 0.43230 0.69050 0.07300
H 	H 	0.10660 0.74540 0.64230 0.05200
H 	H 	0.24970 0.78750 0.45070 0.04000
H 	H 	0.92240 0.93490 0.69120 0.06300
H 	H 	0.17760 0.24840 0.66380 0.05000
H 	H 	0.24690 0.28810 0.46930 0.03600
H 	H 	0.62270 0.56770 0.30950 0.07200
H 	H 	0.89340 0.25460 0.35770 0.05100
H 	H 	0.75030 0.21250 0.54930 0.04000
H 	H 	0.07760 0.06510 0.30880 0.06300
H 	H 	0.82240 0.75160 0.33620 0.05000
H 	H 	0.75310 0.71190 0.53070 0.03600
C 	C 	0.13690 0.55470 0.81510 0.42100
C 	C 	0.43360 0.53970 0.52530 0.05400
C 	C 	0.35070 0.50610 0.64310 -0.04900
C 	C 	0.22690 0.58550 0.68820 -0.08900
C 	C 	0.18890 0.69150 0.61520 -0.03500
C 	C 	0.27700 0.71590 0.50000 0.02600
C 	C 	0.99010 0.05590 0.83040 0.42500
C 	C 	0.03120 0.03980 0.52960 0.05400
C 	C 	0.98690 0.00850 0.64750 -0.06000
C 	C 	0.03950 0.08800 0.70020 -0.07300
C 	C 	0.13870 0.19390 0.63170 -0.03700
C 	C 	0.17900 0.21720 0.51470 0.02500
C 	C 	0.86310 0.44530 0.18490 0.42100
C 	C 	0.56640 0.46030 0.47470 0.05400
C 	C 	0.64930 0.49390 0.35690 -0.04900
C 	C 	0.77310 0.41450 0.31180 -0.08900
C 	C 	0.81110 0.30850 0.38480 -0.03500
C 	C 	0.72300 0.28410 0.50000 0.02600
C 	C 	0.00990 0.94410 0.16960 0.42500
C 	C 	0.96880 0.96020 0.47040 0.05400
C 	C 	0.01310 0.99150 0.35250 -0.06000
C 	C 	0.96050 0.91200 0.29980 -0.07300
C 	C 	0.86130 0.80610 0.36830 -0.03700
C 	C 	0.82100 0.78280 0.48530 0.02500
N 	N 	0.39730 0.64360 0.45460 -0.11300
N 	N 	0.12610 0.14340 0.46250 -0.11800
N 	N 	0.62360 0.76050 0.04750 0.07400
N 	N 	0.60270 0.35640 0.54540 -0.11300
N 	N 	0.87390 0.85660 0.53750 -0.11800
N 	N 	0.37640 0.23950 0.95250 0.07400
O 	O 	0.16770 0.45060 0.87550 -0.48500
O 	O 	0.03700 0.63750 0.85100 -0.50500
O 	O 	0.90640 0.95450 0.88570 -0.49200
O 	O 	0.03670 0.13560 0.86980 -0.51500
O 	O 	0.71290 0.72110 0.96170 -0.25700
O 	O 	0.68030 0.80270 0.10690 -0.24100
O 	O 	0.48200 0.75690 0.06790 -0.12300
O 	O 	0.83230 0.54940 0.12450 -0.48500
O 	O 	0.96300 0.36250 0.14900 -0.50500
O 	O 	0.09360 0.04550 0.11430 -0.49200
O 	O 	0.96330 0.86440 0.13020 -0.51500
O 	O 	0.28710 0.27890 0.03830 -0.25700
O 	O 	0.31970 0.19730 0.89310 -0.24100
O 	O 	0.51800 0.24310 0.93210 -0.12300
