data_crystal

_cell_length_a 9.24140
_cell_length_b 10.30400
_cell_length_c 12.82910
_cell_angle_alpha 76.38800
_cell_angle_beta  69.43100
_cell_angle_gamma 86.37700

_symmetry_space_group_name_	'P 1'
_symmetry_space_group_name_H-M	'P 1'

loop_
_symmetry_equiv_pos_as_xyz
  x,y,z

loop_
_atom_site_label
_atom_site_type_symbol
_atom_site_fract_x
_atom_site_fract_y
_atom_site_fract_z
_atom_site_charge
Dy	Dy	0.45968 0.25111 0.99767 1.74000
O 	O 	0.46030 0.86440 0.14540 -0.50400
O 	O 	0.58850 0.55120 0.11410 -0.47800
O 	O 	0.33710 0.05800 0.12440 -0.46800
N 	N 	0.10030 0.85400 0.54260 -0.11400
N 	N 	0.37320 0.35700 0.53550 -0.11500
C 	C 	0.50750 0.44760 0.16840 0.44500
C 	C 	0.06670 0.95900 0.47300 0.05700
C 	C 	0.15090 0.99530 0.35590 -0.05600
H 	H 	0.12630 0.07310 0.30910 0.07800
C 	C 	0.47070 0.46060 0.46960 0.04800
C 	C 	0.21980 0.78040 0.49710 0.02600
H 	H 	0.24590 0.70610 0.54650 0.04000
C 	C 	0.51450 0.49330 0.35110 -0.03600
H 	H 	0.58030 0.56860 0.30720 0.06100
C 	C 	0.46070 0.41450 0.29790 -0.09700
C 	C 	0.36320 0.94810 0.18360 0.40700
C 	C 	0.27160 0.91470 0.30960 -0.08500
C 	C 	0.35940 0.30860 0.36480 -0.02400
H 	H 	0.31880 0.25350 0.33130 0.04700
C 	C 	0.31980 0.28630 0.48300 0.02500
H 	H 	0.24910 0.21500 0.52920 0.03700
C 	C 	0.30900 0.80700 0.38010 -0.03100
H 	H 	0.39270 0.75190 0.35090 0.04900
O 	O 	0.22550 0.21800 0.95870 -0.24800
O 	O 	0.18720 0.30250 0.10270 -0.23400
N 	N 	0.13130 0.25810 0.04290 0.07400
O 	O 	0.98950 0.25330 0.06250 -0.12100
O 	O 	0.46200 0.36680 0.12740 -0.52300
Dy	Dy	0.54032 0.74889 0.00233 1.74000
O 	O 	0.53970 0.13560 0.85460 -0.50400
O 	O 	0.41150 0.44880 0.88590 -0.47800
O 	O 	0.66290 0.94200 0.87560 -0.46800
N 	N 	0.89970 0.14600 0.45740 -0.11400
N 	N 	0.62680 0.64300 0.46450 -0.11500
C 	C 	0.49250 0.55240 0.83160 0.44500
C 	C 	0.93330 0.04100 0.52700 0.05700
C 	C 	0.84910 0.00470 0.64410 -0.05600
H 	H 	0.87370 0.92690 0.69090 0.07800
C 	C 	0.52930 0.53940 0.53040 0.04800
C 	C 	0.78020 0.21960 0.50290 0.02600
H 	H 	0.75410 0.29390 0.45350 0.04000
C 	C 	0.48550 0.50670 0.64890 -0.03600
H 	H 	0.41970 0.43140 0.69280 0.06100
C 	C 	0.53930 0.58550 0.70210 -0.09700
C 	C 	0.63680 0.05190 0.81640 0.40700
C 	C 	0.72840 0.08530 0.69040 -0.08500
C 	C 	0.64060 0.69140 0.63520 -0.02400
H 	H 	0.68120 0.74650 0.66870 0.04700
C 	C 	0.68020 0.71370 0.51700 0.02500
H 	H 	0.75090 0.78500 0.47080 0.03700
C 	C 	0.69100 0.19300 0.61990 -0.03100
H 	H 	0.60730 0.24810 0.64910 0.04900
O 	O 	0.77450 0.78200 0.04130 -0.24800
O 	O 	0.81280 0.69750 0.89730 -0.23400
N 	N 	0.86870 0.74190 0.95710 0.07400
O 	O 	0.01050 0.74670 0.93750 -0.12100
O 	O 	0.53800 0.63320 0.87260 -0.52300
