data_crystal

_cell_length_a 24.52900
_cell_length_b 9.35820
_cell_length_c 10.38220
_cell_angle_alpha 90.00000
_cell_angle_beta  97.23600
_cell_angle_gamma 90.00000

_symmetry_space_group_name_	'P 1'
_symmetry_space_group_name_H-M	'P 1'

loop_
_symmetry_equiv_pos_as_xyz
  x,y,z

loop_
_atom_site_label
_atom_site_type_symbol
_atom_site_fract_x
_atom_site_fract_y
_atom_site_fract_z
_atom_site_charge
C 	C 	0.23282 0.29570 0.53680 0.05600
C 	C 	0.17809 0.32120 0.49290 -0.03900
H 	H 	0.16240 0.28230 0.41450 0.07000
C 	C 	0.14690 0.40380 0.56490 -0.09500
C 	C 	0.17180 0.46050 0.68020 -0.02800
H 	H 	0.15190 0.51540 0.73250 0.04700
C 	C 	0.22720 0.43350 0.71640 0.02400
H 	H 	0.24420 0.47430 0.79280 0.03800
C 	C 	0.08699 0.43040 0.51980 0.44700
N 	N 	0.25749 0.35220 0.64740 -0.11400
N 	N 	0.98410 0.18270 0.25400 0.15900
O 	O 	0.07093 0.40220 0.40460 -0.44200
O 	O 	0.05825 0.47780 0.59860 -0.49500
O 	O 	0.97110 0.24690 0.31840 -0.21200
C 	C 	0.73282 0.79570 0.53680 0.05100
C 	C 	0.67809 0.82120 0.49290 -0.03300
H 	H 	0.66240 0.78230 0.41450 0.06700
C 	C 	0.64690 0.90380 0.56490 -0.10500
C 	C 	0.67180 0.96050 0.68020 -0.01700
H 	H 	0.65190 0.01540 0.73250 0.04100
C 	C 	0.72720 0.93350 0.71640 0.01900
H 	H 	0.74420 0.97430 0.79280 0.04300
C 	C 	0.58699 0.93040 0.51980 0.46200
N 	N 	0.75749 0.85220 0.64740 -0.10900
N 	N 	0.48410 0.68270 0.25400 0.05200
O 	O 	0.57093 0.90220 0.40460 -0.45000
O 	O 	0.55825 0.97780 0.59860 -0.50200
O 	O 	0.47110 0.74690 0.31840 -0.23700
C 	C 	0.76718 0.29570 0.96320 0.04800
C 	C 	0.82191 0.32120 0.00710 -0.03300
H 	H 	0.83760 0.28230 0.08550 0.07200
C 	C 	0.85310 0.40380 0.93510 -0.08700
C 	C 	0.82820 0.46050 0.81980 -0.02700
H 	H 	0.84810 0.51540 0.76750 0.05200
C 	C 	0.77280 0.43350 0.78360 0.02700
H 	H 	0.75580 0.47430 0.70720 0.03900
C 	C 	0.91301 0.43040 0.98020 0.43700
N 	N 	0.74251 0.35220 0.85260 -0.11200
N 	N 	0.01590 0.18270 0.24600 -0.03500
O 	O 	0.92907 0.40220 0.09540 -0.39700
O 	O 	0.94175 0.47780 0.90140 -0.43900
O 	O 	0.02890 0.24690 0.18160 -0.22300
C 	C 	0.26718 0.79570 0.96320 0.05500
C 	C 	0.32191 0.82120 0.00710 -0.03900
H 	H 	0.33760 0.78230 0.08550 0.06900
C 	C 	0.35310 0.90380 0.93510 -0.10100
C 	C 	0.32820 0.96050 0.81980 -0.01800
H 	H 	0.34810 0.01540 0.76750 0.04100
C 	C 	0.27280 0.93350 0.78360 0.02000
H 	H 	0.25580 0.97430 0.70720 0.04000
C 	C 	0.41301 0.93040 0.98020 0.46300
N 	N 	0.24251 0.85220 0.85260 -0.11300
N 	N 	0.51590 0.68270 0.24600 0.05200
O 	O 	0.42907 0.90220 0.09540 -0.45200
O 	O 	0.44175 0.97780 0.90140 -0.50200
O 	O 	0.52890 0.74690 0.18160 -0.23700
C 	C 	0.76718 0.70430 0.46320 0.06000
C 	C 	0.82191 0.67880 0.50710 -0.04500
H 	H 	0.83760 0.71770 0.58550 0.07600
C 	C 	0.85310 0.59620 0.43510 -0.08000
C 	C 	0.82820 0.53950 0.31980 -0.03200
H 	H 	0.84810 0.48460 0.26750 0.05400
C 	C 	0.77280 0.56650 0.28360 0.03000
H 	H 	0.75580 0.52570 0.20720 0.03800
C 	C 	0.91301 0.56960 0.48020 0.43900
N 	N 	0.74251 0.64780 0.35260 -0.11500
N 	N 	0.01590 0.81730 0.74600 -0.03400
O 	O 	0.92907 0.59780 0.59540 -0.39900
O 	O 	0.94175 0.52220 0.40140 -0.43800
O 	O 	0.02890 0.75310 0.68160 -0.22400
C 	C 	0.26718 0.20430 0.46320 0.05200
C 	C 	0.32191 0.17880 0.50710 -0.03400
H 	H 	0.33760 0.21770 0.58550 0.06700
C 	C 	0.35310 0.09620 0.43510 -0.10400
C 	C 	0.32820 0.03950 0.31980 -0.01700
H 	H 	0.34810 0.98460 0.26750 0.04200
C 	C 	0.27280 0.06650 0.28360 0.01900
H 	H 	0.25580 0.02570 0.20720 0.04100
C 	C 	0.41301 0.06960 0.48020 0.46200
N 	N 	0.24251 0.14780 0.35260 -0.11200
N 	N 	0.51590 0.31730 0.74600 0.05200
O 	O 	0.42907 0.09780 0.59540 -0.45000
O 	O 	0.44175 0.02220 0.40140 -0.50200
O 	O 	0.52890 0.25310 0.68160 -0.23700
C 	C 	0.23282 0.70430 0.03680 0.05300
C 	C 	0.17809 0.67880 0.99290 -0.03900
H 	H 	0.16240 0.71770 0.91450 0.06900
C 	C 	0.14690 0.59620 0.06490 -0.09600
C 	C 	0.17180 0.53950 0.18020 -0.02700
H 	H 	0.15190 0.48460 0.23250 0.04700
C 	C 	0.22720 0.56650 0.21640 0.02400
H 	H 	0.24420 0.52570 0.29280 0.03900
C 	C 	0.08699 0.56960 0.01980 0.44800
N 	N 	0.25749 0.64780 0.14740 -0.11300
N 	N 	0.98410 0.81730 0.75400 0.15800
O 	O 	0.07093 0.59780 0.90460 -0.44200
O 	O 	0.05825 0.52220 0.09860 -0.49500
O 	O 	0.97110 0.75310 0.81840 -0.21200
C 	C 	0.73282 0.20430 0.03680 0.06300
C 	C 	0.67809 0.17880 0.99290 -0.04900
H 	H 	0.66240 0.21770 0.91450 0.07200
C 	C 	0.64690 0.09620 0.06490 -0.09600
C 	C 	0.67180 0.03950 0.18020 -0.02100
H 	H 	0.65190 0.98460 0.23250 0.04300
C 	C 	0.72720 0.06650 0.21640 0.02300
H 	H 	0.74420 0.02570 0.29280 0.04200
C 	C 	0.58699 0.06960 0.01980 0.46400
N 	N 	0.75749 0.14780 0.14740 -0.11100
N 	N 	0.48410 0.31730 0.75400 0.05200
O 	O 	0.57093 0.09780 0.90460 -0.45300
O 	O 	0.55825 0.02220 0.09860 -0.50100
O 	O 	0.47110 0.25310 0.81840 -0.23800
Gd	Gd	0.00000 0.48629 0.25000 1.42000
O 	O 	0.00000 0.04990 0.25000 -0.17000
Gd	Gd	0.50000 0.98629 0.25000 1.57200
O 	O 	0.50000 0.54990 0.25000 -0.12600
Gd	Gd	0.00000 0.51371 0.75000 1.41900
O 	O 	0.00000 0.95010 0.75000 -0.17100
Gd	Gd	0.50000 0.01371 0.75000 1.57200
O 	O 	0.50000 0.45010 0.75000 -0.12700
