data_crystal

_cell_length_a 24.48100
_cell_length_b 9.35350
_cell_length_c 10.36690
_cell_angle_alpha 90.00000
_cell_angle_beta  97.33600
_cell_angle_gamma 90.00000

_symmetry_space_group_name_	'P 1'
_symmetry_space_group_name_H-M	'P 1'

loop_
_symmetry_equiv_pos_as_xyz
  x,y,z

loop_
_atom_site_label
_atom_site_type_symbol
_atom_site_fract_x
_atom_site_fract_y
_atom_site_fract_z
_atom_site_charge
C 	C 	0.08650 0.92920 0.52010 0.47300
C 	C 	0.14640 0.90380 0.56560 -0.05900
C 	C 	0.17790 0.82150 0.49210 -0.05200
H 	H 	0.16250 0.78420 0.41250 0.06400
C 	C 	0.23230 0.79530 0.53800 0.04200
C 	C 	0.25750 0.85230 0.64880 -0.12200
H 	H 	0.29470 0.83620 0.67560 0.08100
C 	C 	0.22780 0.93170 0.71800 0.06200
H 	H 	0.24480 0.96860 0.79630 0.02300
N 	N 	0.17160 0.96430 0.68110 -0.10000
O 	O 	0.05800 0.97800 0.59950 -0.54000
O 	O 	0.07050 0.90400 0.40510 -0.48900
O 	O 	0.96940 0.74530 0.31710 -0.13500
O 	O 	0.97170 0.53000 0.24030 0.00500
C 	C 	0.58650 0.42920 0.52010 0.49800
C 	C 	0.64640 0.40380 0.56560 -0.06800
C 	C 	0.67790 0.32150 0.49210 -0.04300
H 	H 	0.66250 0.28420 0.41250 0.06100
C 	C 	0.73230 0.29530 0.53800 0.03600
C 	C 	0.75750 0.35230 0.64880 -0.11600
H 	H 	0.79470 0.33620 0.67560 0.08100
C 	C 	0.72780 0.43170 0.71800 0.06000
H 	H 	0.74480 0.46860 0.79630 0.02400
N 	N 	0.67160 0.46430 0.68110 -0.10000
O 	O 	0.55800 0.47800 0.59950 -0.55900
O 	O 	0.57050 0.40400 0.40510 -0.50500
O 	O 	0.46940 0.24530 0.31710 -0.24000
O 	O 	0.47170 0.03000 0.24030 -0.08800
C 	C 	0.91350 0.92920 0.97990 0.46300
C 	C 	0.85360 0.90380 0.93440 -0.04300
C 	C 	0.82210 0.82150 0.00790 -0.05800
H 	H 	0.83750 0.78420 0.08750 0.07000
C 	C 	0.76770 0.79530 0.96200 0.04800
C 	C 	0.74250 0.85230 0.85120 -0.12600
H 	H 	0.70530 0.83620 0.82440 0.08300
C 	C 	0.77220 0.93170 0.78200 0.06700
H 	H 	0.75520 0.96860 0.70370 0.02200
N 	N 	0.82840 0.96430 0.81890 -0.09900
O 	O 	0.94200 0.97800 0.90050 -0.47200
O 	O 	0.92950 0.90400 0.09490 -0.43200
O 	O 	0.03060 0.74530 0.18290 -0.23700
O 	O 	0.02830 0.53000 0.25970 -0.14800
C 	C 	0.41350 0.42920 0.97990 0.49800
C 	C 	0.35360 0.40380 0.93440 -0.07400
C 	C 	0.32210 0.32150 0.00790 -0.03000
H 	H 	0.33750 0.28420 0.08750 0.05700
C 	C 	0.26770 0.29530 0.96200 0.02100
C 	C 	0.24250 0.35230 0.85120 -0.10600
H 	H 	0.20530 0.33620 0.82440 0.07400
C 	C 	0.27220 0.43170 0.78200 0.05300
H 	H 	0.25520 0.46860 0.70370 0.02500
N 	N 	0.32840 0.46430 0.81890 -0.09800
O 	O 	0.44200 0.47800 0.90050 -0.56000
O 	O 	0.42950 0.40400 0.09490 -0.50400
O 	O 	0.53060 0.24530 0.18290 -0.24000
O 	O 	0.52830 0.03000 0.25970 -0.08800
C 	C 	0.91350 0.07080 0.47990 0.46300
C 	C 	0.85360 0.09620 0.43440 -0.04400
C 	C 	0.82210 0.17850 0.50790 -0.05600
H 	H 	0.83750 0.21580 0.58750 0.07000
C 	C 	0.76770 0.20470 0.46200 0.04700
C 	C 	0.74250 0.14770 0.35120 -0.12500
H 	H 	0.70530 0.16380 0.32440 0.08300
C 	C 	0.77220 0.06830 0.28200 0.06600
H 	H 	0.75520 0.03140 0.20370 0.02300
N 	N 	0.82840 0.03570 0.31890 -0.09900
O 	O 	0.94200 0.02200 0.40050 -0.47200
O 	O 	0.92950 0.09600 0.59490 -0.43200
O 	O 	0.03060 0.25470 0.68290 -0.23700
O 	O 	0.02830 0.47000 0.75970 -0.14800
C 	C 	0.41350 0.57080 0.47990 0.49800
C 	C 	0.35360 0.59620 0.43440 -0.06700
C 	C 	0.32210 0.67850 0.50790 -0.04400
H 	H 	0.33750 0.71580 0.58750 0.06200
C 	C 	0.26770 0.70470 0.46200 0.03700
C 	C 	0.24250 0.64770 0.35120 -0.11800
H 	H 	0.20530 0.66380 0.32440 0.07900
C 	C 	0.27220 0.56830 0.28200 0.06000
H 	H 	0.25520 0.53140 0.20370 0.02300
N 	N 	0.32840 0.53570 0.31890 -0.10000
O 	O 	0.44200 0.52200 0.40050 -0.55900
O 	O 	0.42950 0.59600 0.59490 -0.50500
O 	O 	0.53060 0.75470 0.68290 -0.24000
O 	O 	0.52830 0.97000 0.75970 -0.08800
C 	C 	0.08650 0.07080 0.02010 0.47600
C 	C 	0.14640 0.09620 0.06560 -0.05000
C 	C 	0.17790 0.17850 0.99210 -0.07000
H 	H 	0.16250 0.21580 0.91250 0.07000
C 	C 	0.23230 0.20470 0.03800 0.06000
C 	C 	0.25750 0.14770 0.14880 -0.13500
H 	H 	0.29470 0.16380 0.17560 0.08600
C 	C 	0.22780 0.06830 0.21800 0.07000
H 	H 	0.24480 0.03140 0.29630 0.02000
N 	N 	0.17160 0.03570 0.18110 -0.10200
O 	O 	0.05800 0.02200 0.09950 -0.54000
O 	O 	0.07050 0.09600 0.90510 -0.49200
O 	O 	0.96940 0.25470 0.81710 -0.13700
O 	O 	0.97170 0.47000 0.74030 0.00400
C 	C 	0.58650 0.57080 0.02010 0.49800
C 	C 	0.64640 0.59620 0.06560 -0.06700
C 	C 	0.67790 0.67850 0.99210 -0.04500
H 	H 	0.66250 0.71580 0.91250 0.06200
C 	C 	0.73230 0.70470 0.03800 0.03600
C 	C 	0.75750 0.64770 0.14880 -0.11600
H 	H 	0.79470 0.66380 0.17560 0.08200
C 	C 	0.72780 0.56830 0.21800 0.06000
H 	H 	0.74480 0.53140 0.29630 0.02500
N 	N 	0.67160 0.53570 0.18110 -0.09900
O 	O 	0.55800 0.52200 0.09950 -0.55900
O 	O 	0.57050 0.59600 0.90510 -0.50600
O 	O 	0.46940 0.75470 0.81710 -0.24000
O 	O 	0.47170 0.97000 0.74030 -0.08800
Tb	Tb	-0.00000 0.98673 0.25000 1.62400
N 	N 	-0.00000 0.68700 0.25000 -0.01600
Tb	Tb	0.50000 0.48673 0.25000 1.86200
N 	N 	0.50000 0.18700 0.25000 0.06100
Tb	Tb	-0.00000 0.01327 0.75000 1.62300
N 	N 	0.00000 0.31300 0.75000 -0.01600
Tb	Tb	0.50000 0.51327 0.75000 1.86100
N 	N 	0.50000 0.81300 0.75000 0.06100
