data_crystal

_cell_length_a 24.40200
_cell_length_b 9.34390
_cell_length_c 10.34690
_cell_angle_alpha 90.00000
_cell_angle_beta  97.37100
_cell_angle_gamma 90.00000

_symmetry_space_group_name_	'P 1'
_symmetry_space_group_name_H-M	'P 1'

loop_
_symmetry_equiv_pos_as_xyz
  x,y,z

loop_
_atom_site_label
_atom_site_type_symbol
_atom_site_fract_x
_atom_site_fract_y
_atom_site_fract_z
_atom_site_charge
C 	C 	0.17754 0.17840 0.99290 -0.04600
H 	H 	0.16160 0.21670 0.91400 0.07200
O 	O 	0.06999 0.09560 0.90450 -0.49200
C 	C 	0.23275 0.20420 0.03740 0.06400
C 	C 	0.14656 0.09630 0.06580 -0.10500
C 	C 	0.08608 0.06980 0.02010 0.48500
C 	C 	0.17140 0.04060 0.18180 -0.01700
H 	H 	0.15130 0.98640 0.23470 0.04000
N 	N 	0.25764 0.14830 0.14860 -0.11400
C 	C 	0.22700 0.06740 0.21750 0.01900
H 	H 	0.24400 0.02660 0.29430 0.04000
O 	O 	0.05726 0.02310 0.10010 -0.54600
O 	O 	0.03070 0.25090 0.68300 -0.23700
O 	O 	0.02490 0.44700 0.75700 -0.15200
C 	C 	0.67754 0.67840 0.99290 -0.02500
H 	H 	0.66160 0.71670 0.91400 0.06400
O 	O 	0.56999 0.59560 0.90450 -0.50600
C 	C 	0.73275 0.70420 0.03740 0.04900
C 	C 	0.64656 0.59630 0.06580 -0.12400
C 	C 	0.58608 0.56980 0.02010 0.50700
C 	C 	0.67140 0.54060 0.18180 -0.00700
H 	H 	0.65130 0.48640 0.23470 0.03500
N 	N 	0.75764 0.64830 0.14860 -0.10900
C 	C 	0.72700 0.56740 0.21750 0.01300
H 	H 	0.74400 0.52660 0.29430 0.04400
O 	O 	0.55726 0.52310 0.10010 -0.56500
O 	O 	0.53070 0.75090 0.68300 -0.24100
O 	O 	0.52490 0.94700 0.75700 -0.08000
C 	C 	0.82246 0.17840 0.50710 -0.03600
H 	H 	0.83840 0.21670 0.58600 0.07100
O 	O 	0.93001 0.09560 0.59550 -0.43400
C 	C 	0.76725 0.20420 0.46260 0.05600
C 	C 	0.85344 0.09630 0.43420 -0.09800
C 	C 	0.91392 0.06980 0.47990 0.47100
C 	C 	0.82860 0.04060 0.31820 -0.01700
H 	H 	0.84870 0.98640 0.26530 0.04400
N 	N 	0.74236 0.14830 0.35140 -0.11200
C 	C 	0.77300 0.06740 0.28250 0.02100
H 	H 	0.75600 0.02660 0.20570 0.04100
O 	O 	0.94274 0.02310 0.39990 -0.47900
O 	O 	0.96930 0.25090 0.81700 -0.14400
O 	O 	0.97510 0.44700 0.74300 0.02800
C 	C 	0.32246 0.67840 0.50710 -0.02300
H 	H 	0.33840 0.71670 0.58600 0.06400
O 	O 	0.43001 0.59560 0.59550 -0.50500
C 	C 	0.26725 0.70420 0.46260 0.04800
C 	C 	0.35344 0.59630 0.43420 -0.12500
C 	C 	0.41392 0.56980 0.47990 0.50700
C 	C 	0.32860 0.54060 0.31820 -0.00700
H 	H 	0.34870 0.48640 0.26530 0.03500
N 	N 	0.24236 0.64830 0.35140 -0.11100
C 	C 	0.27300 0.56740 0.28250 0.01300
H 	H 	0.25600 0.52660 0.20570 0.04200
O 	O 	0.44274 0.52310 0.39990 -0.56500
O 	O 	0.46930 0.75090 0.81700 -0.24100
O 	O 	0.47510 0.94700 0.74300 -0.08000
C 	C 	0.82246 0.82160 0.00710 -0.03700
H 	H 	0.83840 0.78330 0.08600 0.07200
O 	O 	0.93001 0.90440 0.09550 -0.43400
C 	C 	0.76725 0.79580 0.96260 0.05600
C 	C 	0.85344 0.90370 0.93420 -0.09800
C 	C 	0.91392 0.93020 0.97990 0.47100
C 	C 	0.82860 0.95940 0.81820 -0.01700
H 	H 	0.84870 0.01360 0.76530 0.04300
N 	N 	0.74236 0.85170 0.85140 -0.11300
C 	C 	0.77300 0.93260 0.78250 0.02100
H 	H 	0.75600 0.97340 0.70570 0.04000
O 	O 	0.94274 0.97690 0.89990 -0.47900
O 	O 	0.96930 0.74910 0.31700 -0.14200
O 	O 	0.97510 0.55300 0.24300 0.02900
C 	C 	0.32246 0.32160 0.00710 -0.01100
H 	H 	0.33840 0.28330 0.08600 0.06000
O 	O 	0.43001 0.40440 0.09550 -0.50400
C 	C 	0.26725 0.29580 0.96260 0.03800
C 	C 	0.35344 0.40370 0.93420 -0.13100
C 	C 	0.41392 0.43020 0.97990 0.50700
C 	C 	0.32860 0.45940 0.81820 -0.00300
H 	H 	0.34870 0.51360 0.76530 0.03400
N 	N 	0.24236 0.35170 0.85140 -0.10900
C 	C 	0.27300 0.43260 0.78250 0.01000
H 	H 	0.25600 0.47340 0.70570 0.04200
O 	O 	0.44274 0.47690 0.89990 -0.56500
O 	O 	0.46930 0.24910 0.31700 -0.24100
O 	O 	0.47510 0.05300 0.24300 -0.08000
C 	C 	0.17754 0.82160 0.49290 -0.03100
H 	H 	0.16160 0.78330 0.41400 0.06600
O 	O 	0.06999 0.90440 0.40450 -0.49000
C 	C 	0.23275 0.79580 0.53740 0.05200
C 	C 	0.14656 0.90370 0.56580 -0.11400
C 	C 	0.08608 0.93020 0.52010 0.48200
C 	C 	0.17140 0.95940 0.68180 -0.01200
H 	H 	0.15130 0.01360 0.73470 0.03800
N 	N 	0.25764 0.85170 0.64860 -0.11100
C 	C 	0.22700 0.93260 0.71750 0.01500
H 	H 	0.24400 0.97340 0.79430 0.04200
O 	O 	0.05726 0.97690 0.60010 -0.54700
O 	O 	0.03070 0.74910 0.18300 -0.23700
O 	O 	0.02490 0.55300 0.25700 -0.15200
C 	C 	0.67754 0.32160 0.49290 -0.02200
H 	H 	0.66160 0.28330 0.41400 0.06300
O 	O 	0.56999 0.40440 0.40450 -0.50500
C 	C 	0.73275 0.29580 0.53740 0.04800
C 	C 	0.64656 0.40370 0.56580 -0.12500
C 	C 	0.58608 0.43020 0.52010 0.50700
C 	C 	0.67140 0.45940 0.68180 -0.00700
H 	H 	0.65130 0.51360 0.73470 0.03500
N 	N 	0.75764 0.35170 0.64860 -0.10900
C 	C 	0.72700 0.43260 0.71750 0.01300
H 	H 	0.74400 0.47340 0.79430 0.04400
O 	O 	0.55726 0.47690 0.60010 -0.56500
O 	O 	0.53070 0.24910 0.18300 -0.24100
O 	O 	0.52490 0.05300 0.25700 -0.08000
Dy	Dy	-0.00000 0.01310 0.75000 1.59000
N 	N 	0.00000 0.31430 0.75000 -0.00700
Dy	Dy	0.50000 0.51310 0.75000 1.82200
N 	N 	0.50000 0.81430 0.75000 0.07100
Dy	Dy	0.00000 0.98690 0.25000 1.59100
N 	N 	0.00000 0.68570 0.25000 -0.00700
Dy	Dy	0.50000 0.48690 0.25000 1.82300
N 	N 	0.50000 0.18570 0.25000 0.07100
