data_crystal

_cell_length_a 9.95440
_cell_length_b 11.71550
_cell_length_c 13.52150
_cell_angle_alpha 66.89700
_cell_angle_beta  87.03300
_cell_angle_gamma 76.40200

_symmetry_space_group_name_	'P 1'
_symmetry_space_group_name_H-M	'P 1'

loop_
_symmetry_equiv_pos_as_xyz
  x,y,z

loop_
_atom_site_label
_atom_site_type_symbol
_atom_site_fract_x
_atom_site_fract_y
_atom_site_fract_z
_atom_site_charge
Eu	Eu	0.73620 0.02657 0.00472 1.72000
Eu	Eu	0.26380 0.97343 0.99528 1.72000
H 	H 	0.48700 0.37910 0.55980 0.03200
H 	H 	0.44480 0.26640 0.73620 0.05100
H 	H 	0.06150 0.49170 0.67980 0.07700
H 	H 	0.19600 0.67440 0.34240 0.05200
H 	H 	0.81340 0.89770 0.29520 0.04400
H 	H 	0.78280 0.79960 0.47490 0.03800
H 	H 	0.80850 0.09550 0.55670 0.03000
H 	H 	0.73760 0.07000 0.72590 0.03500
H 	H 	0.40810 0.96640 0.66090 0.06200
H 	H 	0.51300 0.62090 0.44020 0.03200
H 	H 	0.55520 0.73360 0.26380 0.05100
H 	H 	0.93850 0.50830 0.32020 0.07700
H 	H 	0.80400 0.32560 0.65760 0.05200
H 	H 	0.18660 0.10230 0.70480 0.04400
H 	H 	0.21720 0.20040 0.52510 0.03800
H 	H 	0.19150 0.90450 0.44330 0.03000
H 	H 	0.26240 0.93000 0.27410 0.03500
H 	H 	0.59190 0.03360 0.33910 0.06200
C 	C 	0.21100 0.29100 0.84120 0.33300
C 	C 	0.40010 0.40210 0.58470 0.03500
C 	C 	0.37610 0.33260 0.69100 -0.05700
C 	C 	0.24680 0.36520 0.72720 -0.04000
C 	C 	0.14930 0.46700 0.65700 -0.07400
C 	C 	0.18420 0.53110 0.55340 0.07300
C 	C 	0.08200 0.64050 0.47570 0.03800
C 	C 	0.11040 0.70060 0.36760 -0.02300
C 	C 	0.01100 0.79840 0.29890 -0.11400
C 	C 	0.88440 0.83390 0.33980 -0.01500
C 	C 	0.86640 0.77260 0.44770 0.02100
C 	C 	0.03490 0.86690 0.18210 0.44100
C 	C 	0.51180 0.99660 0.82360 0.42900
C 	C 	0.72580 0.07070 0.57730 0.02300
C 	C 	0.68500 0.05450 0.67970 -0.03700
C 	C 	0.56470 0.01490 0.71230 -0.07700
C 	C 	0.48990 0.99300 0.64090 -0.05900
C 	C 	0.53830 0.01120 0.53940 0.05600
C 	C 	0.78900 0.70900 0.15880 0.33300
C 	C 	0.59990 0.59790 0.41530 0.03500
C 	C 	0.62390 0.66740 0.30900 -0.05700
C 	C 	0.75320 0.63480 0.27280 -0.04000
C 	C 	0.85070 0.53300 0.34300 -0.07400
C 	C 	0.81580 0.46890 0.44660 0.07300
C 	C 	0.91800 0.35950 0.52430 0.03800
C 	C 	0.88960 0.29940 0.63240 -0.02300
C 	C 	0.98900 0.20160 0.70110 -0.11400
C 	C 	0.11560 0.16610 0.66020 -0.01500
C 	C 	0.13360 0.22740 0.55230 0.02100
C 	C 	0.96510 0.13310 0.81790 0.44100
C 	C 	0.48820 0.00340 0.17640 0.42900
C 	C 	0.27420 0.92930 0.42270 0.02300
C 	C 	0.31500 0.94550 0.32030 -0.03700
C 	C 	0.43530 0.98510 0.28770 -0.07700
C 	C 	0.51010 0.00700 0.35910 -0.05900
C 	C 	0.46170 0.98880 0.46060 0.05600
N 	N 	0.30790 0.49920 0.51550 -0.12300
N 	N 	0.95990 0.67810 0.51510 -0.11200
N 	N 	0.65470 0.05320 0.50560 -0.12100
N 	N 	0.69210 0.50080 0.48450 -0.12300
N 	N 	0.04010 0.32190 0.48490 -0.11200
N 	N 	0.34530 0.94680 0.49440 -0.12100
O 	O 	0.29500 0.18640 0.89310 -0.42400
O 	O 	0.10180 0.33600 0.87660 -0.28400
O 	O 	0.15660 0.84970 0.15150 -0.50100
O 	O 	0.93200 0.94130 0.12160 -0.51700
O 	O 	0.39570 0.97270 0.84150 -0.49400
O 	O 	0.58730 0.00760 0.88820 -0.51800
O 	O 	0.70500 0.81360 0.10690 -0.42400
O 	O 	0.89820 0.66400 0.12340 -0.28400
O 	O 	0.84340 0.15030 0.84850 -0.50100
O 	O 	0.06800 0.05870 0.87840 -0.51700
O 	O 	0.60430 0.02730 0.15850 -0.49400
O 	O 	0.41270 0.99240 0.11180 -0.51800
