data_crystal

_cell_length_a 9.90080
_cell_length_b 11.65560
_cell_length_c 13.43540
_cell_angle_alpha 66.83200
_cell_angle_beta  87.01900
_cell_angle_gamma 76.37700

_symmetry_space_group_name_	'P 1'
_symmetry_space_group_name_H-M	'P 1'

loop_
_symmetry_equiv_pos_as_xyz
  x,y,z

loop_
_atom_site_label
_atom_site_type_symbol
_atom_site_fract_x
_atom_site_fract_y
_atom_site_fract_z
_atom_site_charge
Gd	Gd	0.76372 0.97369 0.99516 1.43100
Gd	Gd	0.23628 0.02631 0.00484 1.43100
H 	H 	0.98550 0.37260 0.55660 0.03000
H 	H 	0.94520 0.26660 0.73400 0.05900
H 	H 	0.56240 0.49340 0.68020 0.08400
H 	H 	0.69560 0.67410 0.34320 0.06100
H 	H 	0.31560 0.90050 0.29430 0.05400
H 	H 	0.28130 0.80020 0.47410 0.03600
H 	H 	0.68820 0.90640 0.44370 0.02900
H 	H 	0.76260 0.92550 0.27600 0.05100
H 	H 	0.09280 0.03010 0.33890 0.07000
H 	H 	0.01450 0.62740 0.44340 0.02900
H 	H 	0.05480 0.73340 0.26600 0.05800
H 	H 	0.43760 0.50660 0.31980 0.08300
H 	H 	0.30440 0.32590 0.65680 0.06000
H 	H 	0.68440 0.09950 0.70570 0.05400
H 	H 	0.71870 0.19980 0.52590 0.03600
H 	H 	0.31180 0.09360 0.55630 0.02900
H 	H 	0.23740 0.07450 0.72400 0.05100
H 	H 	0.90720 0.96990 0.66110 0.07000
C 	C 	0.71010 0.28960 0.84150 0.33300
C 	C 	0.90020 0.39890 0.58290 0.04400
C 	C 	0.87560 0.33270 0.68850 -0.06600
C 	C 	0.74930 0.36430 0.72630 -0.02800
C 	C 	0.64970 0.46750 0.65630 -0.08300
C 	C 	0.68260 0.52870 0.55360 0.07700
C 	C 	0.58020 0.64070 0.47520 0.05000
C 	C 	0.60920 0.70060 0.36780 -0.03900
C 	C 	0.51070 0.79860 0.29810 -0.08900
C 	C 	0.38600 0.83490 0.33920 -0.03200
C 	C 	0.36620 0.77360 0.44730 0.02900
C 	C 	0.53510 0.86730 0.17920 0.43700
C 	C 	0.77220 0.92970 0.42330 0.03800
C 	C 	0.81410 0.94380 0.32140 -0.05500
C 	C 	0.93540 0.98610 0.28680 -0.05300
C 	C 	0.00940 0.00530 0.35840 -0.07300
C 	C 	0.96030 0.98780 0.46210 0.06100
C 	C 	0.98840 0.00330 0.17740 0.37900
C 	C 	0.28990 0.71040 0.15850 0.33300
C 	C 	0.09980 0.60110 0.41710 0.04400
C 	C 	0.12440 0.66730 0.31150 -0.06600
C 	C 	0.25070 0.63570 0.27370 -0.02800
C 	C 	0.35030 0.53250 0.34370 -0.08300
C 	C 	0.31740 0.47130 0.44640 0.07700
C 	C 	0.41980 0.35930 0.52480 0.05000
C 	C 	0.39080 0.29940 0.63220 -0.03900
C 	C 	0.48930 0.20140 0.70190 -0.08900
C 	C 	0.61400 0.16510 0.66080 -0.03200
C 	C 	0.63380 0.22640 0.55270 0.02900
C 	C 	0.46490 0.13270 0.82080 0.43700
C 	C 	0.22780 0.07030 0.57670 0.03800
C 	C 	0.18590 0.05620 0.67860 -0.05500
C 	C 	0.06460 0.01390 0.71320 -0.05300
C 	C 	0.99060 0.99470 0.64160 -0.07300
C 	C 	0.03970 0.01220 0.53790 0.06100
C 	C 	0.01160 0.99670 0.82260 0.37900
N 	N 	0.46150 0.67840 0.51600 -0.11500
N 	N 	0.80800 0.49910 0.51580 -0.12400
N 	N 	0.84340 0.94700 0.49510 -0.12200
N 	N 	0.53850 0.32160 0.48400 -0.11500
N 	N 	0.19200 0.50090 0.48420 -0.12400
N 	N 	0.15660 0.05300 0.50490 -0.12200
O 	O 	0.60380 0.33500 0.87810 -0.27400
O 	O 	0.79500 0.18610 0.89260 -0.38700
O 	O 	0.43280 0.94100 0.12130 -0.47300
O 	O 	0.65750 0.85030 0.15020 -0.45700
O 	O 	0.10560 0.02770 0.15800 -0.43600
O 	O 	0.91020 0.99360 0.11110 -0.44500
O 	O 	0.39620 0.66500 0.12190 -0.27400
O 	O 	0.20500 0.81390 0.10740 -0.38700
O 	O 	0.56720 0.05900 0.87870 -0.47300
O 	O 	0.34250 0.14970 0.84980 -0.45700
O 	O 	0.89440 0.97230 0.84200 -0.43600
O 	O 	0.08980 0.00640 0.88890 -0.44500
