data_crystal

_cell_length_a 9.96400
_cell_length_b 11.57000
_cell_length_c 13.32000
_cell_angle_alpha 67.70000
_cell_angle_beta  87.18000
_cell_angle_gamma 76.68000

_symmetry_space_group_name_	'P 1'
_symmetry_space_group_name_H-M	'P 1'

loop_
_symmetry_equiv_pos_as_xyz
  x,y,z

loop_
_atom_site_label
_atom_site_type_symbol
_atom_site_fract_x
_atom_site_fract_y
_atom_site_fract_z
_atom_site_charge
Tb	Tb	0.76337 0.47407 0.99498 1.73700
Tb	Tb	0.23663 0.52593 0.00502 1.73700
H 	H 	0.01220 0.12440 0.44320 0.03200
H 	H 	0.05610 0.23540 0.26570 0.04900
H 	H 	0.43750 0.00920 0.32030 0.07700
H 	H 	0.30470 0.82630 0.65940 0.05300
H 	H 	0.68510 0.59960 0.70560 0.04300
H 	H 	0.71560 0.69900 0.52300 0.03900
H 	H 	0.09110 0.53140 0.33930 0.05300
H 	H 	0.76210 0.42930 0.27250 0.02500
H 	H 	0.69000 0.40560 0.44480 0.03600
H 	H 	0.98780 0.87560 0.55680 0.03200
H 	H 	0.94390 0.76460 0.73430 0.04900
H 	H 	0.56250 0.99080 0.67970 0.07700
H 	H 	0.69530 0.17370 0.34060 0.05300
H 	H 	0.31490 0.40040 0.29440 0.04300
H 	H 	0.28440 0.30100 0.47700 0.03900
H 	H 	0.90890 0.46860 0.66070 0.05300
H 	H 	0.23790 0.57070 0.72750 0.02500
H 	H 	0.31000 0.59440 0.55520 0.03600
C 	C 	0.28810 0.20960 0.15890 0.33800
C 	C 	0.09820 0.10040 0.41730 0.03300
C 	C 	0.12400 0.16850 0.31090 -0.05300
C 	C 	0.25230 0.13520 0.27320 -0.04400
C 	C 	0.34960 0.03320 0.34340 -0.07100
C 	C 	0.31430 0.96850 0.44690 0.07000
C 	C 	0.41610 0.85980 0.52420 0.04400
C 	C 	0.38950 0.79980 0.63310 -0.02700
C 	C 	0.48850 0.70150 0.70150 -0.10700
C 	C 	0.61490 0.66410 0.66090 -0.01900
C 	C 	0.63280 0.72610 0.55170 0.01800
C 	C 	0.46570 0.63170 0.82010 0.45700
C 	C 	0.98640 0.50310 0.17580 0.48000
C 	C 	0.96080 0.48990 0.45930 0.04500
C 	C 	0.00830 0.50630 0.35870 -0.02400
C 	C 	0.93450 0.48590 0.28610 -0.12700
C 	C 	0.81450 0.44580 0.31920 -0.00700
C 	C 	0.77270 0.43040 0.42390 0.01100
C 	C 	0.71190 0.79040 0.84110 0.33800
C 	C 	0.90180 0.89960 0.58270 0.03300
C 	C 	0.87600 0.83150 0.68910 -0.05300
C 	C 	0.74770 0.86480 0.72680 -0.04400
C 	C 	0.65040 0.96680 0.65660 -0.07100
C 	C 	0.68570 0.03150 0.55310 0.07000
C 	C 	0.58390 0.14020 0.47580 0.04400
C 	C 	0.61050 0.20020 0.36690 -0.02700
C 	C 	0.51150 0.29850 0.29850 -0.10700
C 	C 	0.38510 0.33590 0.33910 -0.01900
C 	C 	0.36720 0.27390 0.44830 0.01800
C 	C 	0.53430 0.36830 0.17990 0.45700
C 	C 	0.01360 0.49690 0.82420 0.48000
C 	C 	0.03920 0.51010 0.54070 0.04500
C 	C 	0.99170 0.49370 0.64130 -0.02400
C 	C 	0.06550 0.51410 0.71390 -0.12700
C 	C 	0.18550 0.55420 0.68080 -0.00700
C 	C 	0.22730 0.56960 0.57610 0.01100
N 	N 	0.19120 0.00160 0.48500 -0.12200
N 	N 	0.53690 0.82360 0.48430 -0.11200
N 	N 	0.84330 0.44860 0.49450 -0.11500
N 	N 	0.80880 0.99840 0.51500 -0.12200
N 	N 	0.46310 0.17640 0.51570 -0.11200
N 	N 	0.15670 0.55140 0.50550 -0.11500
O 	O 	0.20420 0.31460 0.10660 -0.43000
O 	O 	0.39650 0.16430 0.12330 -0.28700
O 	O 	0.34400 0.64770 0.85050 -0.51200
O 	O 	0.56930 0.55810 0.87890 -0.53300
O 	O 	0.10480 0.52570 0.15700 -0.50000
O 	O 	0.90990 0.49450 0.10960 -0.55000
O 	O 	0.79580 0.68540 0.89340 -0.43000
O 	O 	0.60350 0.83570 0.87670 -0.28700
O 	O 	0.65600 0.35230 0.14950 -0.51200
O 	O 	0.43070 0.44190 0.12110 -0.53300
O 	O 	0.89520 0.47430 0.84300 -0.50000
O 	O 	0.09010 0.50550 0.89040 -0.55000
