data_crystal

_cell_length_a 22.26000
_cell_length_b 22.26000
_cell_length_c 22.26000
_cell_angle_alpha 90.00000
_cell_angle_beta  90.00000
_cell_angle_gamma 90.00000

_symmetry_space_group_name_	'P 1'
_symmetry_space_group_name_H-M	'P 1'

loop_
_symmetry_equiv_pos_as_xyz
  x,y,z

loop_
_atom_site_label
_atom_site_type_symbol
_atom_site_fract_x
_atom_site_fract_y
_atom_site_fract_z
_atom_site_charge
Cd	Cd	0.23760 0.23760 0.76240 0.97900
Cd	Cd	0.20820 0.20820 0.79180 1.00300
Cd	Cd	0.76240 0.76240 0.76240 0.98000
Cd	Cd	0.79180 0.79180 0.79180 1.00200
Cd	Cd	0.76240 0.23760 0.23760 0.97800
Cd	Cd	0.79180 0.20820 0.20820 1.00200
Cd	Cd	0.23760 0.76240 0.23760 0.97800
Cd	Cd	0.20820 0.79180 0.20820 1.00200
Cd	Cd	0.23760 0.23760 0.23760 0.97800
Cd	Cd	0.20820 0.20820 0.20820 1.00100
Cd	Cd	0.76240 0.76240 0.23760 0.97800
Cd	Cd	0.79180 0.79180 0.20820 1.00200
Cd	Cd	0.23760 0.76240 0.76240 0.97800
Cd	Cd	0.20820 0.79180 0.79180 1.00200
Cd	Cd	0.76240 0.23760 0.76240 0.97800
Cd	Cd	0.79180 0.20820 0.79180 1.00200
Co	Co	0.50000 0.00000 0.50000 1.07700
Co	Co	0.50000 0.50000 -0.00000 1.07700
Co	Co	0.00000 0.50000 0.50000 1.07700
N 	N 	0.40590 0.00000 0.50000 -0.26900
N 	N 	0.59410 0.00000 0.50000 -0.26900
N 	N 	0.50000 0.40590 -0.00000 -0.26900
N 	N 	0.50000 0.59410 -0.00000 -0.26900
N 	N 	0.00000 0.50000 0.40590 -0.26900
N 	N 	0.00000 0.50000 0.59410 -0.26900
N 	N 	0.00000 0.40590 0.50000 -0.26900
N 	N 	0.00000 0.59410 0.50000 -0.26900
N 	N 	0.40590 0.50000 -0.00000 -0.26900
N 	N 	0.59410 0.50000 -0.00000 -0.26900
N 	N 	0.50000 0.00000 0.59410 -0.26900
N 	N 	0.50000 -0.00000 0.40590 -0.26900
C 	C 	0.30960 0.00000 0.53030 -0.07700
H 	H 	0.27500 0.00000 0.55530 0.05400
C 	C 	0.37040 0.00000 0.55040 0.07500
C 	C 	0.69040 0.00000 0.53030 -0.07700
H 	H 	0.72500 0.00000 0.55530 0.05500
C 	C 	0.62960 0.00000 0.55040 0.07500
C 	C 	0.69040 0.00000 0.46970 -0.07700
H 	H 	0.72500 0.00000 0.44470 0.05400
C 	C 	0.62960 0.00000 0.44960 0.07500
C 	C 	0.30960 0.00000 0.46970 -0.07700
H 	H 	0.27500 0.00000 0.44470 0.05400
C 	C 	0.37040 0.00000 0.44960 0.07500
C 	C 	0.53030 0.30960 -0.00000 -0.07700
H 	H 	0.55530 0.27500 -0.00000 0.05400
C 	C 	0.55040 0.37040 -0.00000 0.07500
C 	C 	0.53030 0.69040 -0.00000 -0.07700
H 	H 	0.55530 0.72500 -0.00000 0.05500
C 	C 	0.55040 0.62960 -0.00000 0.07500
C 	C 	0.46970 0.69040 -0.00000 -0.07700
H 	H 	0.44470 0.72500 -0.00000 0.05400
C 	C 	0.44960 0.62960 -0.00000 0.07500
C 	C 	0.46970 0.30960 -0.00000 -0.07700
H 	H 	0.44470 0.27500 -0.00000 0.05400
C 	C 	0.44960 0.37040 -0.00000 0.07500
C 	C 	-0.00000 0.53030 0.30960 -0.07700
H 	H 	-0.00000 0.55530 0.27500 0.05400
C 	C 	-0.00000 0.55040 0.37040 0.07500
C 	C 	-0.00000 0.53030 0.69040 -0.07700
H 	H 	0.00000 0.55530 0.72500 0.05500
C 	C 	0.00000 0.55040 0.62960 0.07500
C 	C 	-0.00000 0.46970 0.69040 -0.07700
H 	H 	0.00000 0.44470 0.72500 0.05400
C 	C 	0.00000 0.44960 0.62960 0.07500
C 	C 	-0.00000 0.46970 0.30960 -0.07700
H 	H 	-0.00000 0.44470 0.27500 0.05400
C 	C 	0.00000 0.44960 0.37040 0.07500
C 	C 	-0.00000 0.30960 0.46970 -0.07700
H 	H 	-0.00000 0.27500 0.44470 0.05400
C 	C 	0.00000 0.37040 0.44960 0.07500
C 	C 	-0.00000 0.69040 0.46970 -0.07700
H 	H 	0.00000 0.72500 0.44470 0.05400
C 	C 	0.00000 0.62960 0.44960 0.07500
C 	C 	-0.00000 0.69040 0.53030 -0.07700
H 	H 	0.00000 0.72500 0.55530 0.05500
C 	C 	0.00000 0.62960 0.55040 0.07500
C 	C 	-0.00000 0.30960 0.53030 -0.07700
H 	H 	-0.00000 0.27500 0.55530 0.05400
C 	C 	-0.00000 0.37040 0.55040 0.07500
C 	C 	0.30960 0.53030 -0.00000 -0.07700
H 	H 	0.27500 0.55530 -0.00000 0.05400
C 	C 	0.37040 0.55040 -0.00000 0.07500
C 	C 	0.69040 0.53030 -0.00000 -0.07700
H 	H 	0.72500 0.55530 -0.00000 0.05500
C 	C 	0.62960 0.55040 -0.00000 0.07500
C 	C 	0.69040 0.46970 -0.00000 -0.07700
H 	H 	0.72500 0.44470 -0.00000 0.05400
C 	C 	0.62960 0.44960 -0.00000 0.07500
C 	C 	0.30960 0.46970 -0.00000 -0.07700
H 	H 	0.27500 0.44470 -0.00000 0.05400
C 	C 	0.37040 0.44960 -0.00000 0.07500
C 	C 	0.53030 0.00000 0.69040 -0.07700
H 	H 	0.55530 0.00000 0.72500 0.05500
C 	C 	0.55040 0.00000 0.62960 0.07500
C 	C 	0.53030 -0.00000 0.30960 -0.07700
H 	H 	0.55530 0.00000 0.27500 0.05400
C 	C 	0.55040 0.00000 0.37040 0.07500
C 	C 	0.46970 -0.00000 0.30960 -0.07700
H 	H 	0.44470 0.00000 0.27500 0.05400
C 	C 	0.44960 0.00000 0.37040 0.07500
C 	C 	0.46970 0.00000 0.69040 -0.07700
H 	H 	0.44470 0.00000 0.72500 0.05400
C 	C 	0.44960 0.00000 0.62960 0.07500
C 	C 	0.25620 0.00000 0.74380 0.10100
H 	H 	0.22600 0.00000 0.77400 0.02800
C 	C 	0.39080 0.00000 0.60920 -0.10900
C 	C 	0.34340 -0.00000 0.65660 -0.00800
C 	C 	0.74380 0.00000 0.74380 0.10000
H 	H 	0.77400 0.00000 0.77400 0.03000
C 	C 	0.60920 0.00000 0.60920 -0.10900
C 	C 	0.65660 -0.00000 0.65660 -0.00700
C 	C 	0.74380 0.00000 0.25620 0.10100
H 	H 	0.77400 0.00000 0.22600 0.02800
C 	C 	0.60920 -0.00000 0.39080 -0.10900
C 	C 	0.65660 -0.00000 0.34340 -0.00800
C 	C 	0.25620 0.00000 0.25620 0.10200
H 	H 	0.22600 0.00000 0.22600 0.02700
C 	C 	0.39080 -0.00000 0.39080 -0.10900
C 	C 	0.34340 -0.00000 0.34340 -0.00800
C 	C 	0.74380 0.25620 -0.00000 0.10100
H 	H 	0.77400 0.22600 -0.00000 0.02800
C 	C 	0.60920 0.39080 -0.00000 -0.10900
C 	C 	0.65660 0.34340 -0.00000 -0.00800
C 	C 	0.74380 0.74380 -0.00000 0.10000
H 	H 	0.77400 0.77400 -0.00000 0.03000
C 	C 	0.60920 0.60920 -0.00000 -0.10900
C 	C 	0.65660 0.65660 -0.00000 -0.00700
C 	C 	0.25620 0.74380 -0.00000 0.10100
H 	H 	0.22600 0.77400 -0.00000 0.02800
C 	C 	0.39080 0.60920 -0.00000 -0.10900
C 	C 	0.34340 0.65660 -0.00000 -0.00800
C 	C 	0.25620 0.25620 -0.00000 0.10200
H 	H 	0.22600 0.22600 -0.00000 0.02700
C 	C 	0.39080 0.39080 -0.00000 -0.10900
C 	C 	0.34340 0.34340 -0.00000 -0.00800
C 	C 	0.00000 0.74380 0.25620 0.10100
H 	H 	0.00000 0.77400 0.22600 0.02800
C 	C 	0.00000 0.60920 0.39080 -0.10900
C 	C 	-0.00000 0.65660 0.34340 -0.00800
C 	C 	0.00000 0.74380 0.74380 0.10000
H 	H 	0.00000 0.77400 0.77400 0.03000
C 	C 	0.00000 0.60920 0.60920 -0.10900
C 	C 	-0.00000 0.65660 0.65660 -0.00700
C 	C 	0.00000 0.25620 0.74380 0.10100
H 	H 	0.00000 0.22600 0.77400 0.02800
C 	C 	0.00000 0.39080 0.60920 -0.10900
C 	C 	-0.00000 0.34340 0.65660 -0.00800
C 	C 	0.00000 0.25620 0.25620 0.10200
H 	H 	0.00000 0.22600 0.22600 0.02700
C 	C 	-0.00000 0.39080 0.39080 -0.10900
C 	C 	-0.00000 0.34340 0.34340 -0.00800
C 	C 	0.25830 0.11130 0.74170 0.45800
C 	C 	0.32190 0.05380 0.67810 0.01600
H 	H 	0.33700 0.09070 0.66300 0.03100
O 	O 	0.21940 0.11170 0.78060 -0.47600
O 	O 	0.27630 0.15860 0.72370 -0.58000
C 	C 	0.27820 0.05330 0.72180 -0.17900
C 	C 	0.74170 0.88870 0.74170 0.45600
C 	C 	0.67810 0.94620 0.67810 0.02300
H 	H 	0.66300 0.90930 0.66300 0.03200
O 	O 	0.78060 0.88830 0.78060 -0.47000
O 	O 	0.72370 0.84140 0.72370 -0.57700
C 	C 	0.72180 0.94670 0.72180 -0.16900
C 	C 	0.74170 0.11130 0.25830 0.45800
C 	C 	0.67810 0.05380 0.32190 0.01600
H 	H 	0.66300 0.09070 0.33700 0.03100
O 	O 	0.78060 0.11170 0.21940 -0.47600
O 	O 	0.72370 0.15860 0.27630 -0.58000
C 	C 	0.72180 0.05330 0.27820 -0.17900
C 	C 	0.25830 0.88870 0.25830 0.45700
C 	C 	0.32190 0.94620 0.32190 0.02500
H 	H 	0.33700 0.90930 0.33700 0.03100
O 	O 	0.21940 0.88830 0.21940 -0.47300
O 	O 	0.27630 0.84140 0.27630 -0.57800
C 	C 	0.27820 0.94670 0.27820 -0.17200
C 	C 	0.74170 0.25830 0.11130 0.45800
C 	C 	0.67810 0.32190 0.05380 0.01600
H 	H 	0.66300 0.33700 0.09070 0.03100
O 	O 	0.78060 0.21940 0.11170 -0.47600
O 	O 	0.72370 0.27630 0.15860 -0.58000
C 	C 	0.72180 0.27820 0.05330 -0.17900
C 	C 	0.74170 0.74170 0.88870 0.45600
C 	C 	0.67810 0.67810 0.94620 0.02300
H 	H 	0.66300 0.66300 0.90930 0.03200
O 	O 	0.78060 0.78060 0.88830 -0.47000
O 	O 	0.72370 0.72370 0.84140 -0.57700
C 	C 	0.72180 0.72180 0.94670 -0.16900
C 	C 	0.25830 0.74170 0.11130 0.45800
C 	C 	0.32190 0.67810 0.05380 0.01600
H 	H 	0.33700 0.66300 0.09070 0.03100
O 	O 	0.21940 0.78060 0.11170 -0.47600
O 	O 	0.27630 0.72370 0.15860 -0.58000
C 	C 	0.27820 0.72180 0.05330 -0.17900
C 	C 	0.25830 0.25830 0.88870 0.45700
C 	C 	0.32190 0.32190 0.94620 0.02500
H 	H 	0.33700 0.33700 0.90930 0.03100
O 	O 	0.21940 0.21940 0.88830 -0.47300
O 	O 	0.27630 0.27630 0.84140 -0.57800
C 	C 	0.27820 0.27820 0.94670 -0.17200
C 	C 	0.11130 0.74170 0.25830 0.45800
C 	C 	0.05380 0.67810 0.32190 0.01600
H 	H 	0.09070 0.66300 0.33700 0.03100
O 	O 	0.11170 0.78060 0.21940 -0.47600
O 	O 	0.15860 0.72370 0.27630 -0.58000
C 	C 	0.05330 0.72180 0.27820 -0.17900
C 	C 	0.88870 0.74170 0.74170 0.45600
C 	C 	0.94620 0.67810 0.67810 0.02300
H 	H 	0.90930 0.66300 0.66300 0.03200
O 	O 	0.88830 0.78060 0.78060 -0.47000
O 	O 	0.84140 0.72370 0.72370 -0.57700
C 	C 	0.94670 0.72180 0.72180 -0.16900
C 	C 	0.11130 0.25830 0.74170 0.45800
C 	C 	0.05380 0.32190 0.67810 0.01600
H 	H 	0.09070 0.33700 0.66300 0.03100
O 	O 	0.11170 0.21940 0.78060 -0.47600
O 	O 	0.15860 0.27630 0.72370 -0.58000
C 	C 	0.05330 0.27820 0.72180 -0.17900
C 	C 	0.88870 0.25830 0.25830 0.45700
C 	C 	0.94620 0.32190 0.32190 0.02500
H 	H 	0.90930 0.33700 0.33700 0.03100
O 	O 	0.88830 0.21940 0.21940 -0.47300
O 	O 	0.84140 0.27630 0.27630 -0.57800
C 	C 	0.94670 0.27820 0.27820 -0.17200
C 	C 	0.11130 0.25830 0.25830 0.45900
C 	C 	0.05380 0.32190 0.32190 0.01600
H 	H 	0.09070 0.33700 0.33700 0.03100
O 	O 	0.11170 0.21940 0.21940 -0.47800
O 	O 	0.15860 0.27630 0.27630 -0.58000
C 	C 	0.05330 0.27820 0.27820 -0.18000
C 	C 	0.88870 0.74170 0.25830 0.45700
C 	C 	0.94620 0.67810 0.32190 0.02400
H 	H 	0.90930 0.66300 0.33700 0.03100
O 	O 	0.88830 0.78060 0.21940 -0.47200
O 	O 	0.84140 0.72370 0.27630 -0.57800
C 	C 	0.94670 0.72180 0.27820 -0.17100
C 	C 	0.11130 0.74170 0.74170 0.45800
C 	C 	0.05380 0.67810 0.67810 0.01500
H 	H 	0.09070 0.66300 0.66300 0.03200
O 	O 	0.11170 0.78060 0.78060 -0.47400
O 	O 	0.15860 0.72370 0.72370 -0.57900
C 	C 	0.05330 0.72180 0.72180 -0.17700
C 	C 	0.88870 0.25830 0.74170 0.45700
C 	C 	0.94620 0.32190 0.67810 0.02400
H 	H 	0.90930 0.33700 0.66300 0.03100
O 	O 	0.88830 0.21940 0.78060 -0.47200
O 	O 	0.84140 0.27630 0.72370 -0.57800
C 	C 	0.94670 0.27820 0.72180 -0.17100
C 	C 	0.25830 0.74170 0.88870 0.45700
C 	C 	0.32190 0.67810 0.94620 0.02400
H 	H 	0.33700 0.66300 0.90930 0.03100
O 	O 	0.21940 0.78060 0.88830 -0.47200
O 	O 	0.27630 0.72370 0.84140 -0.57800
C 	C 	0.27820 0.72180 0.94670 -0.17100
C 	C 	0.74170 0.74170 0.11130 0.45800
C 	C 	0.67810 0.67810 0.05380 0.01500
H 	H 	0.66300 0.66300 0.09070 0.03200
O 	O 	0.78060 0.78060 0.11170 -0.47400
O 	O 	0.72370 0.72370 0.15860 -0.57900
C 	C 	0.72180 0.72180 0.05330 -0.17700
C 	C 	0.74170 0.25830 0.88870 0.45700
C 	C 	0.67810 0.32190 0.94620 0.02400
H 	H 	0.66300 0.33700 0.90930 0.03100
O 	O 	0.78060 0.21940 0.88830 -0.47200
O 	O 	0.72370 0.27630 0.84140 -0.57800
C 	C 	0.72180 0.27820 0.94670 -0.17100
C 	C 	0.25830 0.25830 0.11130 0.45900
C 	C 	0.32190 0.32190 0.05380 0.01600
H 	H 	0.33700 0.33700 0.09070 0.03100
O 	O 	0.21940 0.21940 0.11170 -0.47800
O 	O 	0.27630 0.27630 0.15860 -0.58000
C 	C 	0.27820 0.27820 0.05330 -0.18000
C 	C 	0.74170 0.11130 0.74170 0.45800
C 	C 	0.67810 0.05380 0.67810 0.01500
H 	H 	0.66300 0.09070 0.66300 0.03200
O 	O 	0.78060 0.11170 0.78060 -0.47400
O 	O 	0.72370 0.15860 0.72370 -0.57900
C 	C 	0.72180 0.05330 0.72180 -0.17700
C 	C 	0.74170 0.88870 0.25830 0.45700
C 	C 	0.67810 0.94620 0.32190 0.02400
H 	H 	0.66300 0.90930 0.33700 0.03100
O 	O 	0.78060 0.88830 0.21940 -0.47200
O 	O 	0.72370 0.84140 0.27630 -0.57800
C 	C 	0.72180 0.94670 0.27820 -0.17100
C 	C 	0.25830 0.11130 0.25830 0.45900
C 	C 	0.32190 0.05380 0.32190 0.01600
H 	H 	0.33700 0.09070 0.33700 0.03100
O 	O 	0.21940 0.11170 0.21940 -0.47800
O 	O 	0.27630 0.15860 0.27630 -0.58000
C 	C 	0.27820 0.05330 0.27820 -0.18000
C 	C 	0.25830 0.88870 0.74170 0.45700
C 	C 	0.32190 0.94620 0.67810 0.02400
H 	H 	0.33700 0.90930 0.66300 0.03100
O 	O 	0.21940 0.88830 0.78060 -0.47200
O 	O 	0.27630 0.84140 0.72370 -0.57800
C 	C 	0.27820 0.94670 0.72180 -0.17100
