data_crystal

_cell_length_a 12.77400
_cell_length_b 19.29900
_cell_length_c 11.05600
_cell_angle_alpha 90.00000
_cell_angle_beta  98.75200
_cell_angle_gamma 90.00000

_symmetry_space_group_name_	'P 1'
_symmetry_space_group_name_H-M	'P 1'

loop_
_symmetry_equiv_pos_as_xyz
  x,y,z

loop_
_atom_site_label
_atom_site_type_symbol
_atom_site_fract_x
_atom_site_fract_y
_atom_site_fract_z
_atom_site_charge
C 	C 	0.00000 0.36300 0.25200 -0.10300
H 	H 	0.92950 0.37680 0.23510 0.03300
C 	C 	0.14660 0.32120 0.22900 0.05900
H 	H 	0.20250 0.30070 0.19740 -0.07400
C 	C 	0.24070 0.34570 0.44420 -0.06600
H 	H 	0.23850 0.38820 0.49060 0.00900
H 	H 	0.30660 0.34500 0.41070 0.02500
C 	C 	0.23630 0.28340 0.52860 -0.09700
H 	H 	0.28510 0.29080 0.60360 0.04300
H 	H 	0.16550 0.27970 0.54980 0.02200
N 	N 	0.05100 0.33240 0.16760 -0.30300
N 	N 	0.05690 0.37150 0.35790 -0.20800
N 	N 	0.15040 0.34390 0.34350 -0.10700
C 	C 	0.50000 0.86300 0.25200 0.07300
H 	H 	0.42950 0.87680 0.23510 -0.10300
C 	C 	0.64660 0.82120 0.22900 0.05900
H 	H 	0.70250 0.80070 0.19740 -0.06300
C 	C 	0.74070 0.84570 0.44420 -0.06800
H 	H 	0.73850 0.88820 0.49060 0.01400
H 	H 	0.80660 0.84500 0.41070 0.03700
C 	C 	0.73630 0.78340 0.52860 -0.09600
H 	H 	0.78510 0.79080 0.60360 0.05300
H 	H 	0.66550 0.77970 0.54980 0.03200
N 	N 	0.55100 0.83240 0.16760 -0.31900
N 	N 	0.55690 0.87150 0.35790 -0.23200
N 	N 	0.65040 0.84390 0.34350 -0.10400
C 	C 	-0.00000 0.36300 0.74800 -0.10700
H 	H 	0.07050 0.37680 0.76490 0.00000
C 	C 	0.85340 0.32120 0.77100 0.09700
H 	H 	0.79750 0.30070 0.80260 -0.01500
C 	C 	0.75930 0.34570 0.55580 -0.06400
H 	H 	0.76150 0.38820 0.50940 0.01600
H 	H 	0.69340 0.34500 0.58930 0.03800
C 	C 	0.76370 0.28340 0.47140 -0.09000
H 	H 	0.71490 0.29080 0.39640 0.03000
H 	H 	0.83450 0.27970 0.45020 0.04100
N 	N 	0.94900 0.33240 0.83240 -0.16900
N 	N 	0.94310 0.37150 0.64210 -0.13100
N 	N 	0.84960 0.34390 0.65650 -0.09400
C 	C 	0.50000 0.86300 0.74800 0.08800
H 	H 	0.57050 0.87680 0.76490 -0.05400
C 	C 	0.35340 0.82120 0.77100 0.07700
H 	H 	0.29750 0.80070 0.80260 -0.02800
C 	C 	0.25930 0.84570 0.55580 -0.06000
H 	H 	0.26150 0.88820 0.50940 -0.00900
H 	H 	0.19340 0.84500 0.58930 0.01800
C 	C 	0.26370 0.78340 0.47140 -0.08600
H 	H 	0.21490 0.79080 0.39640 0.01500
H 	H 	0.33450 0.77970 0.45020 0.02000
N 	N 	0.44900 0.83240 0.83240 -0.25600
N 	N 	0.44310 0.87150 0.64210 -0.22700
N 	N 	0.34960 0.84390 0.65650 -0.10300
C 	C 	-0.00000 0.63700 0.74800 -0.10700
H 	H 	0.07050 0.62320 0.76490 -0.00000
C 	C 	0.85340 0.67880 0.77100 0.09600
H 	H 	0.79750 0.69930 0.80260 -0.01600
C 	C 	0.75930 0.65430 0.55580 -0.06600
H 	H 	0.76150 0.61180 0.50940 0.01700
H 	H 	0.69340 0.65500 0.58930 0.03900
C 	C 	0.76370 0.71660 0.47140 -0.08600
H 	H 	0.71490 0.70920 0.39640 0.02900
H 	H 	0.83450 0.72030 0.45020 0.03800
N 	N 	0.94900 0.66760 0.83240 -0.17000
N 	N 	0.94310 0.62850 0.64210 -0.13100
N 	N 	0.84960 0.65610 0.65650 -0.09400
C 	C 	0.50000 0.13700 0.74800 0.09300
H 	H 	0.57050 0.12320 0.76490 -0.04600
C 	C 	0.35340 0.17880 0.77100 0.08100
H 	H 	0.29750 0.19930 0.80260 -0.02600
C 	C 	0.25930 0.15430 0.55580 -0.06800
H 	H 	0.26150 0.11180 0.50940 0.00400
H 	H 	0.19340 0.15500 0.58930 0.02700
C 	C 	0.26370 0.21660 0.47140 -0.08100
H 	H 	0.21490 0.20920 0.39640 0.01700
H 	H 	0.33450 0.22030 0.45020 0.01900
N 	N 	0.44900 0.16760 0.83240 -0.25300
N 	N 	0.44310 0.12850 0.64210 -0.22200
N 	N 	0.34960 0.15610 0.65650 -0.10000
C 	C 	0.00000 0.63700 0.25200 -0.10500
H 	H 	0.92950 0.62320 0.23510 0.03100
C 	C 	0.14660 0.67880 0.22900 0.05700
H 	H 	0.20250 0.69930 0.19740 -0.07700
C 	C 	0.24070 0.65430 0.44420 -0.06900
H 	H 	0.23850 0.61180 0.49060 0.00900
H 	H 	0.30660 0.65500 0.41070 0.02500
C 	C 	0.23630 0.71660 0.52860 -0.09400
H 	H 	0.28510 0.70920 0.60360 0.04200
H 	H 	0.16550 0.72030 0.54980 0.01900
N 	N 	0.05100 0.66760 0.16760 -0.30400
N 	N 	0.05690 0.62850 0.35790 -0.20800
N 	N 	0.15040 0.65610 0.34350 -0.10600
C 	C 	0.50000 0.13700 0.25200 0.07700
H 	H 	0.42950 0.12320 0.23510 -0.09600
C 	C 	0.64660 0.17880 0.22900 0.06300
H 	H 	0.70250 0.19930 0.19740 -0.06100
C 	C 	0.74070 0.15430 0.44420 -0.07600
H 	H 	0.73850 0.11180 0.49060 0.02700
H 	H 	0.80660 0.15500 0.41070 0.04600
C 	C 	0.73630 0.21660 0.52860 -0.09100
H 	H 	0.78510 0.20920 0.60360 0.05500
H 	H 	0.66550 0.22030 0.54980 0.03200
N 	N 	0.55100 0.16760 0.16760 -0.31700
N 	N 	0.55690 0.12850 0.35790 -0.22700
N 	N 	0.65040 0.15610 0.34350 -0.10100
Cu	Cu	0.00000 0.32289 -0.00000 0.68300
Cu	Cu	0.50000 0.82289 -0.00000 0.71500
Cu	Cu	-0.00000 0.67711 -0.00000 0.68200
Cu	Cu	0.50000 0.17711 -0.00000 0.72000
Cu	Cu	0.00000 0.41010 0.50000 0.83500
Cu	Cu	0.50000 0.91010 0.50000 0.85500
Cu	Cu	0.00000 0.58990 0.50000 0.83500
Cu	Cu	0.50000 0.08990 0.50000 0.86600
O 	O 	0.00000 0.50000 0.50000 -0.62500
O 	O 	0.50000 0.00000 0.50000 -0.57400
