data_crystal

_cell_length_a 12.78100
_cell_length_b 14.16900
_cell_length_c 21.58600
_cell_angle_alpha 90.00000
_cell_angle_beta  90.00000
_cell_angle_gamma 114.17300

_symmetry_space_group_name_	'P 1'
_symmetry_space_group_name_H-M	'P 1'

loop_
_symmetry_equiv_pos_as_xyz
  x,y,z

loop_
_atom_site_label
_atom_site_type_symbol
_atom_site_fract_x
_atom_site_fract_y
_atom_site_fract_z
_atom_site_charge
Mn	Mn	0.69482 0.79978 0.51313 1.26600
Mn	Mn	0.80518 0.20022 0.01313 1.25100
Mn	Mn	0.30518 0.20022 0.48687 1.26400
Mn	Mn	0.19482 0.79978 0.98687 1.27600
Mn	Mn	-0.00000 0.00000 0.50000 1.29400
Mn	Mn	0.50000 0.00000 -0.00000 1.28600
H 	H 	0.51800 0.88590 0.43730 0.00300
H 	H 	0.43400 0.65790 0.31620 0.04000
H 	H 	0.56650 0.64040 0.39220 0.02800
H 	H 	0.35440 0.90330 0.40840 0.11000
H 	H 	0.26120 0.98880 0.35710 0.02500
H 	H 	0.28240 0.85040 0.19880 0.02000
H 	H 	0.38670 0.77320 0.24860 0.10200
H 	H 	0.11720 0.00460 0.31640 0.07900
H 	H 	0.02630 0.09630 0.27000 0.04300
H 	H 	0.16910 0.07900 0.10720 0.04700
H 	H 	0.25830 0.98530 0.15400 0.12200
H 	H 	0.01970 0.25040 0.22380 0.04800
H 	H 	0.90250 0.29540 0.15030 0.02700
H 	H 	0.99440 0.09560 0.06840 -0.01200
H 	H 	0.75520 0.60700 0.37840 0.03700
H 	H 	0.79460 0.49540 0.31320 0.07500
H 	H 	0.12830 0.68770 0.31540 0.07700
H 	H 	0.08680 0.79970 0.37960 0.04200
H 	H 	0.85530 0.31100 0.31570 0.06300
H 	H 	0.89360 0.19050 0.37360 0.03600
H 	H 	0.23060 0.36050 0.35590 0.03700
H 	H 	0.19330 0.48360 0.30020 0.07200
H 	H 	0.98200 0.11410 0.93730 -0.00100
H 	H 	0.06600 0.34210 0.81620 0.05500
H 	H 	0.93350 0.35960 0.89220 0.02300
H 	H 	0.14560 0.09670 0.90840 0.09100
H 	H 	0.23880 0.01120 0.85710 0.04900
H 	H 	0.21760 0.14960 0.69880 0.05500
H 	H 	0.11330 0.22680 0.74860 0.07500
H 	H 	0.38280 0.99540 0.81640 0.01000
H 	H 	0.47370 0.90370 0.77000 0.11800
H 	H 	0.33090 0.92100 0.60720 0.13700
H 	H 	0.24170 0.01470 0.65400 -0.03800
H 	H 	0.48030 0.74960 0.72380 0.03600
H 	H 	0.59750 0.70460 0.65030 0.03800
H 	H 	0.50560 0.90440 0.56840 0.00300
H 	H 	0.74480 0.39300 0.87840 0.03700
H 	H 	0.70540 0.50460 0.81320 0.07900
H 	H 	0.37170 0.31230 0.81540 0.07800
H 	H 	0.41320 0.20030 0.87960 0.03800
H 	H 	0.64470 0.68900 0.81570 0.07300
H 	H 	0.60640 0.80950 0.87360 0.04100
H 	H 	0.26940 0.63950 0.85590 0.03700
H 	H 	0.30670 0.51640 0.80020 0.07900
H 	H 	0.48200 0.11410 0.56270 -0.00700
H 	H 	0.56600 0.34210 0.68380 0.04300
H 	H 	0.43350 0.35960 0.60780 0.02900
H 	H 	0.64560 0.09670 0.59160 0.08500
H 	H 	0.73880 0.01120 0.64290 0.04800
H 	H 	0.71760 0.14960 0.80120 0.05700
H 	H 	0.61330 0.22680 0.75140 0.07700
H 	H 	0.88280 0.99540 0.68360 0.01200
H 	H 	0.97370 0.90370 0.73000 0.12300
H 	H 	0.83090 0.92100 0.89280 0.14400
H 	H 	0.74170 0.01470 0.84600 -0.03500
H 	H 	0.98030 0.74960 0.77620 0.02600
H 	H 	0.09750 0.70460 0.84970 0.05000
H 	H 	0.00560 0.90440 0.93160 0.01000
H 	H 	0.24480 0.39300 0.62160 0.02600
H 	H 	0.20540 0.50460 0.68680 0.08100
H 	H 	0.87170 0.31230 0.68460 0.07800
H 	H 	0.91320 0.20030 0.62040 0.02700
H 	H 	0.14470 0.68900 0.68430 0.08400
H 	H 	0.10640 0.80950 0.62640 0.03700
H 	H 	0.76940 0.63950 0.64410 0.03300
H 	H 	0.80670 0.51640 0.69980 0.08900
H 	H 	0.01800 0.88590 0.06270 -0.00000
H 	H 	0.93400 0.65790 0.18380 0.03200
H 	H 	0.06650 0.64040 0.10780 0.03400
H 	H 	0.85440 0.90330 0.09160 0.10600
H 	H 	0.76120 0.98880 0.14290 0.02600
H 	H 	0.78240 0.85040 0.30120 0.02200
H 	H 	0.88670 0.77320 0.25140 0.10400
H 	H 	0.61720 0.00460 0.18360 0.08000
H 	H 	0.52630 0.09630 0.23000 0.04700
H 	H 	0.66910 0.07900 0.39280 0.05200
H 	H 	0.75830 0.98530 0.34600 0.12500
H 	H 	0.51970 0.25040 0.27620 0.04100
H 	H 	0.40250 0.29540 0.34970 0.03700
H 	H 	0.49440 0.09560 0.43160 -0.00300
H 	H 	0.25520 0.60700 0.12160 0.02700
H 	H 	0.29460 0.49540 0.18680 0.07700
H 	H 	0.62830 0.68770 0.18460 0.07800
H 	H 	0.58680 0.79970 0.12040 0.03200
H 	H 	0.35530 0.31100 0.18430 0.07200
H 	H 	0.39360 0.19050 0.12640 0.03200
H 	H 	0.73060 0.36050 0.14410 0.03400
H 	H 	0.69330 0.48360 0.19980 0.08000
C 	C 	0.51400 0.82680 0.41680 0.10300
C 	C 	0.46670 0.70170 0.34955 0.01200
C 	C 	0.53990 0.69240 0.39183 -0.00200
C 	C 	0.38360 0.83280 0.33315 0.15500
C 	C 	0.34290 0.89510 0.36581 -0.16500
C 	C 	0.28510 0.94480 0.33510 0.05500
C 	C 	0.26190 0.93060 0.27196 -0.08200
C 	C 	0.29930 0.86340 0.24063 0.05000
C 	C 	0.36090 0.81600 0.27048 -0.16100
C 	C 	0.19990 0.98620 0.24074 0.15100
C 	C 	0.12840 0.01980 0.27432 -0.14800
C 	C 	0.07400 0.07490 0.24676 -0.02200
C 	C 	0.09060 0.09850 0.18393 0.04500
C 	C 	0.15900 0.06440 0.14937 -0.01300
C 	C 	0.21270 0.00850 0.17765 -0.19500
C 	C 	0.00060 0.22460 0.18377 -0.02500
C 	C 	0.93610 0.24930 0.14292 0.02000
C 	C 	0.98590 0.14000 0.09782 0.11400
C 	C 	0.89180 0.78780 0.42731 0.40900
C 	C 	0.91770 0.71487 0.38528 -0.09900
C 	C 	0.83010 0.62350 0.36549 0.02900
C 	C 	0.85340 0.55640 0.32666 -0.08200
C 	C 	0.96510 0.58170 0.30839 0.01700
C 	C 	0.05330 0.67180 0.32782 -0.09900
C 	C 	0.02800 0.73840 0.36644 0.00900
C 	C 	0.02140 0.40880 0.30315 -0.03800
C 	C 	0.93060 0.32130 0.32427 -0.05300
C 	C 	0.95390 0.24900 0.35851 0.04400
C 	C 	0.06570 0.26310 0.37036 -0.13900
C 	C 	0.15520 0.35070 0.34826 0.02900
C 	C 	0.13310 0.42440 0.31471 -0.06800
C 	C 	0.09130 0.18360 0.40664 0.41500
C 	C 	0.98600 0.17320 0.91680 0.12400
C 	C 	0.03330 0.29830 0.84955 -0.03200
C 	C 	0.96010 0.30760 0.89183 0.04200
C 	C 	0.11640 0.16720 0.83315 0.10300
C 	C 	0.15710 0.10490 0.86581 -0.10900
C 	C 	0.21490 0.05520 0.83510 -0.04600
C 	C 	0.23810 0.06940 0.77196 0.04900
C 	C 	0.20070 0.13660 0.74063 -0.05300
C 	C 	0.13910 0.18400 0.77048 -0.09900
C 	C 	0.30010 0.01380 0.74074 -0.14400
C 	C 	0.37160 0.98020 0.77432 0.11400
C 	C 	0.42600 0.92510 0.74676 -0.20400
C 	C 	0.40940 0.90150 0.68393 0.19600
C 	C 	0.34100 0.93560 0.64937 -0.23900
C 	C 	0.28730 0.99150 0.67765 0.16600
C 	C 	0.49940 0.77540 0.68377 0.02000
C 	C 	0.56390 0.75070 0.64292 -0.01300
C 	C 	0.51410 0.86000 0.59782 0.11100
C 	C 	0.60820 0.21220 0.92731 0.41900
C 	C 	0.58230 0.28513 0.88528 -0.12400
C 	C 	0.66990 0.37650 0.86549 0.04100
C 	C 	0.64660 0.44360 0.82666 -0.08700
C 	C 	0.53490 0.41830 0.80839 0.01100
C 	C 	0.44670 0.32820 0.82782 -0.08900
C 	C 	0.47200 0.26160 0.86644 0.04000
C 	C 	0.47860 0.59120 0.80315 0.00700
C 	C 	0.56940 0.67870 0.82427 -0.08300
C 	C 	0.54610 0.75100 0.85851 0.03200
C 	C 	0.43430 0.73690 0.87036 -0.11800
C 	C 	0.34480 0.64930 0.84826 0.03400
C 	C 	0.36690 0.57560 0.81471 -0.08400
C 	C 	0.40870 0.81640 0.90664 0.40600
C 	C 	0.48600 0.17320 0.58320 0.10000
C 	C 	0.53330 0.29830 0.65045 0.00900
C 	C 	0.46010 0.30760 0.60817 -0.00100
C 	C 	0.61640 0.16720 0.66685 0.10500
C 	C 	0.65710 0.10490 0.63419 -0.10400
C 	C 	0.71490 0.05520 0.66490 -0.04800
C 	C 	0.73810 0.06940 0.72804 0.05400
C 	C 	0.70070 0.13660 0.75937 -0.05300
C 	C 	0.63910 0.18400 0.72952 -0.09600
C 	C 	0.80010 0.01380 0.75926 -0.14600
C 	C 	0.87160 0.98020 0.72568 0.12100
C 	C 	0.92600 0.92510 0.75324 -0.20600
C 	C 	0.90940 0.90150 0.81607 0.20400
C 	C 	0.84100 0.93560 0.85063 -0.24000
C 	C 	0.78730 0.99150 0.82235 0.17000
C 	C 	0.99940 0.77540 0.81623 0.06500
C 	C 	0.06390 0.75070 0.85708 -0.05400
C 	C 	0.01410 0.86000 0.90218 0.09000
C 	C 	0.10820 0.21220 0.57269 0.43100
C 	C 	0.08230 0.28513 0.61472 -0.16300
C 	C 	0.16990 0.37650 0.63451 0.05700
C 	C 	0.14660 0.44360 0.67334 -0.10100
C 	C 	0.03490 0.41830 0.69161 0.00500
C 	C 	0.94670 0.32820 0.67218 -0.08500
C 	C 	0.97200 0.26160 0.63356 0.07500
C 	C 	0.97860 0.59120 0.69685 0.06100
C 	C 	0.06940 0.67870 0.67573 -0.12700
C 	C 	0.04610 0.75100 0.64149 0.02100
C 	C 	0.93430 0.73690 0.62964 -0.10800
C 	C 	0.84480 0.64930 0.65174 0.04300
C 	C 	0.86690 0.57560 0.68529 -0.10900
C 	C 	0.90870 0.81640 0.59336 0.40200
C 	C 	0.01400 0.82680 0.08320 0.08300
C 	C 	0.96670 0.70170 0.15045 0.04500
C 	C 	0.03990 0.69240 0.10817 -0.03800
C 	C 	0.88360 0.83280 0.16685 0.15600
C 	C 	0.84290 0.89510 0.13419 -0.16100
C 	C 	0.78510 0.94480 0.16490 0.05400
C 	C 	0.76190 0.93060 0.22804 -0.07900
C 	C 	0.79930 0.86340 0.25937 0.05100
C 	C 	0.86090 0.81600 0.22952 -0.15900
C 	C 	0.69990 0.98620 0.25926 0.15300
C 	C 	0.62840 0.01980 0.22568 -0.14700
C 	C 	0.57400 0.07490 0.25324 -0.02200
C 	C 	0.59060 0.09850 0.31607 0.05000
C 	C 	0.65900 0.06440 0.35063 -0.01300
C 	C 	0.71270 0.00850 0.32235 -0.19400
C 	C 	0.50060 0.22460 0.31623 0.00900
C 	C 	0.43610 0.24930 0.35708 -0.01100
C 	C 	0.48590 0.14000 0.40218 0.09900
C 	C 	0.39180 0.78780 0.07269 0.42000
C 	C 	0.41770 0.71487 0.11472 -0.13500
C 	C 	0.33010 0.62350 0.13451 0.04400
C 	C 	0.35340 0.55640 0.17334 -0.09500
C 	C 	0.46510 0.58170 0.19161 0.01100
C 	C 	0.55330 0.67180 0.17218 -0.09600
C 	C 	0.52800 0.73840 0.13356 0.04300
C 	C 	0.52140 0.40880 0.19685 0.00800
C 	C 	0.43060 0.32130 0.17573 -0.09100
C 	C 	0.45390 0.24900 0.14149 0.03400
C 	C 	0.56570 0.26310 0.12964 -0.13000
C 	C 	0.65520 0.35070 0.15174 0.03600
C 	C 	0.63310 0.42440 0.18529 -0.08900
C 	C 	0.59130 0.18360 0.09336 0.41000
S 	S 	0.99511 0.49940 0.25616 0.31200
S 	S 	0.50489 0.50060 0.75616 0.26900
S 	S 	0.00489 0.50060 0.74384 0.21400
S 	S 	0.49511 0.49940 0.24384 0.26600
N 	N 	0.56910 0.77170 0.43422 -0.23700
N 	N 	0.45010 0.78809 0.36531 -0.14600
N 	N 	0.03280 0.15430 0.15512 -0.13600
N 	N 	0.92740 0.19561 0.08853 -0.24600
N 	N 	0.77340 0.03380 0.49904 0.01300
N 	N 	0.93090 0.22830 0.93422 -0.23700
N 	N 	0.04990 0.21191 0.86531 -0.14500
N 	N 	0.46720 0.84570 0.65512 -0.15500
N 	N 	0.57260 0.80439 0.58853 -0.23300
N 	N 	0.72660 0.96620 0.99904 0.06000
N 	N 	0.43090 0.22830 0.56578 -0.23900
N 	N 	0.54990 0.21191 0.63469 -0.14000
N 	N 	0.96720 0.84570 0.84488 -0.14900
N 	N 	0.07260 0.80439 0.91147 -0.22100
N 	N 	0.22660 0.96620 0.50096 0.03300
N 	N 	0.06910 0.77170 0.06578 -0.23900
N 	N 	0.95010 0.78809 0.13469 -0.14200
N 	N 	0.53280 0.15430 0.34488 -0.13200
N 	N 	0.42740 0.19561 0.41147 -0.23500
N 	N 	0.27340 0.03380 0.00096 -0.01100
O 	O 	0.79471 0.75449 0.45012 -0.47700
O 	O 	0.97110 0.87538 0.43553 -0.42200
O 	O 	0.89220 0.44417 0.22183 -0.24000
O 	O 	0.09950 0.55977 0.22429 -0.24900
O 	O 	0.00838 0.10681 0.42603 -0.45300
O 	O 	0.19419 0.20125 0.41231 -0.47400
O 	O 	0.80955 0.96377 0.50230 -0.39000
O 	O 	0.67265 0.02205 0.49745 -0.19100
O 	O 	0.70529 0.24551 0.95012 -0.46300
O 	O 	0.52890 0.12462 0.93553 -0.43200
O 	O 	0.60780 0.55583 0.72183 -0.23300
O 	O 	0.40050 0.44023 0.72429 -0.22900
O 	O 	0.49162 0.89319 0.92603 -0.41400
O 	O 	0.30581 0.79875 0.91231 -0.46200
O 	O 	0.69045 0.03623 0.00230 -0.46700
O 	O 	0.82735 0.97795 0.99745 -0.15600
O 	O 	0.20529 0.24551 0.54988 -0.48600
O 	O 	0.02890 0.12462 0.56447 -0.46000
O 	O 	0.10780 0.55583 0.77817 -0.22500
O 	O 	0.90050 0.44023 0.77571 -0.20500
O 	O 	0.99162 0.89319 0.57397 -0.41300
O 	O 	0.80581 0.79875 0.58769 -0.46500
O 	O 	0.19045 0.03623 0.49770 -0.43600
O 	O 	0.32735 0.97795 0.50255 -0.17600
O 	O 	0.29471 0.75449 0.04988 -0.49600
O 	O 	0.47110 0.87538 0.06447 -0.44400
O 	O 	0.39220 0.44417 0.27817 -0.23300
O 	O 	0.59950 0.55977 0.27571 -0.22900
O 	O 	0.50838 0.10681 0.07397 -0.45200
O 	O 	0.69419 0.20125 0.08769 -0.47800
O 	O 	0.30955 0.96377 0.99770 -0.36200
O 	O 	0.17265 0.02205 0.00255 -0.21000
