data_crystal

_cell_length_a 24.55200
_cell_length_b 24.55200
_cell_length_c 4.84500
_cell_angle_alpha 90.00000
_cell_angle_beta  90.00000
_cell_angle_gamma 90.00000

_symmetry_space_group_name_	'P 1'
_symmetry_space_group_name_H-M	'P 1'

loop_
_symmetry_equiv_pos_as_xyz
  x,y,z

loop_
_atom_site_label
_atom_site_type_symbol
_atom_site_fract_x
_atom_site_fract_y
_atom_site_fract_z
_atom_site_charge
N 	N 	0.96820 0.56920 0.48260 -0.18100
C 	C 	0.96240 0.64210 0.11840 -0.00400
C 	C 	0.91470 0.66290 0.01840 -0.03200
C 	C 	0.91370 0.70330 0.82490 -0.06700
C 	C 	0.96120 0.72800 0.72470 0.04000
C 	C 	0.01110 0.70780 0.82460 -0.08400
C 	C 	0.00970 0.66430 0.02690 -0.05800
C 	C 	0.96560 0.60230 0.31790 0.07400
H 	H 	0.88190 0.64910 0.08420 0.03700
H 	H 	0.88020 0.71480 0.75700 0.05000
H 	H 	0.04410 0.72200 0.76260 0.05200
H 	H 	0.04250 0.65110 0.09660 0.04500
N 	N 	0.46820 0.06920 0.98260 -0.18800
C 	C 	0.46240 0.14210 0.61840 -0.04100
C 	C 	0.41470 0.16290 0.51840 -0.01300
C 	C 	0.41370 0.20330 0.32490 -0.08500
C 	C 	0.46120 0.22800 0.22470 0.04200
C 	C 	0.51110 0.20780 0.32460 -0.08000
C 	C 	0.50970 0.16430 0.52690 -0.02200
C 	C 	0.46560 0.10230 0.81790 0.07900
H 	H 	0.38190 0.14910 0.58420 0.03000
H 	H 	0.38020 0.21480 0.25700 0.05400
H 	H 	0.54410 0.22200 0.26260 0.05200
H 	H 	0.54250 0.15110 0.59660 0.03600
N 	N 	0.03180 0.43080 0.48260 -0.19400
C 	C 	0.03760 0.35790 0.11840 -0.06600
C 	C 	0.08530 0.33710 0.01840 -0.00800
C 	C 	0.08630 0.29670 0.82490 -0.07700
C 	C 	0.03880 0.27200 0.72470 0.01000
C 	C 	0.98890 0.29220 0.82460 -0.05500
C 	C 	0.99030 0.33570 0.02690 0.00400
C 	C 	0.03440 0.39770 0.31790 0.08100
H 	H 	0.11810 0.35090 0.08420 0.02900
H 	H 	0.11980 0.28520 0.75700 0.05300
H 	H 	0.95590 0.27800 0.76260 0.04800
H 	H 	0.95750 0.34890 0.09660 0.03100
N 	N 	0.53180 0.93080 0.98260 -0.18000
C 	C 	0.53760 0.85790 0.61840 -0.03900
C 	C 	0.58530 0.83710 0.51840 -0.01300
C 	C 	0.58630 0.79670 0.32490 -0.08400
C 	C 	0.53880 0.77200 0.22470 0.04100
C 	C 	0.48890 0.79220 0.32460 -0.08000
C 	C 	0.49030 0.83570 0.52690 -0.02200
C 	C 	0.53440 0.89770 0.81790 0.08300
H 	H 	0.61810 0.85090 0.58420 0.03200
H 	H 	0.61980 0.78520 0.25700 0.05400
H 	H 	0.45590 0.77800 0.26260 0.05200
H 	H 	0.45750 0.84890 0.59660 0.03700
N 	N 	0.56920 0.03180 0.51740 -0.19900
C 	C 	0.64210 0.03760 0.88160 -0.09000
C 	C 	0.66290 0.08530 0.98160 0.02900
C 	C 	0.70330 0.08630 0.17510 -0.11300
C 	C 	0.72800 0.03880 0.27530 0.03500
C 	C 	0.70780 0.98890 0.17540 -0.08600
C 	C 	0.66430 0.99030 0.97310 0.03500
C 	C 	0.60230 0.03440 0.68210 0.09100
H 	H 	0.64910 0.11810 0.91580 0.01800
H 	H 	0.71480 0.11980 0.24300 0.06400
H 	H 	0.72200 0.95590 0.23740 0.05700
H 	H 	0.65110 0.95750 0.90340 0.02200
N 	N 	0.06920 0.53180 0.01740 -0.18900
C 	C 	0.14210 0.53760 0.38160 -0.03000
C 	C 	0.16290 0.58530 0.48160 -0.02800
C 	C 	0.20330 0.58630 0.67510 -0.06300
C 	C 	0.22800 0.53880 0.77530 0.01500
C 	C 	0.20780 0.48890 0.67540 -0.06100
C 	C 	0.16430 0.49030 0.47310 -0.03500
C 	C 	0.10230 0.53440 0.18210 0.07300
H 	H 	0.14910 0.61810 0.41580 0.03500
H 	H 	0.21480 0.61980 0.74300 0.04800
H 	H 	0.22200 0.45590 0.73740 0.04700
H 	H 	0.15110 0.45750 0.40340 0.04000
N 	N 	0.43080 0.96820 0.51740 -0.18400
C 	C 	0.35790 0.96240 0.88160 -0.02700
C 	C 	0.33710 0.91470 0.98160 0.00300
C 	C 	0.29670 0.91370 0.17510 -0.10200
C 	C 	0.27200 0.96120 0.27530 0.06300
C 	C 	0.29220 0.01110 0.17540 -0.11400
C 	C 	0.33570 0.00970 0.97310 -0.02900
C 	C 	0.39770 0.96560 0.68210 0.08400
H 	H 	0.35090 0.88190 0.91580 0.02700
H 	H 	0.28520 0.88020 0.24300 0.06000
H 	H 	0.27800 0.04410 0.23740 0.06100
H 	H 	0.34890 0.04250 0.90340 0.03700
N 	N 	0.93080 0.46820 0.01740 -0.18100
C 	C 	0.85790 0.46240 0.38160 -0.02800
C 	C 	0.83710 0.41470 0.48160 -0.02800
C 	C 	0.79670 0.41370 0.67510 -0.06200
C 	C 	0.77200 0.46120 0.77530 0.01400
C 	C 	0.79220 0.51110 0.67540 -0.06000
C 	C 	0.83570 0.50970 0.47310 -0.03500
C 	C 	0.89770 0.46560 0.18210 0.07700
H 	H 	0.85090 0.38190 0.41580 0.03700
H 	H 	0.78520 0.38020 0.74300 0.04800
H 	H 	0.77800 0.54410 0.73740 0.04700
H 	H 	0.84890 0.54250 0.40340 0.04100
N 	N 	0.53180 0.56920 0.26740 -0.18700
C 	C 	0.53760 0.64210 0.63160 -0.01100
C 	C 	0.58530 0.66290 0.73160 -0.05100
C 	C 	0.58630 0.70330 0.92510 -0.02900
C 	C 	0.53880 0.72800 0.02530 -0.01700
C 	C 	0.48890 0.70780 0.92540 -0.03100
C 	C 	0.49030 0.66430 0.72310 -0.05300
C 	C 	0.53440 0.60230 0.43210 0.06700
H 	H 	0.61810 0.64910 0.66580 0.04400
H 	H 	0.61980 0.71480 0.99300 0.04000
H 	H 	0.45590 0.72200 0.98740 0.04100
H 	H 	0.45750 0.65110 0.65340 0.04700
N 	N 	0.03180 0.06920 0.76740 -0.19700
C 	C 	0.03760 0.14210 0.13160 -0.07100
C 	C 	0.08530 0.16290 0.23160 -0.00600
C 	C 	0.08630 0.20330 0.42510 -0.07800
C 	C 	0.03880 0.22800 0.52530 0.01100
C 	C 	0.98890 0.20780 0.42540 -0.05500
C 	C 	0.99030 0.16430 0.22310 0.00600
C 	C 	0.03440 0.10230 0.93210 0.08300
H 	H 	0.11810 0.14910 0.16580 0.02600
H 	H 	0.11980 0.21480 0.49300 0.05300
H 	H 	0.95590 0.22200 0.48740 0.04800
H 	H 	0.95750 0.15110 0.15340 0.03000
N 	N 	0.46820 0.43080 0.26740 -0.18700
C 	C 	0.46240 0.35790 0.63160 -0.01000
C 	C 	0.41470 0.33710 0.73160 -0.05100
C 	C 	0.41370 0.29670 0.92510 -0.02800
C 	C 	0.46120 0.27200 0.02530 -0.01800
C 	C 	0.51110 0.29220 0.92540 -0.03000
C 	C 	0.50970 0.33570 0.72310 -0.05400
C 	C 	0.46560 0.39770 0.43210 0.06700
H 	H 	0.38190 0.35090 0.66580 0.04500
H 	H 	0.38020 0.28520 0.99300 0.03900
H 	H 	0.54410 0.27800 0.98740 0.04000
H 	H 	0.54250 0.34890 0.65340 0.04800
N 	N 	0.96820 0.93080 0.76740 -0.17400
C 	C 	0.96240 0.85790 0.13160 -0.00500
C 	C 	0.91470 0.83710 0.23160 -0.03200
C 	C 	0.91370 0.79670 0.42510 -0.06500
C 	C 	0.96120 0.77200 0.52530 0.03800
C 	C 	0.01110 0.79220 0.42540 -0.08100
C 	C 	0.00970 0.83570 0.22310 -0.05900
C 	C 	0.96560 0.89770 0.93210 0.07800
H 	H 	0.88190 0.85090 0.16580 0.03800
H 	H 	0.88020 0.78520 0.49300 0.04900
H 	H 	0.04410 0.77800 0.48740 0.05100
H 	H 	0.04250 0.84890 0.15340 0.04500
N 	N 	0.93080 0.03180 0.23260 -0.18600
C 	C 	0.85790 0.03760 0.86840 -0.04800
C 	C 	0.83710 0.08530 0.76840 -0.02400
C 	C 	0.79670 0.08630 0.57490 -0.05900
C 	C 	0.77200 0.03880 0.47470 -0.00700
C 	C 	0.79220 0.98890 0.57460 -0.04000
C 	C 	0.83570 0.99030 0.77690 -0.01000
C 	C 	0.89770 0.03440 0.06790 0.07300
H 	H 	0.85090 0.11810 0.83420 0.03600
H 	H 	0.78520 0.11980 0.50700 0.04600
H 	H 	0.77800 0.95590 0.51260 0.04200
H 	H 	0.84890 0.95750 0.84660 0.03700
N 	N 	0.43080 0.53180 0.73260 -0.18600
C 	C 	0.35790 0.53760 0.36840 -0.04300
C 	C 	0.33710 0.58530 0.26840 -0.01000
C 	C 	0.29670 0.58630 0.07490 -0.08800
C 	C 	0.27200 0.53880 0.97470 0.04400
C 	C 	0.29220 0.48890 0.07460 -0.08400
C 	C 	0.33570 0.49030 0.27690 -0.02000
C 	C 	0.39770 0.53440 0.56790 0.08100
H 	H 	0.35090 0.61810 0.33420 0.02900
H 	H 	0.28520 0.61980 0.00700 0.05500
H 	H 	0.27800 0.45590 0.01260 0.05300
H 	H 	0.34890 0.45750 0.34660 0.03500
N 	N 	0.06920 0.96820 0.23260 -0.17900
C 	C 	0.14210 0.96240 0.86840 0.01300
C 	C 	0.16290 0.91470 0.76840 -0.04900
C 	C 	0.20330 0.91370 0.57490 -0.04900
C 	C 	0.22800 0.96120 0.47470 0.02100
C 	C 	0.20780 0.01110 0.57460 -0.06800
C 	C 	0.16430 0.00970 0.77690 -0.07400
C 	C 	0.10230 0.96560 0.06790 0.06200
H 	H 	0.14910 0.88190 0.83420 0.04300
H 	H 	0.21480 0.88020 0.50700 0.04200
H 	H 	0.22200 0.04410 0.51260 0.04600
H 	H 	0.15110 0.04250 0.84660 0.05100
N 	N 	0.56920 0.46820 0.73260 -0.18600
C 	C 	0.64210 0.46240 0.36840 -0.04400
C 	C 	0.66290 0.41470 0.26840 -0.00900
C 	C 	0.70330 0.41370 0.07490 -0.08900
C 	C 	0.72800 0.46120 0.97470 0.04500
C 	C 	0.70780 0.51110 0.07460 -0.08400
C 	C 	0.66430 0.50970 0.27690 -0.01900
C 	C 	0.60230 0.46560 0.56790 0.08100
H 	H 	0.64910 0.38190 0.33420 0.02900
H 	H 	0.71480 0.38020 0.00700 0.05500
H 	H 	0.72200 0.54410 0.01260 0.05400
H 	H 	0.65110 0.54250 0.34660 0.03500
Ag	Ag	-0.00000 0.50000 0.75000 0.54100
Ag	Ag	0.50000 -0.00000 0.25000 0.53700
Ag	Ag	0.50000 0.50000 -0.00000 0.54700
Ag	Ag	-0.00000 -0.00000 0.50000 0.53100
