data_crystal

_cell_length_a 24.27200
_cell_length_b 24.27200
_cell_length_c 4.93700
_cell_angle_alpha 90.00000
_cell_angle_beta  90.00000
_cell_angle_gamma 90.00000

_symmetry_space_group_name_	'P 1'
_symmetry_space_group_name_H-M	'P 1'

loop_
_symmetry_equiv_pos_as_xyz
  x,y,z

loop_
_atom_site_label
_atom_site_type_symbol
_atom_site_fract_x
_atom_site_fract_y
_atom_site_fract_z
_atom_site_charge
N 	N 	0.92970 0.47100 0.51780 -0.18700
C 	C 	0.85530 0.46530 0.88190 -0.05600
C 	C 	0.83560 0.51330 0.97600 0.00600
C 	C 	0.79230 0.51340 0.17000 -0.10200
C 	C 	0.77180 0.46450 0.27320 0.04900
C 	C 	0.79590 0.41470 0.16600 -0.11000
C 	C 	0.83470 0.41570 0.98500 0.02100
C 	C 	0.89660 0.46820 0.67670 0.09100
H 	H 	0.85020 0.54650 0.91500 0.02800
H 	H 	0.77750 0.54670 0.22800 0.06000
H 	H 	0.78310 0.38080 0.22800 0.06300
H 	H 	0.84920 0.38250 0.92200 0.02100
N 	N 	0.42970 0.97100 0.01780 -0.17900
C 	C 	0.35530 0.96530 0.38190 0.00600
C 	C 	0.33560 0.01330 0.47600 -0.07000
C 	C 	0.29230 0.01340 0.67000 -0.07400
C 	C 	0.27180 0.96450 0.77320 0.02700
C 	C 	0.29590 0.91470 0.66600 -0.05400
C 	C 	0.33470 0.91570 0.48500 -0.04200
C 	C 	0.39660 0.96820 0.17670 0.07400
H 	H 	0.35020 0.04650 0.41500 0.04800
H 	H 	0.27750 0.04670 0.72800 0.04900
H 	H 	0.28310 0.88080 0.72800 0.04400
H 	H 	0.34920 0.88250 0.42200 0.04000
N 	N 	0.07030 0.52900 0.51780 -0.19700
C 	C 	0.14470 0.53470 0.88190 -0.06000
C 	C 	0.16440 0.48670 0.97600 0.00600
C 	C 	0.20770 0.48660 0.17000 -0.10300
C 	C 	0.22820 0.53550 0.27320 0.05000
C 	C 	0.20410 0.58530 0.16600 -0.11200
C 	C 	0.16530 0.58430 0.98500 0.02200
C 	C 	0.10340 0.53180 0.67670 0.08700
H 	H 	0.14980 0.45350 0.91500 0.02700
H 	H 	0.22250 0.45330 0.22800 0.06100
H 	H 	0.21690 0.61920 0.22800 0.06300
H 	H 	0.15080 0.61750 0.92200 0.01900
N 	N 	0.57030 0.02900 0.01780 -0.19400
C 	C 	0.64470 0.03470 0.38190 -0.05900
C 	C 	0.66440 0.98670 0.47600 -0.00400
C 	C 	0.70770 0.98660 0.67000 -0.04500
C 	C 	0.72820 0.03550 0.77320 -0.00200
C 	C 	0.70410 0.08530 0.66600 -0.06700
C 	C 	0.66530 0.08430 0.48500 -0.01500
C 	C 	0.60340 0.03180 0.17670 0.08000
H 	H 	0.64980 0.95350 0.41500 0.03300
H 	H 	0.72250 0.95330 0.72800 0.04500
H 	H 	0.71690 0.11920 0.72800 0.04900
H 	H 	0.65080 0.11750 0.42200 0.03100
N 	N 	0.47100 0.07030 0.48220 -0.19300
C 	C 	0.46530 0.14470 0.11810 -0.03500
C 	C 	0.51330 0.16440 0.02400 -0.02700
C 	C 	0.51340 0.20770 0.83000 -0.07000
C 	C 	0.46450 0.22820 0.72680 0.02400
C 	C 	0.41470 0.20410 0.83400 -0.07200
C 	C 	0.41570 0.16530 0.01500 -0.01800
C 	C 	0.46820 0.10340 0.32330 0.07800
H 	H 	0.54650 0.14980 0.08500 0.03700
H 	H 	0.54670 0.22250 0.77200 0.05000
H 	H 	0.38080 0.21690 0.77200 0.05000
H 	H 	0.38250 0.15080 0.07800 0.03100
N 	N 	0.97100 0.57030 0.98220 -0.17800
C 	C 	0.96530 0.64470 0.61810 -0.00700
C 	C 	0.01330 0.66440 0.52400 -0.05400
C 	C 	0.01340 0.70770 0.33000 -0.09500
C 	C 	0.96450 0.72820 0.22680 0.05500
C 	C 	0.91470 0.70410 0.33400 -0.07800
C 	C 	0.91570 0.66530 0.51500 -0.02300
C 	C 	0.96820 0.60340 0.82330 0.08000
H 	H 	0.04650 0.64980 0.58500 0.04300
H 	H 	0.04670 0.72250 0.27200 0.05500
H 	H 	0.88080 0.71690 0.27200 0.05100
H 	H 	0.88250 0.65080 0.57800 0.03400
N 	N 	0.52900 0.92970 0.48220 -0.18400
C 	C 	0.53470 0.85530 0.11810 -0.03200
C 	C 	0.48670 0.83560 0.02400 -0.02800
C 	C 	0.48660 0.79230 0.83000 -0.06900
C 	C 	0.53550 0.77180 0.72680 0.02300
C 	C 	0.58530 0.79590 0.83400 -0.07000
C 	C 	0.58430 0.83470 0.01500 -0.01900
C 	C 	0.53180 0.89660 0.32330 0.08100
H 	H 	0.45350 0.85020 0.08500 0.03800
H 	H 	0.45330 0.77750 0.77200 0.05000
H 	H 	0.61920 0.78310 0.77200 0.05000
H 	H 	0.61750 0.84920 0.07800 0.03300
N 	N 	0.02900 0.42970 0.98220 -0.19300
C 	C 	0.03470 0.35530 0.61810 -0.07100
C 	C 	0.98670 0.33560 0.52400 0.01100
C 	C 	0.98660 0.29230 0.33000 -0.06500
C 	C 	0.03550 0.27180 0.22680 0.02500
C 	C 	0.08530 0.29590 0.33400 -0.08900
C 	C 	0.08430 0.33470 0.51500 0.00200
C 	C 	0.03180 0.39660 0.82330 0.08600
H 	H 	0.95350 0.35020 0.58500 0.02800
H 	H 	0.95330 0.27750 0.27200 0.05100
H 	H 	0.11920 0.28310 0.27200 0.05500
H 	H 	0.11750 0.34920 0.57800 0.02500
N 	N 	0.57030 0.47100 0.23220 -0.18800
C 	C 	0.64470 0.46530 0.86810 -0.01700
C 	C 	0.66440 0.51330 0.77400 -0.04400
C 	C 	0.70770 0.51340 0.58000 -0.05100
C 	C 	0.72820 0.46450 0.47680 0.00400
C 	C 	0.70410 0.41470 0.58400 -0.05100
C 	C 	0.66530 0.41570 0.76500 -0.03700
C 	C 	0.60340 0.46820 0.07330 0.07000
H 	H 	0.64980 0.54650 0.83500 0.04400
H 	H 	0.72250 0.54670 0.52200 0.04300
H 	H 	0.71690 0.38080 0.52200 0.04300
H 	H 	0.65080 0.38250 0.82800 0.03900
N 	N 	0.07030 0.97100 0.73220 -0.18100
C 	C 	0.14470 0.96530 0.36810 -0.00900
C 	C 	0.16440 0.01330 0.27400 -0.05400
C 	C 	0.20770 0.01340 0.08000 -0.09700
C 	C 	0.22820 0.96450 0.97680 0.05500
C 	C 	0.20410 0.91470 0.08400 -0.07900
C 	C 	0.16530 0.91570 0.26500 -0.02300
C 	C 	0.10340 0.96820 0.57330 0.07700
H 	H 	0.14980 0.04650 0.33500 0.04200
H 	H 	0.22250 0.04670 0.02200 0.05600
H 	H 	0.21690 0.88080 0.02200 0.05100
H 	H 	0.15080 0.88250 0.32800 0.03200
N 	N 	0.42970 0.52900 0.23220 -0.18800
C 	C 	0.35530 0.53470 0.86810 -0.01700
C 	C 	0.33560 0.48670 0.77400 -0.04500
C 	C 	0.29230 0.48660 0.58000 -0.05100
C 	C 	0.27180 0.53550 0.47680 0.00300
C 	C 	0.29590 0.58530 0.58400 -0.05100
C 	C 	0.33470 0.58430 0.76500 -0.03700
C 	C 	0.39660 0.53180 0.07330 0.07000
H 	H 	0.35020 0.45350 0.83500 0.04400
H 	H 	0.27750 0.45330 0.52200 0.04300
H 	H 	0.28310 0.61920 0.52200 0.04300
H 	H 	0.34920 0.61750 0.82800 0.03900
N 	N 	0.92970 0.02900 0.73220 -0.18800
C 	C 	0.85530 0.03470 0.36810 -0.07200
C 	C 	0.83560 0.98670 0.27400 0.01300
C 	C 	0.79230 0.98660 0.08000 -0.07000
C 	C 	0.77180 0.03550 0.97680 0.02800
C 	C 	0.79590 0.08530 0.08400 -0.09300
C 	C 	0.83470 0.08430 0.26500 0.00500
C 	C 	0.89660 0.03180 0.57330 0.08800
H 	H 	0.85020 0.95350 0.33500 0.02700
H 	H 	0.77750 0.95330 0.02200 0.05200
H 	H 	0.78310 0.11920 0.02200 0.05700
H 	H 	0.84920 0.11750 0.32800 0.02400
N 	N 	0.02900 0.07030 0.26780 -0.19700
C 	C 	0.03470 0.14470 0.63190 -0.04100
C 	C 	0.98670 0.16440 0.72600 -0.02400
C 	C 	0.98660 0.20770 0.92000 -0.01500
C 	C 	0.03550 0.22820 0.02320 -0.03200
C 	C 	0.08530 0.20410 0.91600 -0.03400
C 	C 	0.08430 0.16530 0.73500 -0.03900
C 	C 	0.03180 0.10340 0.42670 0.07100
H 	H 	0.95350 0.14980 0.66500 0.04100
H 	H 	0.95330 0.22250 0.97800 0.03800
H 	H 	0.11920 0.21690 0.97800 0.04000
H 	H 	0.11750 0.15080 0.67200 0.03900
N 	N 	0.52900 0.57030 0.76780 -0.19000
C 	C 	0.53470 0.64470 0.13190 -0.03600
C 	C 	0.48670 0.66440 0.22600 -0.02900
C 	C 	0.48660 0.70770 0.42000 -0.06800
C 	C 	0.53550 0.72820 0.52320 0.02300
C 	C 	0.58530 0.70410 0.41600 -0.07000
C 	C 	0.58430 0.66530 0.23500 -0.01900
C 	C 	0.53180 0.60340 0.92670 0.08100
H 	H 	0.45350 0.64980 0.16500 0.03700
H 	H 	0.45330 0.72250 0.47800 0.04900
H 	H 	0.61920 0.71690 0.47800 0.05000
H 	H 	0.61750 0.65080 0.17200 0.03100
N 	N 	0.97100 0.92970 0.26780 -0.17400
C 	C 	0.96530 0.85530 0.63190 0.02600
C 	C 	0.01330 0.83560 0.72600 -0.09100
C 	C 	0.01340 0.79230 0.92000 -0.04000
C 	C 	0.96450 0.77180 0.02320 -0.00600
C 	C 	0.91470 0.79590 0.91600 -0.01800
C 	C 	0.91570 0.83470 0.73500 -0.06800
C 	C 	0.96820 0.89660 0.42670 0.06800
H 	H 	0.04650 0.85020 0.66500 0.05700
H 	H 	0.04670 0.77750 0.97800 0.04100
H 	H 	0.88080 0.78310 0.97800 0.03500
H 	H 	0.88250 0.84920 0.67200 0.05100
N 	N 	0.47100 0.42970 0.76780 -0.19000
C 	C 	0.46530 0.35530 0.13190 -0.03500
C 	C 	0.51330 0.33560 0.22600 -0.02900
C 	C 	0.51340 0.29230 0.42000 -0.06700
C 	C 	0.46450 0.27180 0.52320 0.02200
C 	C 	0.41470 0.29590 0.41600 -0.06900
C 	C 	0.41570 0.33470 0.23500 -0.02000
C 	C 	0.46820 0.39660 0.92670 0.08100
H 	H 	0.54650 0.35020 0.16500 0.03700
H 	H 	0.54670 0.27750 0.47800 0.04900
H 	H 	0.38080 0.28310 0.47800 0.04900
H 	H 	0.38250 0.34920 0.17200 0.03200
Ag	Ag	0.00000 0.50000 0.25000 0.53800
Ag	Ag	0.50000 0.00000 0.75000 0.54100
Ag	Ag	0.50000 0.50000 0.50000 0.55300
Ag	Ag	-0.00000 0.00000 -0.00000 0.52800
