data_crystal

_cell_length_a 8.11800
_cell_length_b 11.56800
_cell_length_c 14.24400
_cell_angle_alpha 94.64000
_cell_angle_beta  97.44000
_cell_angle_gamma 103.00000

_symmetry_space_group_name_	'P 1'
_symmetry_space_group_name_H-M	'P 1'

loop_
_symmetry_equiv_pos_as_xyz
  x,y,z

loop_
_atom_site_label
_atom_site_type_symbol
_atom_site_fract_x
_atom_site_fract_y
_atom_site_fract_z
_atom_site_charge
Li	Li	0.46100 0.92100 0.41400 0.54700
Li	Li	0.84200 0.41300 0.22800 0.54300
Li	Li	0.93100 0.23900 0.10600 0.54600
Li	Li	0.53900 0.07900 0.58600 0.55000
Li	Li	0.15800 0.58700 0.77200 0.54400
Li	Li	0.06900 0.76100 0.89400 0.54600
Co	Co	0.88690 0.83290 0.20570 1.13700
Co	Co	0.11310 0.16710 0.79430 1.13600
H 	H 	0.66490 0.11220 0.19340 -0.05500
H 	H 	0.36900 0.99230 0.19490 0.05200
H 	H 	0.25740 0.98290 0.09630 0.05600
H 	H 	0.43100 0.94670 0.10340 0.04500
H 	H 	0.42970 0.20670 0.01150 0.09800
H 	H 	0.25850 0.14540 0.04310 0.10800
H 	H 	0.37370 0.26050 0.10200 0.11100
H 	H 	0.36100 0.11320 0.33610 -0.05000
H 	H 	0.58680 0.42500 0.48180 0.12100
H 	H 	0.53350 0.32050 0.54180 0.12400
H 	H 	0.68900 0.32680 0.48790 0.12600
H 	H 	0.41950 0.32370 0.27130 0.13300
H 	H 	0.26510 0.31600 0.32630 0.13300
H 	H 	0.42300 0.42330 0.35180 0.12500
H 	H 	0.13540 0.42220 0.04250 -0.04000
H 	H 	0.36570 0.68180 0.22930 0.13300
H 	H 	0.17240 0.63310 0.23260 0.13700
H 	H 	0.30290 0.56090 0.26850 0.13100
H 	H 	0.43020 0.57090 0.04830 0.12800
H 	H 	0.29360 0.64270 0.02320 0.13400
H 	H 	0.43580 0.68860 0.11050 0.12200
H 	H 	0.33510 0.88780 0.80660 -0.06000
H 	H 	0.63100 0.00770 0.80510 0.14900
H 	H 	0.74260 0.01710 0.90370 0.15300
H 	H 	0.56900 0.05330 0.89660 0.13900
H 	H 	0.57030 0.79330 0.98850 0.10900
H 	H 	0.74150 0.85460 0.95690 0.11200
H 	H 	0.62630 0.73950 0.89800 0.12300
H 	H 	0.63900 0.88680 0.66390 -0.06600
H 	H 	0.41320 0.57500 0.51820 0.11900
H 	H 	0.46650 0.67950 0.45820 0.12200
H 	H 	0.31100 0.67320 0.51210 0.12300
H 	H 	0.58050 0.67630 0.72870 0.13000
H 	H 	0.73490 0.68400 0.67370 0.12900
H 	H 	0.57700 0.57670 0.64820 0.12400
H 	H 	0.86460 0.57780 0.95750 -0.04100
H 	H 	0.63430 0.31820 0.77070 0.13300
H 	H 	0.82760 0.36690 0.76740 0.13600
H 	H 	0.69710 0.43910 0.73150 0.13000
H 	H 	0.56980 0.42910 0.95170 0.12600
H 	H 	0.70640 0.35730 0.97680 0.13200
H 	H 	0.56420 0.31140 0.88950 0.11900
C 	C 	0.93300 0.99900 0.18460 -0.24700
C 	C 	0.98600 0.80000 0.09900 -0.26100
C 	C 	0.81400 0.66500 0.21100 -0.24200
C 	C 	0.73800 0.86300 0.29320 -0.24400
C 	C 	0.10100 0.85700 0.29800 -0.19700
C 	C 	0.61400 0.16400 0.15700 0.23400
C 	C 	0.37100 0.00000 0.12900 -0.14000
C 	C 	0.37300 0.18800 0.06500 -0.30500
C 	C 	0.43500 0.15500 0.39200 0.24200
C 	C 	0.57900 0.34200 0.48600 -0.36900
C 	C 	0.38600 0.34000 0.33200 -0.37700
C 	C 	0.14400 0.45800 0.10600 0.17600
C 	C 	0.27600 0.61200 0.22300 -0.37900
C 	C 	0.36300 0.62000 0.07400 -0.37400
C 	C 	0.06700 0.00100 0.81540 -0.20600
C 	C 	0.01400 0.20000 0.90100 -0.26500
C 	C 	0.18600 0.33500 0.78900 -0.24200
C 	C 	0.26200 0.13700 0.70680 -0.23900
C 	C 	0.89900 0.14300 0.70200 -0.19300
C 	C 	0.38600 0.83600 0.84300 0.21700
C 	C 	0.62900 0.00000 0.87100 -0.39900
C 	C 	0.62700 0.81200 0.93500 -0.34400
C 	C 	0.56500 0.84500 0.60800 0.24800
C 	C 	0.42100 0.65800 0.51400 -0.36500
C 	C 	0.61400 0.66000 0.66800 -0.37300
C 	C 	0.85600 0.54200 0.89400 0.17600
C 	C 	0.72400 0.38800 0.77700 -0.37800
C 	C 	0.63700 0.38000 0.92600 -0.37000
N 	N 	0.96600 0.09800 0.16950 -0.12500
N 	N 	0.03900 0.77800 0.02940 -0.13100
N 	N 	0.77200 0.56400 0.21340 -0.14200
N 	N 	0.64300 0.88100 0.34350 -0.13600
N 	N 	0.22800 0.86800 0.34630 -0.15100
N 	N 	0.45600 0.12100 0.11900 -0.10200
N 	N 	0.46600 0.27300 0.40260 -0.07800
N 	N 	0.25600 0.55300 0.13330 -0.05200
N 	N 	0.03400 0.90200 0.83050 -0.15700
N 	N 	0.96100 0.22200 0.97060 -0.13000
N 	N 	0.22800 0.43600 0.78660 -0.14200
N 	N 	0.35700 0.11900 0.65650 -0.13100
N 	N 	0.77200 0.13200 0.65370 -0.14600
N 	N 	0.54400 0.87900 0.88100 -0.07000
N 	N 	0.53400 0.72700 0.59740 -0.08200
N 	N 	0.74400 0.44700 0.86670 -0.05300
O 	O 	0.70700 0.26240 0.15270 -0.42900
O 	O 	0.49400 0.09720 0.44850 -0.41400
O 	O 	0.04000 0.40600 0.16150 -0.40800
O 	O 	0.29300 0.73760 0.84730 -0.42600
O 	O 	0.50600 0.90280 0.55150 -0.43300
O 	O 	0.96000 0.59400 0.83850 -0.40800
