data_crystal

_cell_length_a 10.99310
_cell_length_b 10.99310
_cell_length_c 18.08500
_cell_angle_alpha 90.00000
_cell_angle_beta  90.00000
_cell_angle_gamma 90.00000

_symmetry_space_group_name_	'P 1'
_symmetry_space_group_name_H-M	'P 1'

loop_
_symmetry_equiv_pos_as_xyz
  x,y,z

loop_
_atom_site_label
_atom_site_type_symbol
_atom_site_fract_x
_atom_site_fract_y
_atom_site_fract_z
_atom_site_charge
Cu	Cu	0.38354 0.10803 0.85612 0.85600
Cu	Cu	0.59223 0.89933 0.86556 0.85400
Cu	Cu	0.61646 0.89197 0.35612 0.85600
Cu	Cu	0.40777 0.10067 0.36556 0.85400
Cu	Cu	0.89197 0.38354 0.60612 0.85600
Cu	Cu	0.10067 0.59223 0.61556 0.85400
Cu	Cu	0.10803 0.61646 0.10612 0.85700
Cu	Cu	0.89933 0.40777 0.11556 0.85500
H 	H 	0.16590 0.02990 0.70930 0.26700
H 	H 	0.08400 0.93340 0.74930 0.28400
H 	H 	0.14170 0.04060 0.79450 0.26200
H 	H 	0.42270 0.58150 0.78290 0.33000
H 	H 	0.51510 0.64220 0.72810 0.31900
H 	H 	0.53440 0.65430 0.81370 0.31500
H 	H 	0.48070 0.33210 0.68620 0.27800
H 	H 	0.41330 0.31670 0.76200 0.25600
H 	H 	0.52610 0.40350 0.75600 0.27500
H 	H 	0.86450 0.99270 0.80920 0.27200
H 	H 	0.81320 0.93490 0.73640 0.26000
H 	H 	0.89160 0.05380 0.73260 0.29100
H 	H 	0.83410 0.97010 0.20930 0.26700
H 	H 	0.91600 0.06660 0.24930 0.28400
H 	H 	0.85830 0.95940 0.29450 0.26200
H 	H 	0.57730 0.41850 0.28290 0.33000
H 	H 	0.48490 0.35780 0.22810 0.31900
H 	H 	0.46560 0.34570 0.31370 0.31500
H 	H 	0.51930 0.66790 0.18620 0.27800
H 	H 	0.58670 0.68330 0.26200 0.25600
H 	H 	0.47390 0.59650 0.25600 0.27500
H 	H 	0.13550 0.00730 0.30920 0.27200
H 	H 	0.18680 0.06510 0.23640 0.26000
H 	H 	0.10840 0.94620 0.23260 0.29100
H 	H 	0.97010 0.16590 0.45930 0.26600
H 	H 	0.06660 0.08400 0.49930 0.28300
H 	H 	0.95940 0.14170 0.54450 0.26000
H 	H 	0.41850 0.42270 0.53290 0.33000
H 	H 	0.35780 0.51510 0.47810 0.31900
H 	H 	0.34570 0.53440 0.56370 0.31500
H 	H 	0.66790 0.48070 0.43620 0.27800
H 	H 	0.68330 0.41330 0.51200 0.25600
H 	H 	0.59650 0.52610 0.50600 0.27500
H 	H 	0.00730 0.86450 0.55920 0.27400
H 	H 	0.06510 0.81320 0.48640 0.26100
H 	H 	0.94620 0.89160 0.48260 0.29300
H 	H 	0.02990 0.83410 0.95930 0.26700
H 	H 	0.93340 0.91600 0.99930 0.28300
H 	H 	0.04060 0.85830 0.04450 0.26000
H 	H 	0.58150 0.57730 0.03290 0.33100
H 	H 	0.64220 0.48490 0.97810 0.32000
H 	H 	0.65430 0.46560 0.06370 0.31600
H 	H 	0.33210 0.51930 0.93620 0.27300
H 	H 	0.31670 0.58670 0.01200 0.25000
H 	H 	0.40350 0.47390 0.00600 0.26800
H 	H 	0.99270 0.13550 0.05920 0.27600
H 	H 	0.93490 0.18680 0.98640 0.26300
H 	H 	0.05380 0.10840 0.98260 0.29600
C 	C 	0.15410 0.98490 0.75420 -0.88000
C 	C 	0.47480 0.65040 0.77500 -1.06700
C 	C 	0.26730 0.90630 0.76980 0.38900
C 	C 	0.40450 0.75800 0.77520 0.43500
C 	C 	0.28680 0.79150 0.74550 -0.43200
C 	C 	0.21590 0.71540 0.69620 0.42400
C 	C 	0.49100 0.32860 0.73890 -0.89100
C 	C 	0.83230 0.00990 0.76100 -0.88300
C 	C 	0.57200 0.22690 0.75790 0.36600
C 	C 	0.71590 0.08720 0.76860 0.37600
C 	C 	0.69320 0.19510 0.73390 -0.40100
C 	C 	0.76660 0.26560 0.68260 0.43200
C 	C 	0.84590 0.01510 0.25420 -0.88100
C 	C 	0.52520 0.34960 0.27500 -1.06600
C 	C 	0.73270 0.09370 0.26980 0.39000
C 	C 	0.59550 0.24200 0.27520 0.43500
C 	C 	0.71320 0.20850 0.24550 -0.43200
C 	C 	0.78410 0.28460 0.19620 0.42300
C 	C 	0.50900 0.67140 0.23890 -0.89100
C 	C 	0.16770 0.99010 0.26100 -0.88300
C 	C 	0.42800 0.77310 0.25790 0.36600
C 	C 	0.28410 0.91280 0.26860 0.37600
C 	C 	0.30680 0.80490 0.23390 -0.40100
C 	C 	0.23340 0.73440 0.18260 0.43100
C 	C 	0.01510 0.15410 0.50420 -0.87700
C 	C 	0.34960 0.47480 0.52500 -1.06600
C 	C 	0.09370 0.26730 0.51980 0.38900
C 	C 	0.24200 0.40450 0.52520 0.43400
C 	C 	0.20850 0.28680 0.49550 -0.43200
C 	C 	0.28460 0.21590 0.44620 0.42300
C 	C 	0.67140 0.49100 0.48890 -0.89100
C 	C 	0.99010 0.83230 0.51100 -0.88700
C 	C 	0.77310 0.57200 0.50790 0.36600
C 	C 	0.91280 0.71590 0.51860 0.37700
C 	C 	0.80490 0.69320 0.48390 -0.40100
C 	C 	0.73440 0.76660 0.43260 0.43200
C 	C 	0.98490 0.84590 0.00420 -0.87900
C 	C 	0.65040 0.52520 0.02500 -1.06900
C 	C 	0.90630 0.73270 0.01980 0.38900
C 	C 	0.75800 0.59550 0.02520 0.43500
C 	C 	0.79150 0.71320 0.99550 -0.43300
C 	C 	0.71540 0.78410 0.94620 0.42400
C 	C 	0.32860 0.50900 0.98890 -0.87300
C 	C 	0.00990 0.16770 0.01100 -0.89300
C 	C 	0.22690 0.42800 0.00790 0.35800
C 	C 	0.08720 0.28410 0.01860 0.37600
C 	C 	0.19510 0.30680 0.98390 -0.39600
C 	C 	0.26560 0.23340 0.93260 0.43000
N 	N 	0.35450 0.95210 0.80860 -0.29100
N 	N 	0.43720 0.85920 0.81580 -0.28100
N 	N 	0.53520 0.13540 0.80150 -0.27700
N 	N 	0.62500 0.04640 0.80690 -0.28600
N 	N 	0.64550 0.04790 0.30860 -0.29100
N 	N 	0.56280 0.14080 0.31580 -0.28100
N 	N 	0.46480 0.86460 0.30150 -0.27700
N 	N 	0.37500 0.95360 0.30690 -0.28600
N 	N 	0.04790 0.35450 0.55860 -0.29100
N 	N 	0.14080 0.43720 0.56580 -0.28100
N 	N 	0.86460 0.53520 0.55150 -0.27700
N 	N 	0.95360 0.62500 0.55690 -0.28700
N 	N 	0.95210 0.64550 0.05860 -0.29100
N 	N 	0.85920 0.56280 0.06580 -0.28100
N 	N 	0.13540 0.46480 0.05150 -0.27600
N 	N 	0.04640 0.37500 0.05690 -0.28700
O 	O 	0.11480 0.75310 0.66810 -0.45300
O 	O 	0.25020 0.61060 0.67810 -0.46700
O 	O 	0.73270 0.36370 0.65710 -0.47100
O 	O 	0.87180 0.22640 0.66320 -0.46000
O 	O 	0.88520 0.24690 0.16810 -0.45300
O 	O 	0.74980 0.38940 0.17810 -0.46700
O 	O 	0.26730 0.63630 0.15710 -0.47100
O 	O 	0.12820 0.77360 0.16320 -0.46000
O 	O 	0.24690 0.11480 0.41810 -0.45300
O 	O 	0.38940 0.25020 0.42810 -0.46700
O 	O 	0.63630 0.73270 0.40710 -0.47100
O 	O 	0.77360 0.87180 0.41320 -0.46000
O 	O 	0.75310 0.88520 0.91810 -0.45300
O 	O 	0.61060 0.74980 0.92810 -0.46700
O 	O 	0.36370 0.26730 0.90710 -0.47100
O 	O 	0.22640 0.12820 0.91320 -0.45900
