data_crystal

_cell_length_a 13.27930
_cell_length_b 15.44140
_cell_length_c 18.46300
_cell_angle_alpha 105.48300
_cell_angle_beta  90.00000
_cell_angle_gamma 115.46700

_symmetry_space_group_name_	'P 1'
_symmetry_space_group_name_H-M	'P 1'

loop_
_symmetry_equiv_pos_as_xyz
  x,y,z

loop_
_atom_site_label
_atom_site_type_symbol
_atom_site_fract_x
_atom_site_fract_y
_atom_site_fract_z
_atom_site_charge
Co	Co	0.24305 0.56610 0.96430 1.15600
Co	Co	0.67695 0.43390 0.53570 1.15600
Co	Co	0.61416 -0.00000 0.75000 1.14200
H 	H 	0.74520 0.25320 0.64110 0.04700
H 	H 	0.01850 0.51660 0.71950 0.04300
H 	H 	0.95360 0.30280 0.82010 0.04200
H 	H 	0.03240 0.61340 0.02500 0.02100
H 	H 	0.02900 0.77260 0.03500 0.04100
H 	H 	0.32910 0.79560 0.99280 -0.00900
H 	H 	0.14030 0.96240 0.08850 0.07900
H 	H 	0.34890 0.18560 0.00980 0.08100
H 	H 	0.33200 0.91060 0.93100 0.09500
H 	H 	0.48750 0.98020 0.88770 0.05900
H 	H 	0.56020 0.20360 0.80610 0.02400
H 	H 	0.43350 0.21420 0.89850 0.03800
H 	H 	0.13260 0.07840 0.17910 0.11100
H 	H 	0.10930 0.33800 0.22780 0.14200
H 	H 	0.24680 0.25640 0.04470 0.12200
H 	H 	0.22760 0.50520 0.21930 0.04500
H 	H 	0.26010 0.62280 0.14630 0.01900
H 	H 	0.19970 0.36440 0.00280 -0.01000
H 	H 	0.95820 0.02960 0.24750 -0.02300
H 	H 	0.94410 0.06260 0.38690 0.03200
H 	H 	0.13620 0.31640 0.35560 0.00800
H 	H 	0.49200 0.74680 0.85890 0.04700
H 	H 	0.50190 0.48340 0.78050 0.03900
H 	H 	0.65080 0.69720 0.67990 0.04200
H 	H 	0.41900 0.38660 0.47500 0.02100
H 	H 	0.25640 0.22740 0.46500 0.03400
H 	H 	0.53350 0.20440 0.50720 -0.01100
H 	H 	0.17790 0.03760 0.41150 0.13700
H 	H 	0.16330 0.81440 0.49020 0.13800
H 	H 	0.42140 0.08940 0.56900 0.16300
H 	H 	0.50730 0.01980 0.61230 -0.05500
H 	H 	0.35660 0.79640 0.69390 0.03000
H 	H 	0.21930 0.78580 0.60150 0.03200
H 	H 	0.05420 0.92160 0.32090 0.11200
H 	H 	0.77130 0.66200 0.27220 0.13400
H 	H 	0.99040 0.74360 0.45530 0.10100
H 	H 	0.72240 0.49480 0.28070 0.04600
H 	H 	0.63730 0.37720 0.35370 0.01800
H 	H 	0.83530 0.63560 0.49720 -0.00900
H 	H 	0.92860 0.97040 0.25250 0.06500
H 	H 	0.88150 0.93740 0.11310 0.04400
H 	H 	0.81980 0.68360 0.14440 0.00800
C 	C 	0.76367 0.15914 0.73640 0.32500
C 	C 	0.83854 0.26128 0.73120 -0.11100
C 	C 	0.80976 0.29532 0.67560 0.04600
C 	C 	0.87564 0.39048 0.67100 -0.11000
C 	C 	0.83727 0.42794 0.61490 0.33200
C 	C 	0.97284 0.45268 0.72270 0.04300
C 	C 	0.00191 0.42062 0.77850 -0.10900
C 	C 	0.93429 0.32478 0.78240 0.04600
C 	C 	0.10316 0.48872 0.83590 0.33100
C 	C 	0.09226 0.67052 0.01940 0.01200
C 	C 	0.08968 0.75816 0.02520 0.01100
C 	C 	0.25439 0.76938 0.00180 0.11100
C 	C 	0.23356 0.92312 0.01280 0.12900
C 	C 	0.19416 0.98592 0.05720 -0.08500
C 	C 	0.23508 0.08456 0.05520 -0.01000
C 	C 	0.31767 0.11874 0.00950 -0.11400
C 	C 	0.35355 0.05370 0.96360 0.09300
C 	C 	0.31015 0.95490 0.96350 -0.13100
C 	C 	0.48972 0.03724 0.87830 0.01600
C 	C 	0.52902 0.15904 0.83440 0.01000
C 	C 	0.45926 0.16552 0.88500 -0.00600
C 	C 	0.19412 0.15404 0.10270 0.13700
C 	C 	0.14438 0.13636 0.16690 -0.23500
C 	C 	0.11256 0.20392 0.21220 0.21600
C 	C 	0.13026 0.29212 0.19650 -0.26700
C 	C 	0.18008 0.30936 0.13280 0.21500
C 	C 	0.21231 0.24242 0.08690 -0.23200
C 	C 	0.22544 0.49108 0.16700 0.01100
C 	C 	0.24335 0.55550 0.12610 0.00600
C 	C 	0.21016 0.41452 0.04750 0.11200
C 	C 	0.99320 0.09040 0.28570 0.02200
C 	C 	0.98520 0.11040 0.36320 -0.01300
C 	C 	0.09080 0.24780 0.34570 0.12500
C 	C 	0.60453 0.84086 0.76360 0.32000
C 	C 	0.57726 0.73872 0.76880 -0.10800
C 	C 	0.51444 0.70468 0.82440 0.04400
C 	C 	0.48516 0.60952 0.82900 -0.11100
C 	C 	0.40933 0.57206 0.88510 0.33300
C 	C 	0.52016 0.54732 0.77730 0.04700
C 	C 	0.58129 0.57938 0.72150 -0.11200
C 	C 	0.60951 0.67522 0.71760 0.04600
C 	C 	0.61444 0.51128 0.66410 0.33300
C 	C 	0.42174 0.32948 0.48060 0.00700
C 	C 	0.33152 0.24184 0.47480 0.01700
C 	C 	0.48501 0.23062 0.49820 0.11200
C 	C 	0.31044 0.07688 0.48720 0.26000
C 	C 	0.20824 0.01408 0.44280 -0.32300
C 	C 	0.15052 0.91544 0.44480 0.19600
C 	C 	0.19893 0.88126 0.49050 -0.28000
C 	C 	0.29985 0.94630 0.53640 0.29800
C 	C 	0.35525 0.04510 0.53650 -0.36900
C 	C 	0.45248 0.96276 0.62170 0.18600
C 	C 	0.36998 0.84096 0.66560 0.00600
C 	C 	0.29374 0.83448 0.61500 0.01100
C 	C 	0.04008 0.84596 0.39730 0.06100
C 	C 	0.00802 0.86364 0.33310 -0.17900
C 	C 	0.90864 0.79608 0.28780 0.19300
C 	C 	0.83814 0.70788 0.30350 -0.24200
C 	C 	0.87072 0.69064 0.36720 0.19000
C 	C 	0.96989 0.75758 0.41310 -0.18200
C 	C 	0.73436 0.50892 0.33300 0.00900
C 	C 	0.68785 0.44450 0.37390 0.00700
C 	C 	0.79564 0.58548 0.45250 0.11000
C 	C 	0.90280 0.90960 0.21430 -0.00700
C 	C 	0.87480 0.88960 0.13680 0.02000
C 	C 	0.84300 0.75220 0.15430 0.12500
N 	N 	0.19578 0.67756 0.00400 -0.24800
N 	N 	0.19374 0.82148 0.01394 -0.14200
N 	N 	0.43312 0.08624 0.91329 -0.12600
N 	N 	0.54842 0.07824 0.82965 -0.22400
N 	N 	0.20330 0.40080 0.11584 -0.15800
N 	N 	0.23359 0.50778 0.05089 -0.25500
N 	N 	0.06812 0.18604 0.27978 -0.16600
N 	N 	0.04540 0.20760 0.39810 -0.12800
N 	N 	0.51822 0.32244 0.49600 -0.24800
N 	N 	0.37226 0.17852 0.48606 -0.16700
N 	N 	0.34688 0.91376 0.58671 -0.18000
N 	N 	0.47018 0.92176 0.67035 -0.23700
N 	N 	0.80250 0.59920 0.38416 -0.15400
N 	N 	0.72581 0.49222 0.44911 -0.25600
N 	N 	0.88208 0.81396 0.22022 -0.15600
N 	N 	0.83780 0.79240 0.10190 -0.13200
O 	O 	0.11329 0.45898 0.89296 -0.43500
O 	O 	0.17250 0.56800 0.82789 -0.31600
O 	O 	0.78898 0.12296 0.78214 -0.38400
O 	O 	0.67153 0.10966 0.69406 -0.41100
O 	O 	0.75427 0.36314 0.56519 -0.43400
O 	O 	0.88029 0.51818 0.62080 -0.32100
O 	O 	0.65431 0.54102 0.60704 -0.43500
O 	O 	0.60450 0.43200 0.67211 -0.31800
O 	O 	0.66602 0.87704 0.71786 -0.36200
O 	O 	0.56187 0.89034 0.80594 -0.38700
O 	O 	0.39113 0.63686 0.93481 -0.43500
O 	O 	0.36211 0.48182 0.87920 -0.32100
Co	Co	0.75695 0.43390 0.03570 1.15500
Co	Co	0.32305 0.56610 0.46430 1.15500
Co	Co	0.38584 -0.00000 0.25000 1.14100
H 	H 	0.25480 0.74680 0.35890 0.04600
H 	H 	0.98150 0.48340 0.28050 0.03300
H 	H 	0.04640 0.69720 0.17990 0.04000
H 	H 	0.96760 0.38660 0.97500 0.02100
H 	H 	0.97100 0.22740 0.96500 0.03300
H 	H 	0.67090 0.20440 0.00720 -0.01000
H 	H 	0.85970 0.03760 0.91150 0.13700
H 	H 	0.65110 0.81440 0.99020 0.13800
H 	H 	0.66800 0.08940 0.06900 0.16300
H 	H 	0.51250 0.01980 0.11230 -0.05400
H 	H 	0.43980 0.79640 0.19390 0.03000
H 	H 	0.56650 0.78580 0.10150 0.03200
H 	H 	0.86740 0.92160 0.82090 0.11200
H 	H 	0.89070 0.66200 0.77220 0.13400
H 	H 	0.75320 0.74360 0.95530 0.10100
H 	H 	0.77240 0.49480 0.78070 0.04600
H 	H 	0.73990 0.37720 0.85370 0.01800
H 	H 	0.80030 0.63560 0.99720 -0.00900
H 	H 	0.04180 0.97040 0.75250 0.06400
H 	H 	0.05590 0.93740 0.61310 0.04400
H 	H 	0.86380 0.68360 0.64440 0.00800
H 	H 	0.50800 0.25320 0.14110 0.04500
H 	H 	0.49810 0.51660 0.21950 0.04000
H 	H 	0.34920 0.30280 0.32010 0.04000
H 	H 	0.58100 0.61340 0.52500 0.02000
H 	H 	0.74360 0.77260 0.53500 0.04100
H 	H 	0.46650 0.79560 0.49280 -0.00700
H 	H 	0.82210 0.96240 0.58850 0.07700
H 	H 	0.83670 0.18560 0.50980 0.08000
H 	H 	0.57860 0.91060 0.43100 0.09400
H 	H 	0.49270 0.98020 0.38770 0.06000
H 	H 	0.64340 0.20360 0.30610 0.02400
H 	H 	0.78070 0.21420 0.39850 0.03800
H 	H 	0.94580 0.07840 0.67910 0.11100
H 	H 	0.22870 0.33800 0.72780 0.14200
H 	H 	0.00960 0.25640 0.54470 0.12100
H 	H 	0.27760 0.50520 0.71930 0.04500
H 	H 	0.36270 0.62280 0.64630 0.01800
H 	H 	0.16470 0.36440 0.50280 -0.01000
H 	H 	0.07140 0.02960 0.74750 -0.02200
H 	H 	0.11850 0.06260 0.88690 0.03200
H 	H 	0.18020 0.31640 0.85560 0.00800
C 	C 	0.23633 0.84086 0.26360 0.32200
C 	C 	0.16146 0.73872 0.26880 -0.11300
C 	C 	0.19024 0.70468 0.32440 0.05000
C 	C 	0.12436 0.60952 0.32900 -0.11700
C 	C 	0.16273 0.57206 0.38510 0.33500
C 	C 	0.02716 0.54732 0.27730 0.06100
C 	C 	0.99809 0.57938 0.22150 -0.12400
C 	C 	0.06571 0.67522 0.21760 0.05600
C 	C 	0.89684 0.51128 0.16410 0.33600
C 	C 	0.90774 0.32948 0.98060 0.00700
C 	C 	0.91032 0.24184 0.97480 0.01700
C 	C 	0.74561 0.23062 0.99820 0.11100
C 	C 	0.76644 0.07688 0.98720 0.26000
C 	C 	0.80584 0.01408 0.94280 -0.32400
C 	C 	0.76492 0.91544 0.94480 0.19600
C 	C 	0.68233 0.88126 0.99050 -0.28100
C 	C 	0.64645 0.94630 0.03640 0.29800
C 	C 	0.68985 0.04510 0.03650 -0.36800
C 	C 	0.51028 0.96276 0.12170 0.18500
C 	C 	0.47098 0.84096 0.16560 0.00600
C 	C 	0.54074 0.83448 0.11500 0.01200
C 	C 	0.80588 0.84596 0.89730 0.05900
C 	C 	0.85562 0.86364 0.83310 -0.18100
C 	C 	0.88744 0.79608 0.78780 0.19500
C 	C 	0.86974 0.70788 0.80350 -0.24200
C 	C 	0.81992 0.69064 0.86720 0.19000
C 	C 	0.78769 0.75758 0.91310 -0.17900
C 	C 	0.77456 0.50892 0.83300 0.00900
C 	C 	0.75665 0.44450 0.87390 0.00700
C 	C 	0.78984 0.58548 0.95250 0.11000
C 	C 	0.00680 0.90960 0.71430 -0.00600
C 	C 	0.01480 0.88960 0.63680 0.02100
C 	C 	0.90920 0.75220 0.65430 0.12600
C 	C 	0.39547 0.15914 0.23640 0.32500
C 	C 	0.42274 0.26128 0.23120 -0.11300
C 	C 	0.48556 0.29532 0.17560 0.04800
C 	C 	0.51484 0.39048 0.17100 -0.11200
C 	C 	0.59067 0.42794 0.11490 0.33300
C 	C 	0.47984 0.45268 0.22270 0.04900
C 	C 	0.41871 0.42062 0.27850 -0.11300
C 	C 	0.39049 0.32478 0.28240 0.04900
C 	C 	0.38556 0.48872 0.33590 0.33300
C 	C 	0.57826 0.67052 0.51940 0.01200
C 	C 	0.66848 0.75816 0.52520 0.01100
C 	C 	0.51499 0.76938 0.50180 0.10800
C 	C 	0.68956 0.92312 0.51280 0.12500
C 	C 	0.79176 0.98592 0.55720 -0.08200
C 	C 	0.84948 0.08456 0.55520 -0.01300
C 	C 	0.80107 0.11874 0.50950 -0.11500
C 	C 	0.70015 0.05370 0.46360 0.09200
C 	C 	0.64475 0.95490 0.46350 -0.12700
C 	C 	0.54752 0.03724 0.37830 0.01600
C 	C 	0.63002 0.15904 0.33440 0.01000
C 	C 	0.70626 0.16552 0.38500 -0.00600
C 	C 	0.95992 0.15404 0.60270 0.13600
C 	C 	0.99198 0.13636 0.66690 -0.23700
C 	C 	0.09136 0.20392 0.71220 0.21700
C 	C 	0.16186 0.29212 0.69650 -0.26800
C 	C 	0.12928 0.30936 0.63280 0.21400
C 	C 	0.03011 0.24242 0.58690 -0.23000
C 	C 	0.26564 0.49108 0.66700 0.01100
C 	C 	0.31215 0.55550 0.62610 0.00600
C 	C 	0.20436 0.41452 0.54750 0.11100
C 	C 	0.09720 0.09040 0.78570 0.02400
C 	C 	0.12520 0.11040 0.86320 -0.01100
C 	C 	0.15700 0.24780 0.84570 0.12400
N 	N 	0.80422 0.32244 0.99600 -0.24800
N 	N 	0.80626 0.17852 0.98606 -0.16700
N 	N 	0.56688 0.91376 0.08671 -0.18000
N 	N 	0.45158 0.92176 0.17035 -0.23700
N 	N 	0.79670 0.59920 0.88416 -0.15300
N 	N 	0.76641 0.49222 0.94911 -0.25600
N 	N 	0.93188 0.81396 0.72022 -0.15600
N 	N 	0.95460 0.79240 0.60190 -0.13200
N 	N 	0.48178 0.67756 0.50400 -0.24800
N 	N 	0.62774 0.82148 0.51394 -0.14100
N 	N 	0.65312 0.08624 0.41329 -0.12600
N 	N 	0.52982 0.07824 0.32965 -0.22400
N 	N 	0.19750 0.40080 0.61584 -0.15800
N 	N 	0.27419 0.50778 0.55089 -0.25600
N 	N 	0.11792 0.18604 0.77978 -0.16700
N 	N 	0.16220 0.20760 0.89810 -0.13000
O 	O 	0.88671 0.54102 0.10704 -0.43700
O 	O 	0.82750 0.43200 0.17211 -0.31900
O 	O 	0.21102 0.87704 0.21786 -0.36200
O 	O 	0.32847 0.89034 0.30594 -0.38800
O 	O 	0.24573 0.63686 0.43481 -0.43500
O 	O 	0.11971 0.48182 0.37920 -0.32100
O 	O 	0.34569 0.45898 0.39296 -0.43500
O 	O 	0.39550 0.56800 0.32789 -0.31600
O 	O 	0.33398 0.12296 0.28214 -0.38400
O 	O 	0.43813 0.10966 0.19406 -0.41100
O 	O 	0.60887 0.36314 0.06519 -0.43400
O 	O 	0.63789 0.51818 0.12080 -0.32000
