data_crystal

_cell_length_a 17.16070
_cell_length_b 17.16070
_cell_length_c 17.16070
_cell_angle_alpha 90.00000
_cell_angle_beta  90.00000
_cell_angle_gamma 90.00000

_symmetry_space_group_name_	'P 1'
_symmetry_space_group_name_H-M	'P 1'

loop_
_symmetry_equiv_pos_as_xyz
  x,y,z

loop_
_atom_site_label
_atom_site_type_symbol
_atom_site_fract_x
_atom_site_fract_y
_atom_site_fract_z
_atom_site_charge
H 	H 	0.36670 0.00550 0.56870 0.17100
H 	H 	0.38700 0.97700 0.59700 0.00100
H 	H 	0.63330 0.99450 0.56870 0.17100
H 	H 	0.61300 0.02300 0.59700 0.00100
H 	H 	0.63330 0.00550 0.43130 0.17100
H 	H 	0.61300 0.97700 0.40300 0.00200
H 	H 	0.36670 0.99450 0.43130 0.17200
H 	H 	0.38700 0.02300 0.40300 0.00200
H 	H 	0.56870 0.36670 0.00550 0.17200
H 	H 	0.59700 0.38700 0.97700 0.00200
H 	H 	0.56870 0.63330 0.99450 0.17200
H 	H 	0.59700 0.61300 0.02300 0.00200
H 	H 	0.43130 0.63330 0.00550 0.17200
H 	H 	0.40300 0.61300 0.97700 0.00200
H 	H 	0.43130 0.36670 0.99450 0.17200
H 	H 	0.40300 0.38700 0.02300 0.00200
H 	H 	0.00550 0.56870 0.36670 0.17200
H 	H 	0.97700 0.59700 0.38700 0.00200
H 	H 	0.99450 0.56870 0.63330 0.17200
H 	H 	0.02300 0.59700 0.61300 0.00200
H 	H 	0.00550 0.43130 0.63330 0.17200
H 	H 	0.97700 0.40300 0.61300 0.00200
H 	H 	0.99450 0.43130 0.36670 0.17200
H 	H 	0.02300 0.40300 0.38700 0.00200
H 	H 	0.00550 0.36670 0.56870 0.17200
H 	H 	0.97700 0.38700 0.59700 0.00200
H 	H 	0.99450 0.63330 0.56870 0.17200
H 	H 	0.02300 0.61300 0.59700 0.00200
H 	H 	0.00550 0.63330 0.43130 0.17200
H 	H 	0.97700 0.61300 0.40300 0.00200
H 	H 	0.99450 0.36670 0.43130 0.17200
H 	H 	0.02300 0.38700 0.40300 0.00200
H 	H 	0.36670 0.56870 0.00550 0.17200
H 	H 	0.38700 0.59700 0.97700 0.00200
H 	H 	0.63330 0.56870 0.99450 0.17200
H 	H 	0.61300 0.59700 0.02300 0.00200
H 	H 	0.63330 0.43130 0.00550 0.17200
H 	H 	0.61300 0.40300 0.97700 0.00200
H 	H 	0.36670 0.43130 0.99450 0.17200
H 	H 	0.38700 0.40300 0.02300 0.00200
H 	H 	0.56870 0.00550 0.36670 0.17200
H 	H 	0.59700 0.97700 0.38700 0.00200
H 	H 	0.56870 0.99450 0.63330 0.17200
H 	H 	0.59700 0.02300 0.61300 0.00200
H 	H 	0.43130 0.00550 0.63330 0.17200
H 	H 	0.40300 0.97700 0.61300 0.00200
H 	H 	0.43130 0.99450 0.36670 0.17200
H 	H 	0.40300 0.02300 0.38700 0.00200
Zn	Zn	0.56551 0.43449 0.43449 1.20800
Zn	Zn	0.43449 0.56551 0.43449 1.20800
Zn	Zn	0.43449 0.43449 0.56551 1.20800
Zn	Zn	0.56551 0.56551 0.56551 1.20800
O 	O 	0.54697 0.32469 0.45303 -0.49400
C 	C 	0.44900 0.16780 0.55100 -0.13100
H 	H 	0.41300 0.20500 0.58700 0.06500
C 	C 	0.45090 0.08460 0.54910 0.20000
H 	H 	0.36710 0.07050 0.63290 0.19400
C 	C 	0.39960 0.04110 0.60040 -0.58300
O 	O 	0.45303 0.67531 0.45303 -0.49400
C 	C 	0.55100 0.83220 0.55100 -0.13100
H 	H 	0.58700 0.79500 0.58700 0.06500
C 	C 	0.54910 0.91540 0.54910 0.20000
H 	H 	0.63290 0.92950 0.63290 0.19400
C 	C 	0.60040 0.95890 0.60040 -0.58300
O 	O 	0.45303 0.32469 0.54697 -0.49400
C 	C 	0.55100 0.16780 0.44900 -0.13100
H 	H 	0.58700 0.20500 0.41300 0.06500
C 	C 	0.54910 0.08460 0.45090 0.20000
H 	H 	0.63290 0.07050 0.36710 0.19400
C 	C 	0.60040 0.04110 0.39960 -0.58300
O 	O 	0.54697 0.67531 0.54697 -0.49400
C 	C 	0.44900 0.83220 0.44900 -0.13100
H 	H 	0.41300 0.79500 0.41300 0.06500
C 	C 	0.45090 0.91540 0.45090 0.20000
H 	H 	0.36710 0.92950 0.36710 0.19400
C 	C 	0.39960 0.95890 0.39960 -0.58300
O 	O 	0.45303 0.54697 0.32469 -0.49400
C 	C 	0.55100 0.44900 0.16780 -0.13100
H 	H 	0.58700 0.41300 0.20500 0.06500
C 	C 	0.54910 0.45090 0.08460 0.20000
H 	H 	0.63290 0.36710 0.07050 0.19400
C 	C 	0.60040 0.39960 0.04110 -0.58300
O 	O 	0.45303 0.45303 0.67531 -0.49400
C 	C 	0.55100 0.55100 0.83220 -0.13100
H 	H 	0.58700 0.58700 0.79500 0.06500
C 	C 	0.54910 0.54910 0.91540 0.20000
H 	H 	0.63290 0.63290 0.92950 0.19400
C 	C 	0.60040 0.60040 0.95890 -0.58300
O 	O 	0.54697 0.45303 0.32469 -0.49400
C 	C 	0.44900 0.55100 0.16780 -0.13100
H 	H 	0.41300 0.58700 0.20500 0.06500
C 	C 	0.45090 0.54910 0.08460 0.20000
H 	H 	0.36710 0.63290 0.07050 0.19400
C 	C 	0.39960 0.60040 0.04110 -0.58300
O 	O 	0.54697 0.54697 0.67531 -0.49400
C 	C 	0.44900 0.44900 0.83220 -0.13100
H 	H 	0.41300 0.41300 0.79500 0.06500
C 	C 	0.45090 0.45090 0.91540 0.20000
H 	H 	0.36710 0.36710 0.92950 0.19400
C 	C 	0.39960 0.39960 0.95890 -0.58300
O 	O 	0.32469 0.45303 0.54697 -0.49400
C 	C 	0.16780 0.55100 0.44900 -0.13100
H 	H 	0.20500 0.58700 0.41300 0.06500
C 	C 	0.08460 0.54910 0.45090 0.20000
H 	H 	0.07050 0.63290 0.36710 0.19400
C 	C 	0.04110 0.60040 0.39960 -0.58300
O 	O 	0.67531 0.45303 0.45303 -0.49400
C 	C 	0.83220 0.55100 0.55100 -0.13100
H 	H 	0.79500 0.58700 0.58700 0.06500
C 	C 	0.91540 0.54910 0.54910 0.20000
H 	H 	0.92950 0.63290 0.63290 0.19400
C 	C 	0.95890 0.60040 0.60040 -0.58300
O 	O 	0.32469 0.54697 0.45303 -0.49400
C 	C 	0.16780 0.44900 0.55100 -0.13100
H 	H 	0.20500 0.41300 0.58700 0.06500
C 	C 	0.08460 0.45090 0.54910 0.20000
H 	H 	0.07050 0.36710 0.63290 0.19400
C 	C 	0.04110 0.39960 0.60040 -0.58300
O 	O 	0.67531 0.54697 0.54697 -0.49400
C 	C 	0.83220 0.44900 0.44900 -0.13100
H 	H 	0.79500 0.41300 0.41300 0.06500
C 	C 	0.91540 0.45090 0.45090 0.20000
H 	H 	0.92950 0.36710 0.36710 0.19400
C 	C 	0.95890 0.39960 0.39960 -0.58300
O 	O 	0.50000 0.50000 0.50000 -0.96300
C 	C 	0.50000 0.28850 0.50000 0.32600
C 	C 	0.50000 0.20600 0.50000 -0.03500
C 	C 	0.50000 0.04360 0.50000 -0.13300
C 	C 	0.50000 0.71150 0.50000 0.32600
C 	C 	0.50000 0.79400 0.50000 -0.03500
C 	C 	0.50000 0.95640 0.50000 -0.13300
C 	C 	0.50000 0.50000 0.28850 0.32600
C 	C 	0.50000 0.50000 0.20600 -0.03500
C 	C 	0.50000 0.50000 0.04360 -0.13300
C 	C 	0.50000 0.50000 0.71150 0.32600
C 	C 	0.50000 0.50000 0.79400 -0.03500
C 	C 	0.50000 0.50000 0.95640 -0.13300
C 	C 	0.28850 0.50000 0.50000 0.32600
C 	C 	0.20600 0.50000 0.50000 -0.03500
C 	C 	0.04360 0.50000 0.50000 -0.13300
C 	C 	0.71150 0.50000 0.50000 0.32600
C 	C 	0.79400 0.50000 0.50000 -0.03500
C 	C 	0.95640 0.50000 0.50000 -0.13300
