data_crystal

_cell_length_a 26.07000
_cell_length_b 26.07000
_cell_length_c 18.60100
_cell_angle_alpha 90.00000
_cell_angle_beta  90.00000
_cell_angle_gamma 90.00000

_symmetry_space_group_name_	'P 1'
_symmetry_space_group_name_H-M	'P 1'

loop_
_symmetry_equiv_pos_as_xyz
  x,y,z

loop_
_atom_site_label
_atom_site_type_symbol
_atom_site_fract_x
_atom_site_fract_y
_atom_site_fract_z
_atom_site_charge
C 	C 	0.36590 0.74580 0.57260 0.31200
C 	C 	0.69330 0.73760 0.44150 0.37800
C 	C 	0.66900 0.74550 0.51090 -0.13600
C 	C 	0.69360 0.75500 0.57090 0.07800
H 	H 	0.72920 0.75420 0.57100 0.03400
C 	C 	0.66700 0.76640 0.63590 -0.13400
C 	C 	0.61470 0.76320 0.63440 0.03600
H 	H 	0.59650 0.76860 0.67670 0.03500
C 	C 	0.58770 0.75200 0.57160 -0.05900
C 	C 	0.61560 0.74310 0.50820 0.02500
H 	H 	0.59880 0.73590 0.46530 0.04000
C 	C 	0.69900 0.77230 0.70380 0.44700
C 	C 	0.53030 0.74930 0.57220 0.11000
C 	C 	0.50300 0.78480 0.61390 -0.14800
H 	H 	0.52030 0.81030 0.63920 0.08700
C 	C 	0.45040 0.78150 0.61670 0.06400
H 	H 	0.43280 0.80260 0.64850 0.02500
C 	C 	0.42190 0.74680 0.57260 -0.12100
C 	C 	0.45060 0.71460 0.53230 0.08200
H 	H 	0.43420 0.68990 0.50440 0.02000
C 	C 	0.50250 0.71710 0.53140 -0.16400
H 	H 	0.52000 0.69510 0.50060 0.09300
C 	C 	0.74300 0.82430 0.31620 0.39900
C 	C 	0.73850 0.88160 0.28280 -0.06200
C 	C 	0.78240 0.91160 0.28910 0.00100
H 	H 	0.81240 0.89730 0.30710 0.04500
C 	C 	0.78130 0.96280 0.26840 -0.08100
H 	H 	0.81060 0.98280 0.27270 0.06000
C 	C 	0.73630 0.98410 0.24150 0.02500
C 	C 	0.69250 0.95410 0.23520 -0.08500
H 	H 	0.66240 0.96840 0.21720 0.06100
C 	C 	0.69350 0.90290 0.25580 0.01200
H 	H 	0.66420 0.88280 0.25160 0.04600
C 	C 	0.73830 0.20600 0.95240 0.36400
C 	C 	0.74460 0.18000 0.88430 -0.11900
C 	C 	0.74370 0.12710 0.88320 0.02400
H 	H 	0.73770 0.10950 0.92600 0.04000
C 	C 	0.74710 0.87920 0.82010 0.41300
C 	C 	0.74710 0.93360 0.81940 -0.18800
C 	C 	0.78520 0.95890 0.77820 0.08800
H 	H 	0.81020 0.94060 0.75320 0.01700
C 	C 	0.78370 0.01430 0.77670 -0.15800
H 	H 	0.80570 0.03190 0.74610 0.09000
C 	C 	0.74980 0.04180 0.81990 0.11700
C 	C 	0.71670 0.01440 0.86330 -0.18500
H 	H 	0.69520 0.03180 0.89490 0.10000
C 	C 	0.71540 0.96210 0.86050 0.12400
H 	H 	0.69110 0.94520 0.88840 0.00300
C 	C 	0.77450 0.20670 0.69050 0.35300
C 	C 	0.76630 0.17830 0.75700 -0.11700
C 	C 	0.76260 0.12560 0.75970 0.02700
H 	H 	0.76800 0.10710 0.71750 0.03600
C 	C 	0.75140 0.09900 0.82070 -0.06100
C 	C 	0.75640 0.20440 0.82120 0.05800
H 	H 	0.75790 0.24000 0.82110 0.04300
C 	C 	0.72540 0.68840 0.84370 0.45700
C 	C 	0.73390 0.62900 0.85140 -0.12500
C 	C 	0.77810 0.59950 0.84530 0.05000
H 	H 	0.80700 0.61300 0.82290 0.03000
C 	C 	0.77910 0.54990 0.87260 -0.11100
H 	H 	0.80870 0.53020 0.86850 0.06900
C 	C 	0.73590 0.52980 0.90610 0.04400
C 	C 	0.69170 0.55930 0.91220 -0.10300
H 	H 	0.66270 0.54590 0.93460 0.06700
C 	C 	0.69070 0.60890 0.88480 0.03700
H 	H 	0.66110 0.62870 0.88890 0.03700
N 	N 	0.73460 0.13800 0.15580 -0.18000
C 	C 	0.69070 0.11600 0.18500 0.06100
H 	H 	0.66000 0.13420 0.18520 0.02100
C 	C 	0.69270 0.06690 0.21380 -0.12100
H 	H 	0.66330 0.05220 0.23340 0.07400
C 	C 	0.73850 0.03970 0.21340 0.06100
C 	C 	0.78240 0.06160 0.18420 -0.11900
H 	H 	0.81310 0.04340 0.18400 0.07500
C 	C 	0.78050 0.11080 0.15540 0.05800
H 	H 	0.80980 0.12550 0.13580 0.02200
N 	N 	0.72810 0.37347 0.98350 -0.17800
C 	C 	0.68369 0.40259 0.97700 0.06000
H 	H 	0.65250 0.38950 0.99300 0.02000
C 	C 	0.68584 0.45125 0.94660 -0.11600
H 	H 	0.65610 0.47070 0.94230 0.07100
C 	C 	0.73240 0.47080 0.92270 0.05300
C 	C 	0.77680 0.44170 0.92910 -0.11200
H 	H 	0.80800 0.45480 0.91310 0.07000
C 	C 	0.77469 0.39300 0.95950 0.05200
H 	H 	0.80440 0.37350 0.96390 0.02200
O 	O 	0.74339 0.77200 0.70370 -0.46100
O 	O 	0.73651 0.25490 0.95010 -0.38900
O 	O 	0.67224 0.78292 0.75840 -0.42200
O 	O 	0.72714 0.18163 0.00770 -0.38900
O 	O 	0.78374 0.18346 0.63540 -0.41400
O 	O 	0.77510 0.25834 0.69260 -0.38400
O 	O 	0.77840 0.85447 0.78210 -0.40800
O 	O 	0.71450 0.85373 0.85570 -0.42100
O 	O 	0.74217 0.73897 0.44260 -0.39400
O 	O 	0.67031 0.72729 0.38520 -0.40600
O 	O 	0.78240 0.70330 0.80290 -0.34700
O 	O 	0.69530 0.70830 0.84940 -0.55600
O 	O 	0.34371 0.70946 0.53630 -0.37500
O 	O 	0.34104 0.78199 0.60940 -0.37600
O 	O 	0.78230 0.80630 0.33440 -0.44200
O 	O 	0.70270 0.80800 0.29260 -0.41800
Cu	Cu	0.78757 0.77874 0.78728 0.90200
Cu	Cu	0.70006 0.73122 0.28638 0.91100
Cu	Cu	0.69908 0.78108 0.85659 0.91600
Cu	Cu	0.78795 0.73241 0.35610 0.91400
C 	C 	0.63410 0.25420 0.07260 0.31300
C 	C 	0.30670 0.26240 0.94150 0.37700
C 	C 	0.33100 0.25450 0.01090 -0.13400
C 	C 	0.30640 0.24500 0.07090 0.07900
H 	H 	0.27080 0.24580 0.07100 0.03600
C 	C 	0.33300 0.23360 0.13590 -0.13400
C 	C 	0.38530 0.23680 0.13440 0.03700
H 	H 	0.40350 0.23140 0.17670 0.03500
C 	C 	0.41230 0.24800 0.07160 -0.06100
C 	C 	0.38440 0.25690 0.00820 0.03000
H 	H 	0.40120 0.26410 0.96530 0.03600
C 	C 	0.30100 0.22770 0.20380 0.44700
C 	C 	0.46970 0.25070 0.07220 0.11100
C 	C 	0.49700 0.21520 0.11390 -0.14900
H 	H 	0.47970 0.18970 0.13920 0.08800
C 	C 	0.54960 0.21850 0.11670 0.06400
H 	H 	0.56720 0.19740 0.14850 0.02500
C 	C 	0.57810 0.25320 0.07260 -0.12200
C 	C 	0.54940 0.28540 0.03230 0.08300
H 	H 	0.56580 0.31010 0.00440 0.02000
C 	C 	0.49750 0.28290 0.03140 -0.16500
H 	H 	0.48000 0.30490 0.00060 0.09400
C 	C 	0.25700 0.17570 0.81620 0.39900
C 	C 	0.26150 0.11840 0.78280 -0.06200
C 	C 	0.21760 0.08840 0.78910 0.00100
H 	H 	0.18760 0.10270 0.80710 0.04500
C 	C 	0.21870 0.03720 0.76840 -0.08100
H 	H 	0.18940 0.01720 0.77270 0.06000
C 	C 	0.26370 0.01590 0.74150 0.02500
C 	C 	0.30750 0.04590 0.73520 -0.08500
H 	H 	0.33760 0.03160 0.71720 0.06100
C 	C 	0.30650 0.09710 0.75580 0.01200
H 	H 	0.33580 0.11720 0.75160 0.04600
C 	C 	0.26170 0.79400 0.45240 0.36800
C 	C 	0.25540 0.82000 0.38430 -0.12000
C 	C 	0.25630 0.87290 0.38320 0.02500
H 	H 	0.26230 0.89050 0.42600 0.04100
C 	C 	0.25290 0.12080 0.32010 0.41300
C 	C 	0.25290 0.06640 0.31940 -0.18700
C 	C 	0.21480 0.04110 0.27820 0.08800
H 	H 	0.18980 0.05940 0.25320 0.01700
C 	C 	0.21630 0.98570 0.27670 -0.15800
H 	H 	0.19430 0.96810 0.24610 0.09000
C 	C 	0.25020 0.95820 0.31990 0.11800
C 	C 	0.28330 0.98560 0.36330 -0.18500
H 	H 	0.30480 0.96820 0.39490 0.10100
C 	C 	0.28460 0.03790 0.36050 0.12500
H 	H 	0.30890 0.05480 0.38840 0.00300
C 	C 	0.22550 0.79330 0.19050 0.35300
C 	C 	0.23370 0.82170 0.25700 -0.11700
C 	C 	0.23740 0.87440 0.25970 0.02700
H 	H 	0.23200 0.89290 0.21750 0.03600
C 	C 	0.24860 0.90100 0.32070 -0.06100
C 	C 	0.24360 0.79560 0.32120 0.05900
H 	H 	0.24210 0.76000 0.32110 0.04300
C 	C 	0.27460 0.31160 0.34370 0.45700
C 	C 	0.26610 0.37100 0.35140 -0.12400
C 	C 	0.22190 0.40050 0.34530 0.05000
H 	H 	0.19300 0.38700 0.32290 0.03100
C 	C 	0.22090 0.45010 0.37260 -0.11100
H 	H 	0.19130 0.46980 0.36850 0.07000
C 	C 	0.26410 0.47020 0.40610 0.04500
C 	C 	0.30830 0.44070 0.41220 -0.10300
H 	H 	0.33730 0.45410 0.43460 0.06700
C 	C 	0.30930 0.39110 0.38480 0.03700
H 	H 	0.33890 0.37130 0.38890 0.03700
N 	N 	0.26540 0.86200 0.65580 -0.18000
C 	C 	0.30930 0.88400 0.68500 0.06000
H 	H 	0.34000 0.86580 0.68520 0.02100
C 	C 	0.30730 0.93310 0.71380 -0.12100
H 	H 	0.33670 0.94780 0.73340 0.07400
C 	C 	0.26150 0.96030 0.71340 0.06100
C 	C 	0.21760 0.93840 0.68420 -0.12000
H 	H 	0.18690 0.95660 0.68400 0.07400
C 	C 	0.21950 0.88920 0.65540 0.05800
H 	H 	0.19020 0.87450 0.63580 0.02200
N 	N 	0.27190 0.62653 0.48350 -0.17700
C 	C 	0.31631 0.59741 0.47700 0.06000
H 	H 	0.34750 0.61050 0.49300 0.02100
C 	C 	0.31416 0.54875 0.44660 -0.11600
H 	H 	0.34390 0.52930 0.44230 0.07200
C 	C 	0.26760 0.52920 0.42270 0.05300
C 	C 	0.22320 0.55830 0.42910 -0.11200
H 	H 	0.19200 0.54520 0.41310 0.07000
C 	C 	0.22531 0.60700 0.45950 0.05300
H 	H 	0.19560 0.62650 0.46390 0.02300
O 	O 	0.25661 0.22800 0.20370 -0.46100
O 	O 	0.26349 0.74510 0.45010 -0.38800
O 	O 	0.32776 0.21708 0.25840 -0.42100
O 	O 	0.27286 0.81837 0.50770 -0.39200
O 	O 	0.21626 0.81654 0.13540 -0.41400
O 	O 	0.22490 0.74166 0.19260 -0.38400
O 	O 	0.22160 0.14553 0.28210 -0.40700
O 	O 	0.28550 0.14627 0.35570 -0.42100
O 	O 	0.25783 0.26103 0.94260 -0.39400
O 	O 	0.32969 0.27271 0.88520 -0.40500
O 	O 	0.21760 0.29670 0.30290 -0.34600
O 	O 	0.30470 0.29170 0.34940 -0.55500
O 	O 	0.65629 0.29054 0.03630 -0.37400
O 	O 	0.65896 0.21801 0.10940 -0.37600
O 	O 	0.21770 0.19370 0.83440 -0.44200
O 	O 	0.29730 0.19200 0.79260 -0.41800
Cu	Cu	0.21243 0.22126 0.28728 0.90200
Cu	Cu	0.29994 0.26878 0.78638 0.91100
Cu	Cu	0.30092 0.21892 0.35659 0.91700
Cu	Cu	0.21205 0.26759 0.85610 0.91400
C 	C 	0.25420 0.36590 0.82260 0.31200
C 	C 	0.26240 0.69330 0.69150 0.37900
C 	C 	0.25450 0.66900 0.76090 -0.13500
C 	C 	0.24500 0.69360 0.82090 0.07800
H 	H 	0.24580 0.72920 0.82100 0.03500
C 	C 	0.23360 0.66700 0.88590 -0.13300
C 	C 	0.23680 0.61470 0.88440 0.03500
H 	H 	0.23140 0.59650 0.92670 0.03500
C 	C 	0.24800 0.58770 0.82160 -0.05900
C 	C 	0.25690 0.61560 0.75820 0.02400
H 	H 	0.26410 0.59880 0.71530 0.04000
C 	C 	0.22770 0.69900 0.95380 0.44400
C 	C 	0.25070 0.53030 0.82220 0.10900
C 	C 	0.21520 0.50300 0.86390 -0.14800
H 	H 	0.18970 0.52030 0.88920 0.08700
C 	C 	0.21850 0.45040 0.86670 0.06300
H 	H 	0.19740 0.43280 0.89850 0.02500
C 	C 	0.25320 0.42190 0.82260 -0.12100
C 	C 	0.28540 0.45060 0.78230 0.08200
H 	H 	0.31010 0.43420 0.75440 0.02000
C 	C 	0.28290 0.50250 0.78140 -0.16400
H 	H 	0.30490 0.52000 0.75060 0.09300
C 	C 	0.17570 0.74300 0.56620 0.39900
C 	C 	0.11840 0.73850 0.53280 -0.06200
C 	C 	0.08840 0.78240 0.53910 0.00100
H 	H 	0.10270 0.81240 0.55710 0.04500
C 	C 	0.03720 0.78130 0.51840 -0.08100
H 	H 	0.01720 0.81060 0.52270 0.06000
C 	C 	0.01590 0.73630 0.49150 0.02500
C 	C 	0.04590 0.69250 0.48520 -0.08500
H 	H 	0.03160 0.66240 0.46720 0.06100
C 	C 	0.09710 0.69350 0.50580 0.01200
H 	H 	0.11720 0.66420 0.50160 0.04600
C 	C 	0.79400 0.73830 0.20240 0.36800
C 	C 	0.82000 0.74460 0.13430 -0.11900
C 	C 	0.87290 0.74370 0.13320 0.02500
H 	H 	0.89050 0.73770 0.17600 0.04100
C 	C 	0.12080 0.74710 0.07010 0.41200
C 	C 	0.06640 0.74710 0.06940 -0.18400
C 	C 	0.04110 0.78520 0.02820 0.08400
H 	H 	0.05940 0.81020 0.00320 0.01900
C 	C 	0.98570 0.78370 0.02670 -0.14900
H 	H 	0.96810 0.80570 0.99610 0.08500
C 	C 	0.95820 0.74980 0.06990 0.11500
C 	C 	0.98560 0.71670 0.11330 -0.18200
H 	H 	0.96820 0.69520 0.14490 0.10000
C 	C 	0.03790 0.71540 0.11050 0.12200
H 	H 	0.05480 0.69110 0.13840 0.00400
C 	C 	0.79330 0.77450 0.94050 0.35000
C 	C 	0.82170 0.76630 0.00700 -0.11600
C 	C 	0.87440 0.76260 0.00970 0.03200
H 	H 	0.89290 0.76800 0.96750 0.03200
C 	C 	0.90100 0.75140 0.07070 -0.06100
C 	C 	0.79560 0.75640 0.07120 0.05800
H 	H 	0.76000 0.75790 0.07110 0.04400
C 	C 	0.31160 0.72540 0.09370 0.45700
C 	C 	0.37100 0.73390 0.10140 -0.12400
C 	C 	0.40050 0.77810 0.09530 0.05000
H 	H 	0.38700 0.80700 0.07290 0.03100
C 	C 	0.45010 0.77910 0.12260 -0.11000
H 	H 	0.46980 0.80870 0.11850 0.07000
C 	C 	0.47020 0.73590 0.15610 0.04500
C 	C 	0.44070 0.69170 0.16220 -0.10300
H 	H 	0.45410 0.66270 0.18460 0.06700
C 	C 	0.39110 0.69070 0.13480 0.03700
H 	H 	0.37130 0.66110 0.13890 0.03700
N 	N 	0.86200 0.73460 0.40580 -0.18000
C 	C 	0.88400 0.69070 0.43500 0.06100
H 	H 	0.86580 0.66000 0.43520 0.02100
C 	C 	0.93310 0.69270 0.46380 -0.12100
H 	H 	0.94780 0.66330 0.48340 0.07400
C 	C 	0.96030 0.73850 0.46340 0.06100
C 	C 	0.93840 0.78240 0.43420 -0.11900
H 	H 	0.95660 0.81310 0.43400 0.07400
C 	C 	0.88920 0.78050 0.40540 0.05800
H 	H 	0.87450 0.80980 0.38580 0.02200
N 	N 	0.62653 0.72810 0.23350 -0.17700
C 	C 	0.59741 0.68369 0.22700 0.06000
H 	H 	0.61050 0.65250 0.24300 0.02100
C 	C 	0.54875 0.68584 0.19660 -0.11600
H 	H 	0.52930 0.65610 0.19230 0.07200
C 	C 	0.52920 0.73240 0.17270 0.05400
C 	C 	0.55830 0.77680 0.17910 -0.11200
H 	H 	0.54520 0.80800 0.16310 0.07000
C 	C 	0.60700 0.77469 0.20950 0.05300
H 	H 	0.62650 0.80440 0.21390 0.02300
O 	O 	0.22800 0.74339 0.95370 -0.46200
O 	O 	0.74510 0.73651 0.20010 -0.38800
O 	O 	0.21708 0.67224 0.00840 -0.41900
O 	O 	0.81837 0.72714 0.25770 -0.39100
O 	O 	0.81654 0.78374 0.88540 -0.41400
O 	O 	0.74166 0.77510 0.94260 -0.38500
O 	O 	0.14553 0.77840 0.03210 -0.40700
O 	O 	0.14627 0.71450 0.10570 -0.42000
O 	O 	0.26103 0.74217 0.69260 -0.39400
O 	O 	0.27271 0.67031 0.63520 -0.40600
O 	O 	0.29670 0.78240 0.05290 -0.34600
O 	O 	0.29170 0.69530 0.09940 -0.55500
O 	O 	0.29054 0.34371 0.78630 -0.37500
O 	O 	0.21801 0.34104 0.85940 -0.37700
O 	O 	0.19370 0.78230 0.58440 -0.44200
O 	O 	0.19200 0.70270 0.54260 -0.41800
Cu	Cu	0.22126 0.78757 0.03728 0.90200
Cu	Cu	0.26878 0.70006 0.53638 0.91100
Cu	Cu	0.21892 0.69908 0.10659 0.91700
Cu	Cu	0.26759 0.78795 0.60610 0.91400
C 	C 	0.74580 0.63410 0.32260 0.31300
C 	C 	0.73760 0.30670 0.19150 0.37900
C 	C 	0.74550 0.33100 0.26090 -0.13400
C 	C 	0.75500 0.30640 0.32090 0.07800
H 	H 	0.75420 0.27080 0.32100 0.03500
C 	C 	0.76640 0.33300 0.38590 -0.13400
C 	C 	0.76320 0.38530 0.38440 0.03600
H 	H 	0.76860 0.40350 0.42670 0.03600
C 	C 	0.75200 0.41230 0.32160 -0.05900
C 	C 	0.74310 0.38440 0.25820 0.02500
H 	H 	0.73590 0.40120 0.21530 0.04000
C 	C 	0.77230 0.30100 0.45380 0.44700
C 	C 	0.74930 0.46970 0.32220 0.11000
C 	C 	0.78480 0.49700 0.36390 -0.14800
H 	H 	0.81030 0.47970 0.38920 0.08700
C 	C 	0.78150 0.54960 0.36670 0.06400
H 	H 	0.80260 0.56720 0.39850 0.02600
C 	C 	0.74680 0.57810 0.32260 -0.12100
C 	C 	0.71460 0.54940 0.28230 0.08200
H 	H 	0.68990 0.56580 0.25440 0.02000
C 	C 	0.71710 0.49750 0.28140 -0.16400
H 	H 	0.69510 0.48000 0.25060 0.09300
C 	C 	0.82430 0.25700 0.06620 0.40000
C 	C 	0.88160 0.26150 0.03280 -0.06200
C 	C 	0.91160 0.21760 0.03910 0.00000
H 	H 	0.89730 0.18760 0.05710 0.04500
C 	C 	0.96280 0.21870 0.01840 -0.07700
H 	H 	0.98280 0.18940 0.02270 0.05900
C 	C 	0.98410 0.26370 0.99150 0.02200
C 	C 	0.95410 0.30750 0.98520 -0.08800
H 	H 	0.96840 0.33760 0.96720 0.06200
C 	C 	0.90290 0.30650 0.00580 0.01600
H 	H 	0.88280 0.33580 0.00160 0.04600
C 	C 	0.20600 0.26170 0.70240 0.36800
C 	C 	0.18000 0.25540 0.63430 -0.12000
C 	C 	0.12710 0.25630 0.63320 0.02500
H 	H 	0.10950 0.26230 0.67600 0.04100
C 	C 	0.87920 0.25290 0.57010 0.41300
C 	C 	0.93360 0.25290 0.56940 -0.18700
C 	C 	0.95890 0.21480 0.52820 0.08800
H 	H 	0.94060 0.18980 0.50320 0.01700
C 	C 	0.01430 0.21630 0.52670 -0.15700
H 	H 	0.03190 0.19430 0.49610 0.09000
C 	C 	0.04180 0.25020 0.56990 0.11800
C 	C 	0.01440 0.28330 0.61330 -0.18500
H 	H 	0.03180 0.30480 0.64490 0.10100
C 	C 	0.96210 0.28460 0.61050 0.12400
H 	H 	0.94520 0.30890 0.63840 0.00300
C 	C 	0.20670 0.22550 0.44050 0.35300
C 	C 	0.17830 0.23370 0.50700 -0.11700
C 	C 	0.12560 0.23740 0.50970 0.02700
H 	H 	0.10710 0.23200 0.46750 0.03600
C 	C 	0.09900 0.24860 0.57070 -0.06100
C 	C 	0.20440 0.24360 0.57120 0.05900
H 	H 	0.24000 0.24210 0.57110 0.04300
C 	C 	0.68840 0.27460 0.59370 0.45700
C 	C 	0.62900 0.26610 0.60140 -0.12400
C 	C 	0.59950 0.22190 0.59530 0.05000
H 	H 	0.61300 0.19300 0.57290 0.03000
C 	C 	0.54990 0.22090 0.62260 -0.11100
H 	H 	0.53020 0.19130 0.61850 0.07000
C 	C 	0.52980 0.26410 0.65610 0.04500
C 	C 	0.55930 0.30830 0.66220 -0.10300
H 	H 	0.54590 0.33730 0.68460 0.06700
C 	C 	0.60890 0.30930 0.63480 0.03700
H 	H 	0.62870 0.33890 0.63890 0.03700
N 	N 	0.13800 0.26540 0.90580 -0.18000
C 	C 	0.11600 0.30930 0.93500 0.06100
H 	H 	0.13420 0.34000 0.93520 0.02100
C 	C 	0.06690 0.30730 0.96380 -0.12200
H 	H 	0.05220 0.33670 0.98340 0.07400
C 	C 	0.03970 0.26150 0.96340 0.06200
C 	C 	0.06160 0.21760 0.93420 -0.12000
H 	H 	0.04340 0.18690 0.93400 0.07400
C 	C 	0.11080 0.21950 0.90540 0.05800
H 	H 	0.12550 0.19020 0.88580 0.02100
N 	N 	0.37347 0.27190 0.73350 -0.17700
C 	C 	0.40259 0.31631 0.72700 0.06000
H 	H 	0.38950 0.34750 0.74300 0.02100
C 	C 	0.45125 0.31416 0.69660 -0.11600
H 	H 	0.47070 0.34390 0.69230 0.07100
C 	C 	0.47080 0.26760 0.67270 0.05300
C 	C 	0.44170 0.22320 0.67910 -0.11200
H 	H 	0.45480 0.19200 0.66310 0.07000
C 	C 	0.39300 0.22531 0.70950 0.05300
H 	H 	0.37350 0.19560 0.71390 0.02300
O 	O 	0.77200 0.25661 0.45370 -0.46100
O 	O 	0.25490 0.26349 0.70010 -0.38800
O 	O 	0.78292 0.32776 0.50840 -0.42100
O 	O 	0.18163 0.27286 0.75770 -0.39200
O 	O 	0.18346 0.21626 0.38540 -0.41400
O 	O 	0.25834 0.22490 0.44260 -0.38400
O 	O 	0.85447 0.22160 0.53210 -0.40800
O 	O 	0.85373 0.28550 0.60570 -0.42100
O 	O 	0.73897 0.25783 0.19260 -0.39400
O 	O 	0.72729 0.32969 0.13520 -0.40500
O 	O 	0.70330 0.21760 0.55290 -0.34700
O 	O 	0.70830 0.30470 0.59940 -0.55500
O 	O 	0.70946 0.65629 0.28630 -0.37500
O 	O 	0.78199 0.65896 0.35940 -0.37600
O 	O 	0.80630 0.21770 0.08440 -0.44200
O 	O 	0.80800 0.29730 0.04260 -0.41700
Cu	Cu	0.77874 0.21243 0.53728 0.90200
Cu	Cu	0.73122 0.29994 0.03638 0.91200
Cu	Cu	0.78108 0.30092 0.60659 0.91700
Cu	Cu	0.73241 0.21205 0.10610 0.91400
