data_crystal

_cell_length_a 26.71200
_cell_length_b 12.44500
_cell_length_c 17.90300
_cell_angle_alpha 90.00000
_cell_angle_beta  101.85100
_cell_angle_gamma 90.00000

_symmetry_space_group_name_	'P 1'
_symmetry_space_group_name_H-M	'P 1'

loop_
_symmetry_equiv_pos_as_xyz
  x,y,z

loop_
_atom_site_label
_atom_site_type_symbol
_atom_site_fract_x
_atom_site_fract_y
_atom_site_fract_z
_atom_site_charge
Zn	Zn	0.74854 0.22701 0.10581 1.05000
N 	N 	0.69704 0.36480 0.11110 -0.31400
N 	N 	0.63308 0.47990 0.08750 -0.11300
N 	N 	0.36488 0.47790 0.14890 -0.11300
N 	N 	0.30135 0.58950 0.10530 -0.31500
C 	C 	0.65200 0.38780 0.06830 0.07500
H 	H 	0.63530 0.34400 0.02890 -0.06100
C 	C 	0.66840 0.52150 0.14630 -0.02000
H 	H 	0.66610 0.58590 0.17180 0.00100
C 	C 	0.70730 0.45070 0.16030 -0.02100
H 	H 	0.73680 0.45860 0.19780 -0.04700
C 	C 	0.58370 0.52930 0.05170 -0.12500
H 	H 	0.57420 0.50490 0.99920 0.07100
H 	H 	0.58790 0.60670 0.05090 0.05500
C 	C 	0.54110 0.50280 0.09230 0.05100
C 	C 	0.52500 0.39820 0.09980 -0.07300
H 	H 	0.54160 0.34200 0.08090 0.03500
C 	C 	0.48480 0.37600 0.13470 -0.07700
H 	H 	0.47570 0.30490 0.14100 0.03100
C 	C 	0.45750 0.45850 0.16100 0.05100
C 	C 	0.47400 0.56390 0.15290 -0.07000
H 	H 	0.45670 0.62050 0.17030 0.03500
C 	C 	0.51510 0.58590 0.11990 -0.07900
H 	H 	0.52550 0.65660 0.11600 0.03200
C 	C 	0.41290 0.43700 0.19610 -0.12400
H 	H 	0.40980 0.36020 0.20310 0.05000
H 	H 	0.41840 0.47060 0.24600 0.06700
C 	C 	0.34220 0.57210 0.15790 0.07000
H 	H 	0.35440 0.61990 0.19750 -0.05600
C 	C 	0.29720 0.49990 0.05830 -0.01900
H 	H 	0.27160 0.48860 0.01520 -0.03900
C 	C 	0.33500 0.43350 0.08400 -0.02300
H 	H 	0.34080 0.36800 0.06220 0.01500
Zn	Zn	0.24854 0.72701 0.10581 1.05100
N 	N 	0.19704 0.86480 0.11110 -0.31300
N 	N 	0.13308 0.97990 0.08750 -0.11200
N 	N 	0.86488 0.97790 0.14890 -0.11300
N 	N 	0.80135 0.08950 0.10530 -0.31500
C 	C 	0.15200 0.88780 0.06830 0.07500
H 	H 	0.13530 0.84400 0.02890 -0.06000
C 	C 	0.16840 0.02150 0.14630 -0.02200
H 	H 	0.16610 0.08590 0.17180 0.00100
C 	C 	0.20730 0.95070 0.16030 -0.02000
H 	H 	0.23680 0.95860 0.19780 -0.04800
C 	C 	0.08370 0.02930 0.05170 -0.12500
H 	H 	0.07420 0.00490 0.99920 0.07100
H 	H 	0.08790 0.10670 0.05090 0.05500
C 	C 	0.04110 0.00280 0.09230 0.04900
C 	C 	0.02500 0.89820 0.09980 -0.07100
H 	H 	0.04160 0.84200 0.08090 0.03400
C 	C 	0.98480 0.87600 0.13470 -0.08000
H 	H 	0.97570 0.80490 0.14100 0.03200
C 	C 	0.95750 0.95850 0.16100 0.05300
C 	C 	0.97400 0.06390 0.15290 -0.07200
H 	H 	0.95670 0.12050 0.17030 0.03600
C 	C 	0.01510 0.08590 0.11990 -0.07700
H 	H 	0.02550 0.15660 0.11600 0.03100
C 	C 	0.91290 0.93700 0.19610 -0.12500
H 	H 	0.90980 0.86020 0.20310 0.05000
H 	H 	0.91840 0.97060 0.24600 0.06700
C 	C 	0.84220 0.07210 0.15790 0.06900
H 	H 	0.85440 0.11990 0.19750 -0.05600
C 	C 	0.79720 0.99990 0.05830 -0.01900
H 	H 	0.77160 0.98860 0.01520 -0.03900
C 	C 	0.83500 0.93350 0.08400 -0.02300
H 	H 	0.84080 0.86800 0.06220 0.01600
Zn	Zn	0.25146 0.22701 0.39419 1.05100
N 	N 	0.30296 0.36480 0.38890 -0.31300
N 	N 	0.36692 0.47990 0.41250 -0.11300
N 	N 	0.63512 0.47790 0.35110 -0.11300
N 	N 	0.69865 0.58950 0.39470 -0.31500
C 	C 	0.34800 0.38780 0.43170 0.07500
H 	H 	0.36470 0.34400 0.47110 -0.06100
C 	C 	0.33160 0.52150 0.35370 -0.02000
H 	H 	0.33390 0.58590 0.32820 0.00100
C 	C 	0.29270 0.45070 0.33970 -0.02100
H 	H 	0.26320 0.45860 0.30220 -0.04700
C 	C 	0.41630 0.52930 0.44830 -0.12500
H 	H 	0.42580 0.50490 0.50080 0.07100
H 	H 	0.41210 0.60670 0.44910 0.05400
C 	C 	0.45890 0.50280 0.40770 0.05100
C 	C 	0.47500 0.39820 0.40020 -0.07300
H 	H 	0.45840 0.34200 0.41910 0.03500
C 	C 	0.51520 0.37600 0.36530 -0.07700
H 	H 	0.52430 0.30490 0.35900 0.03100
C 	C 	0.54250 0.45850 0.33900 0.05100
C 	C 	0.52600 0.56390 0.34710 -0.07000
H 	H 	0.54330 0.62050 0.32970 0.03500
C 	C 	0.48490 0.58590 0.38010 -0.07900
H 	H 	0.47450 0.65660 0.38400 0.03200
C 	C 	0.58710 0.43700 0.30390 -0.12400
H 	H 	0.59020 0.36020 0.29690 0.05000
H 	H 	0.58160 0.47060 0.25400 0.06700
C 	C 	0.65780 0.57210 0.34210 0.07000
H 	H 	0.64560 0.61990 0.30250 -0.05600
C 	C 	0.70280 0.49990 0.44170 -0.01900
H 	H 	0.72840 0.48860 0.48480 -0.03900
C 	C 	0.66500 0.43350 0.41600 -0.02300
H 	H 	0.65920 0.36800 0.43780 0.01500
Zn	Zn	0.75146 0.72701 0.39419 1.05100
N 	N 	0.80296 0.86480 0.38890 -0.31300
N 	N 	0.86692 0.97990 0.41250 -0.11300
N 	N 	0.13512 0.97790 0.35110 -0.11300
N 	N 	0.19865 0.08950 0.39470 -0.31500
C 	C 	0.84800 0.88780 0.43170 0.07500
H 	H 	0.86470 0.84400 0.47110 -0.06100
C 	C 	0.83160 0.02150 0.35370 -0.02100
H 	H 	0.83390 0.08590 0.32820 0.00100
C 	C 	0.79270 0.95070 0.33970 -0.02100
H 	H 	0.76320 0.95860 0.30220 -0.04700
C 	C 	0.91630 0.02930 0.44830 -0.12500
H 	H 	0.92580 0.00490 0.50080 0.07100
H 	H 	0.91210 0.10670 0.44910 0.05400
C 	C 	0.95890 0.00280 0.40770 0.05000
C 	C 	0.97500 0.89820 0.40020 -0.07300
H 	H 	0.95840 0.84200 0.41910 0.03500
C 	C 	0.01520 0.87600 0.36530 -0.07800
H 	H 	0.02430 0.80490 0.35900 0.03100
C 	C 	0.04250 0.95850 0.33900 0.05200
C 	C 	0.02600 0.06390 0.34710 -0.07000
H 	H 	0.04330 0.12050 0.32970 0.03500
C 	C 	0.98490 0.08590 0.38010 -0.07900
H 	H 	0.97450 0.15660 0.38400 0.03200
C 	C 	0.08710 0.93700 0.30390 -0.12400
H 	H 	0.09020 0.86020 0.29690 0.05000
H 	H 	0.08160 0.97060 0.25400 0.06700
C 	C 	0.15780 0.07210 0.34210 0.06900
H 	H 	0.14560 0.11990 0.30250 -0.05600
C 	C 	0.20280 0.99990 0.44170 -0.01900
H 	H 	0.22840 0.98860 0.48480 -0.03900
C 	C 	0.16500 0.93350 0.41600 -0.02300
H 	H 	0.15920 0.86800 0.43780 0.01500
Zn	Zn	0.25146 0.77299 0.89419 1.05100
N 	N 	0.30296 0.63520 0.88890 -0.31300
N 	N 	0.36692 0.52010 0.91250 -0.11300
N 	N 	0.63512 0.52210 0.85110 -0.11300
N 	N 	0.69865 0.41050 0.89470 -0.31500
C 	C 	0.34800 0.61220 0.93170 0.07500
H 	H 	0.36470 0.65600 0.97110 -0.06100
C 	C 	0.33160 0.47850 0.85370 -0.02000
H 	H 	0.33390 0.41410 0.82820 0.00100
C 	C 	0.29270 0.54930 0.83970 -0.02100
H 	H 	0.26320 0.54140 0.80220 -0.04700
C 	C 	0.41630 0.47070 0.94830 -0.12500
H 	H 	0.42580 0.49510 0.00080 0.07100
H 	H 	0.41210 0.39330 0.94910 0.05500
C 	C 	0.45890 0.49720 0.90770 0.05100
C 	C 	0.47500 0.60180 0.90020 -0.07300
H 	H 	0.45840 0.65800 0.91910 0.03500
C 	C 	0.51520 0.62400 0.86530 -0.07700
H 	H 	0.52430 0.69510 0.85900 0.03100
C 	C 	0.54250 0.54150 0.83900 0.05100
C 	C 	0.52600 0.43610 0.84710 -0.07000
H 	H 	0.54330 0.37950 0.82970 0.03500
C 	C 	0.48490 0.41410 0.88010 -0.07900
H 	H 	0.47450 0.34340 0.88400 0.03200
C 	C 	0.58710 0.56300 0.80390 -0.12400
H 	H 	0.59020 0.63980 0.79690 0.05000
H 	H 	0.58160 0.52940 0.75400 0.06700
C 	C 	0.65780 0.42790 0.84210 0.07000
H 	H 	0.64560 0.38010 0.80250 -0.05600
C 	C 	0.70280 0.50010 0.94170 -0.01900
H 	H 	0.72840 0.51140 0.98480 -0.03900
C 	C 	0.66500 0.56650 0.91600 -0.02300
H 	H 	0.65920 0.63200 0.93780 0.01500
Zn	Zn	0.75146 0.27299 0.89419 1.05100
N 	N 	0.80296 0.13520 0.88890 -0.31300
N 	N 	0.86692 0.02010 0.91250 -0.11200
N 	N 	0.13512 0.02210 0.85110 -0.11300
N 	N 	0.19865 0.91050 0.89470 -0.31500
C 	C 	0.84800 0.11220 0.93170 0.07500
H 	H 	0.86470 0.15600 0.97110 -0.06000
C 	C 	0.83160 0.97850 0.85370 -0.02200
H 	H 	0.83390 0.91410 0.82820 0.00100
C 	C 	0.79270 0.04930 0.83970 -0.02000
H 	H 	0.76320 0.04140 0.80220 -0.04800
C 	C 	0.91630 0.97070 0.94830 -0.12500
H 	H 	0.92580 0.99510 0.00080 0.07100
H 	H 	0.91210 0.89330 0.94910 0.05500
C 	C 	0.95890 0.99720 0.90770 0.04900
C 	C 	0.97500 0.10180 0.90020 -0.07100
H 	H 	0.95840 0.15800 0.91910 0.03400
C 	C 	0.01520 0.12400 0.86530 -0.08000
H 	H 	0.02430 0.19510 0.85900 0.03200
C 	C 	0.04250 0.04150 0.83900 0.05300
C 	C 	0.02600 0.93610 0.84710 -0.07200
H 	H 	0.04330 0.87950 0.82970 0.03600
C 	C 	0.98490 0.91410 0.88010 -0.07700
H 	H 	0.97450 0.84340 0.88400 0.03100
C 	C 	0.08710 0.06300 0.80390 -0.12500
H 	H 	0.09020 0.13980 0.79690 0.05000
H 	H 	0.08160 0.02940 0.75400 0.06700
C 	C 	0.15780 0.92790 0.84210 0.06900
H 	H 	0.14560 0.88010 0.80250 -0.05600
C 	C 	0.20280 0.00010 0.94170 -0.01900
H 	H 	0.22840 0.01140 0.98480 -0.03900
C 	C 	0.16500 0.06650 0.91600 -0.02300
H 	H 	0.15920 0.13200 0.93780 0.01600
Zn	Zn	0.74854 0.77299 0.60581 1.05100
N 	N 	0.69704 0.63520 0.61110 -0.31300
N 	N 	0.63308 0.52010 0.58750 -0.11300
N 	N 	0.36488 0.52210 0.64890 -0.11300
N 	N 	0.30135 0.41050 0.60530 -0.31500
C 	C 	0.65200 0.61220 0.56830 0.07500
H 	H 	0.63530 0.65600 0.52890 -0.06100
C 	C 	0.66840 0.47850 0.64630 -0.02000
H 	H 	0.66610 0.41410 0.67180 0.00100
C 	C 	0.70730 0.54930 0.66030 -0.02100
H 	H 	0.73680 0.54140 0.69780 -0.04700
C 	C 	0.58370 0.47070 0.55170 -0.12500
H 	H 	0.57420 0.49510 0.49920 0.07100
H 	H 	0.58790 0.39330 0.55090 0.05400
C 	C 	0.54110 0.49720 0.59230 0.05100
C 	C 	0.52500 0.60180 0.59980 -0.07300
H 	H 	0.54160 0.65800 0.58090 0.03500
C 	C 	0.48480 0.62400 0.63470 -0.07700
H 	H 	0.47570 0.69510 0.64100 0.03100
C 	C 	0.45750 0.54150 0.66100 0.05100
C 	C 	0.47400 0.43610 0.65290 -0.07000
H 	H 	0.45670 0.37950 0.67030 0.03500
C 	C 	0.51510 0.41410 0.61990 -0.07900
H 	H 	0.52550 0.34340 0.61600 0.03200
C 	C 	0.41290 0.56300 0.69610 -0.12400
H 	H 	0.40980 0.63980 0.70310 0.05000
H 	H 	0.41840 0.52940 0.74600 0.06700
C 	C 	0.34220 0.42790 0.65790 0.07000
H 	H 	0.35440 0.38010 0.69750 -0.05600
C 	C 	0.29720 0.50010 0.55830 -0.01900
H 	H 	0.27160 0.51140 0.51520 -0.03900
C 	C 	0.33500 0.56650 0.58400 -0.02300
H 	H 	0.34080 0.63200 0.56220 0.01500
Zn	Zn	0.24854 0.27299 0.60581 1.05100
N 	N 	0.19704 0.13520 0.61110 -0.31300
N 	N 	0.13308 0.02010 0.58750 -0.11300
N 	N 	0.86488 0.02210 0.64890 -0.11300
N 	N 	0.80135 0.91050 0.60530 -0.31500
C 	C 	0.15200 0.11220 0.56830 0.07500
H 	H 	0.13530 0.15600 0.52890 -0.06100
C 	C 	0.16840 0.97850 0.64630 -0.02100
H 	H 	0.16610 0.91410 0.67180 0.00100
C 	C 	0.20730 0.04930 0.66030 -0.02100
H 	H 	0.23680 0.04140 0.69780 -0.04700
C 	C 	0.08370 0.97070 0.55170 -0.12500
H 	H 	0.07420 0.99510 0.49920 0.07100
H 	H 	0.08790 0.89330 0.55090 0.05400
C 	C 	0.04110 0.99720 0.59230 0.05000
C 	C 	0.02500 0.10180 0.59980 -0.07300
H 	H 	0.04160 0.15800 0.58090 0.03500
C 	C 	0.98480 0.12400 0.63470 -0.07800
H 	H 	0.97570 0.19510 0.64100 0.03100
C 	C 	0.95750 0.04150 0.66100 0.05200
C 	C 	0.97400 0.93610 0.65290 -0.07000
H 	H 	0.95670 0.87950 0.67030 0.03500
C 	C 	0.01510 0.91410 0.61990 -0.07900
H 	H 	0.02550 0.84340 0.61600 0.03200
C 	C 	0.91290 0.06300 0.69610 -0.12400
H 	H 	0.90980 0.13980 0.70310 0.05000
H 	H 	0.91840 0.02940 0.74600 0.06700
C 	C 	0.84220 0.92790 0.65790 0.06900
H 	H 	0.85440 0.88010 0.69750 -0.05600
C 	C 	0.79720 0.00010 0.55830 -0.01900
H 	H 	0.77160 0.01140 0.51520 -0.03900
C 	C 	0.83500 0.06650 0.58400 -0.02300
H 	H 	0.84080 0.13200 0.56220 0.01500
