data_crystal

_cell_length_a 11.79920
_cell_length_b 11.86060
_cell_length_c 13.63010
_cell_angle_alpha 95.26300
_cell_angle_beta  108.54700
_cell_angle_gamma 108.08100

_symmetry_space_group_name_	'P 1'
_symmetry_space_group_name_H-M	'P 1'

loop_
_symmetry_equiv_pos_as_xyz
  x,y,z

loop_
_atom_site_label
_atom_site_type_symbol
_atom_site_fract_x
_atom_site_fract_y
_atom_site_fract_z
_atom_site_charge
Ce	Ce	0.00139 0.99780 0.74980 2.13700
Ce	Ce	0.37253 0.35864 0.61235 2.02300
Ce	Ce	0.99861 0.00220 0.25020 2.13700
Ce	Ce	0.62747 0.64136 0.38765 2.02300
H 	H 	0.61920 0.19520 0.69370 0.02700
H 	H 	0.46900 0.83310 0.58400 0.04000
H 	H 	0.53370 0.16990 0.86370 0.04500
H 	H 	0.39660 0.81560 0.86970 0.05500
H 	H 	0.23210 0.92540 0.51210 0.32500
H 	H 	0.70570 0.89750 0.95410 0.32200
H 	H 	0.13090 0.50330 0.39950 0.12100
H 	H 	0.16830 0.38860 0.38430 0.08800
H 	H 	0.44330 0.60800 0.53330 0.31700
H 	H 	0.15900 0.41900 0.22300 0.17300
H 	H 	0.12700 0.51700 0.23200 0.20000
H 	H 	0.38080 0.80480 0.30630 0.02800
H 	H 	0.53100 0.16690 0.41600 0.04100
H 	H 	0.46630 0.83010 0.13630 0.04500
H 	H 	0.60340 0.18440 0.13030 0.05500
H 	H 	0.76790 0.07460 0.48790 0.32500
H 	H 	0.29430 0.10250 0.04590 0.32200
H 	H 	0.86910 0.49670 0.60050 0.12100
H 	H 	0.83170 0.61140 0.61570 0.08800
H 	H 	0.55670 0.39200 0.46670 0.31700
H 	H 	0.84100 0.58100 0.77700 0.17300
H 	H 	0.87300 0.48300 0.76800 0.20000
C 	C 	0.74810 0.11050 0.71523 -0.03200
C 	C 	0.62810 0.12040 0.68231 0.04500
C 	C 	0.52220 0.01520 0.63184 -0.12400
C 	C 	0.53910 0.90510 0.61514 0.04300
C 	C 	0.66300 0.90500 0.64600 -0.06200
C 	C 	0.86960 0.21710 0.77721 0.32800
C 	C 	0.39120 0.02340 0.59210 0.46200
C 	C 	0.69530 0.79460 0.62085 0.33100
C 	C 	0.34100 0.09600 0.82179 -0.03600
C 	C 	0.46600 0.09880 0.85472 0.03000
C 	C 	0.48760 0.99300 0.87390 -0.09100
C 	C 	0.38470 0.88820 0.85929 0.02000
C 	C 	0.26300 0.89490 0.82860 -0.03700
C 	C 	0.30400 0.20220 0.79193 0.33600
C 	C 	0.62380 0.99730 0.91392 0.37900
C 	C 	0.14370 0.78900 0.81363 0.32600
C 	C 	0.06920 0.04620 0.02386 0.24200
C 	C 	0.04170 0.96040 0.50853 0.20100
C 	C 	0.31610 0.54720 0.40910 0.49400
C 	C 	0.17720 0.46760 0.36680 -0.28800
C 	C 	0.25190 0.88950 0.28477 -0.03200
C 	C 	0.37190 0.87960 0.31769 0.04500
C 	C 	0.47780 0.98480 0.36816 -0.12400
C 	C 	0.46090 0.09490 0.38486 0.04300
C 	C 	0.33700 0.09500 0.35400 -0.06200
C 	C 	0.13040 0.78290 0.22279 0.32800
C 	C 	0.60880 0.97660 0.40790 0.46200
C 	C 	0.30470 0.20540 0.37915 0.33100
C 	C 	0.65900 0.90400 0.17821 -0.03600
C 	C 	0.53400 0.90120 0.14528 0.03000
C 	C 	0.51240 0.00700 0.12610 -0.09100
C 	C 	0.61530 0.11180 0.14071 0.02000
C 	C 	0.73700 0.10510 0.17140 -0.03700
C 	C 	0.69600 0.79780 0.20807 0.33600
C 	C 	0.37620 0.00270 0.08608 0.37900
C 	C 	0.85630 0.21100 0.18637 0.32600
C 	C 	0.93080 0.95380 0.97614 0.24200
C 	C 	0.95830 0.03960 0.49147 0.20100
C 	C 	0.68390 0.45280 0.59090 0.49400
C 	C 	0.82280 0.53240 0.63320 -0.28800
N 	N 	0.76529 0.00610 0.69559 -0.17500
N 	N 	0.24206 0.99663 0.81087 -0.18600
N 	N 	0.12240 0.45330 0.25130 -0.26000
N 	N 	0.23471 0.99390 0.30441 -0.17500
N 	N 	0.75794 0.00337 0.18913 -0.18600
N 	N 	0.87760 0.54670 0.74870 -0.26000
O 	O 	0.97146 0.19405 0.80640 -0.40400
O 	O 	0.86206 0.31774 0.79852 -0.24300
O 	O 	0.30230 0.91820 0.53250 -0.51600
O 	O 	0.37323 0.11745 0.59987 -0.48500
O 	O 	0.60704 0.69379 0.58055 -0.49400
O 	O 	0.81129 0.81277 0.63949 -0.50700
O 	O 	0.18645 0.18515 0.75972 -0.47300
O 	O 	0.38938 0.29929 0.79795 -0.46500
O 	O 	0.63057 0.89201 0.93243 -0.49100
O 	O 	0.71394 0.08856 0.92992 -0.26500
O 	O 	0.15311 0.68762 0.82109 -0.23800
O 	O 	0.04216 0.80995 0.79442 -0.42500
O 	O 	0.12415 0.07717 0.95997 -0.37100
O 	O 	0.11602 0.08231 0.12216 -0.37000
O 	O 	0.06959 0.92908 0.59519 -0.40800
O 	O 	0.07610 0.93507 0.43381 -0.41400
O 	O 	0.36759 0.56417 0.51282 -0.73400
O 	O 	0.37202 0.58897 0.35370 -0.51700
O 	O 	0.02854 0.80595 0.19360 -0.40400
O 	O 	0.13794 0.68226 0.20148 -0.24300
O 	O 	0.69770 0.08180 0.46750 -0.51600
O 	O 	0.62677 0.88255 0.40013 -0.48500
O 	O 	0.39296 0.30621 0.41945 -0.49400
O 	O 	0.18871 0.18723 0.36051 -0.50700
O 	O 	0.81355 0.81485 0.24028 -0.47300
O 	O 	0.61062 0.70071 0.20205 -0.46500
O 	O 	0.36943 0.10799 0.06757 -0.49100
O 	O 	0.28606 0.91144 0.07008 -0.26500
O 	O 	0.84689 0.31238 0.17891 -0.23800
O 	O 	0.95784 0.19005 0.20558 -0.42500
O 	O 	0.87585 0.92283 0.04003 -0.37100
O 	O 	0.88398 0.91769 0.87784 -0.37000
O 	O 	0.93041 0.07092 0.40481 -0.40800
O 	O 	0.92390 0.06493 0.56619 -0.41400
O 	O 	0.63241 0.43583 0.48718 -0.73400
O 	O 	0.62798 0.41103 0.64630 -0.51700
