data_crystal

_cell_length_a 21.78100
_cell_length_b 21.78100
_cell_length_c 16.10100
_cell_angle_alpha 90.00000
_cell_angle_beta  90.00000
_cell_angle_gamma 90.00000

_symmetry_space_group_name_	'P 1'
_symmetry_space_group_name_H-M	'P 1'

loop_
_symmetry_equiv_pos_as_xyz
  x,y,z

loop_
_atom_site_label
_atom_site_type_symbol
_atom_site_fract_x
_atom_site_fract_y
_atom_site_fract_z
_atom_site_charge
Er	Er	0.88335 0.41620 0.12396 1.38300
O 	O 	0.77700 0.42680 0.15270 -0.44500
O 	O 	0.74510 0.38910 0.27450 -0.45800
O 	O 	0.47570 0.41400 0.30260 -0.47700
O 	O 	0.55930 0.37380 0.36160 -0.45500
N 	N 	0.63150 0.41850 0.24780 -0.16800
C 	C 	0.67160 0.43670 0.19010 -0.05900
C 	C 	0.65390 0.47000 0.12200 -0.01000
H 	H 	0.68240 0.48120 0.08180 0.02800
C 	C 	0.59250 0.48690 0.11410 -0.07700
H 	H 	0.57950 0.51080 0.06960 0.04200
C 	C 	0.55150 0.46740 0.17370 -0.00200
H 	H 	0.51020 0.47780 0.16980 0.01700
C 	C 	0.57240 0.43190 0.23960 -0.07400
C 	C 	0.73710 0.41620 0.20570 0.37700
C 	C 	0.53220 0.40520 0.30580 0.38200
Er	Er	0.38335 0.91620 0.62396 1.38200
O 	O 	0.27700 0.92680 0.65270 -0.44600
O 	O 	0.24510 0.88910 0.77450 -0.45900
O 	O 	0.97570 0.91400 0.80260 -0.47800
O 	O 	0.05930 0.87380 0.86160 -0.45500
N 	N 	0.13150 0.91850 0.74780 -0.16800
C 	C 	0.17160 0.93670 0.69010 -0.05900
C 	C 	0.15390 0.97000 0.62200 -0.01000
H 	H 	0.18240 0.98120 0.58180 0.02800
C 	C 	0.09250 0.98690 0.61410 -0.07600
H 	H 	0.07950 0.01080 0.56960 0.04100
C 	C 	0.05150 0.96740 0.67370 -0.00200
H 	H 	0.01020 0.97780 0.66980 0.01700
C 	C 	0.07240 0.93190 0.73960 -0.07400
C 	C 	0.23710 0.91620 0.70570 0.37700
C 	C 	0.03220 0.90520 0.80580 0.38200
Er	Er	0.61665 0.58380 0.62396 1.38200
O 	O 	0.72300 0.57320 0.65270 -0.44600
O 	O 	0.75490 0.61090 0.77450 -0.45900
O 	O 	0.02430 0.58600 0.80260 -0.47800
O 	O 	0.94070 0.62620 0.86160 -0.45500
N 	N 	0.86850 0.58150 0.74780 -0.16800
C 	C 	0.82840 0.56330 0.69010 -0.05900
C 	C 	0.84610 0.53000 0.62200 -0.01000
H 	H 	0.81760 0.51880 0.58180 0.02800
C 	C 	0.90750 0.51310 0.61410 -0.07700
H 	H 	0.92050 0.48920 0.56960 0.04200
C 	C 	0.94850 0.53260 0.67370 -0.00200
H 	H 	0.98980 0.52220 0.66980 0.01700
C 	C 	0.92760 0.56810 0.73960 -0.07400
C 	C 	0.76290 0.58380 0.70570 0.37700
C 	C 	0.96780 0.59480 0.80580 0.38200
Er	Er	0.11665 0.08380 0.12396 1.38200
O 	O 	0.22300 0.07320 0.15270 -0.44600
O 	O 	0.25490 0.11090 0.27450 -0.45900
O 	O 	0.52430 0.08600 0.30260 -0.47800
O 	O 	0.44070 0.12620 0.36160 -0.45500
N 	N 	0.36850 0.08150 0.24780 -0.16800
C 	C 	0.32840 0.06330 0.19010 -0.05900
C 	C 	0.34610 0.03000 0.12200 -0.01100
H 	H 	0.31760 0.01880 0.08180 0.02900
C 	C 	0.40750 0.01310 0.11410 -0.07500
H 	H 	0.42050 0.98920 0.06960 0.04100
C 	C 	0.44850 0.03260 0.17370 -0.00300
H 	H 	0.48980 0.02220 0.16980 0.01700
C 	C 	0.42760 0.06810 0.23960 -0.07400
C 	C 	0.26290 0.08380 0.20570 0.37700
C 	C 	0.46780 0.09480 0.30580 0.38200
Er	Er	0.33380 0.13335 0.37396 1.38200
O 	O 	0.32320 0.02700 0.40270 -0.44600
O 	O 	0.36090 0.99510 0.52450 -0.45900
O 	O 	0.33600 0.72570 0.55260 -0.47800
O 	O 	0.37620 0.80930 0.61160 -0.45500
N 	N 	0.33150 0.88150 0.49780 -0.16800
C 	C 	0.31330 0.92160 0.44010 -0.05900
C 	C 	0.28000 0.90390 0.37200 -0.01000
H 	H 	0.26880 0.93240 0.33180 0.02800
C 	C 	0.26310 0.84250 0.36410 -0.07700
H 	H 	0.23920 0.82950 0.31960 0.04200
C 	C 	0.28260 0.80150 0.42370 -0.00200
H 	H 	0.27220 0.76020 0.41980 0.01700
C 	C 	0.31810 0.82240 0.48960 -0.07400
C 	C 	0.33380 0.98710 0.45570 0.37700
C 	C 	0.34480 0.78220 0.55580 0.38200
Er	Er	0.83380 0.63335 0.87396 1.38200
O 	O 	0.82320 0.52700 0.90270 -0.44600
O 	O 	0.86090 0.49510 0.02450 -0.45900
O 	O 	0.83600 0.22570 0.05260 -0.47800
O 	O 	0.87620 0.30930 0.11160 -0.45500
N 	N 	0.83150 0.38150 0.99780 -0.16800
C 	C 	0.81330 0.42160 0.94010 -0.06000
C 	C 	0.78000 0.40390 0.87200 -0.01000
H 	H 	0.76880 0.43240 0.83180 0.02800
C 	C 	0.76310 0.34250 0.86410 -0.07700
H 	H 	0.73920 0.32950 0.81960 0.04200
C 	C 	0.78260 0.30150 0.92370 -0.00200
H 	H 	0.77220 0.26020 0.91980 0.01700
C 	C 	0.81810 0.32240 0.98960 -0.07500
C 	C 	0.83380 0.48710 0.95570 0.37700
C 	C 	0.84480 0.28220 0.05580 0.38200
Er	Er	0.16620 0.86665 0.87396 1.38200
O 	O 	0.17680 0.97300 0.90270 -0.44500
O 	O 	0.13910 0.00490 0.02450 -0.45800
O 	O 	0.16400 0.27430 0.05260 -0.47800
O 	O 	0.12380 0.19070 0.11160 -0.45500
N 	N 	0.16850 0.11850 0.99780 -0.16800
C 	C 	0.18670 0.07840 0.94010 -0.05900
C 	C 	0.22000 0.09610 0.87200 -0.01000
H 	H 	0.23120 0.06760 0.83180 0.02800
C 	C 	0.23690 0.15750 0.86410 -0.07700
H 	H 	0.26080 0.17050 0.81960 0.04200
C 	C 	0.21740 0.19850 0.92370 -0.00200
H 	H 	0.22780 0.23980 0.91980 0.01700
C 	C 	0.18190 0.17760 0.98960 -0.07500
C 	C 	0.16620 0.01290 0.95570 0.37600
C 	C 	0.15520 0.21780 0.05580 0.38200
Er	Er	0.66620 0.36665 0.37396 1.38200
O 	O 	0.67680 0.47300 0.40270 -0.44600
O 	O 	0.63910 0.50490 0.52450 -0.45900
O 	O 	0.66400 0.77430 0.55260 -0.47800
O 	O 	0.62380 0.69070 0.61160 -0.45500
N 	N 	0.66850 0.61850 0.49780 -0.16800
C 	C 	0.68670 0.57840 0.44010 -0.05900
C 	C 	0.72000 0.59610 0.37200 -0.01000
H 	H 	0.73120 0.56760 0.33180 0.02800
C 	C 	0.73690 0.65750 0.36410 -0.07700
H 	H 	0.76080 0.67050 0.31960 0.04200
C 	C 	0.71740 0.69850 0.42370 -0.00200
H 	H 	0.72780 0.73980 0.41980 0.01700
C 	C 	0.68190 0.67760 0.48960 -0.07400
C 	C 	0.66620 0.51290 0.45570 0.37700
C 	C 	0.65520 0.71780 0.55580 0.38200
Er	Er	0.11665 0.58380 0.87604 1.38200
O 	O 	0.22300 0.57320 0.84730 -0.44600
O 	O 	0.25490 0.61090 0.72550 -0.45900
O 	O 	0.52430 0.58600 0.69740 -0.47800
O 	O 	0.44070 0.62620 0.63840 -0.45500
N 	N 	0.36850 0.58150 0.75220 -0.16800
C 	C 	0.32840 0.56330 0.80990 -0.05900
C 	C 	0.34610 0.53000 0.87800 -0.01000
H 	H 	0.31760 0.51880 0.91820 0.02800
C 	C 	0.40750 0.51310 0.88590 -0.07700
H 	H 	0.42050 0.48920 0.93040 0.04200
C 	C 	0.44850 0.53260 0.82630 -0.00200
H 	H 	0.48980 0.52220 0.83020 0.01700
C 	C 	0.42760 0.56810 0.76040 -0.07400
C 	C 	0.26290 0.58380 0.79430 0.37700
C 	C 	0.46780 0.59480 0.69420 0.38200
Er	Er	0.61665 0.08380 0.37604 1.38200
O 	O 	0.72300 0.07320 0.34730 -0.44600
O 	O 	0.75490 0.11090 0.22550 -0.45900
O 	O 	0.02430 0.08600 0.19740 -0.47800
O 	O 	0.94070 0.12620 0.13840 -0.45500
N 	N 	0.86850 0.08150 0.25220 -0.16800
C 	C 	0.82840 0.06330 0.30990 -0.05900
C 	C 	0.84610 0.03000 0.37800 -0.01000
H 	H 	0.81760 0.01880 0.41820 0.02800
C 	C 	0.90750 0.01310 0.38590 -0.07600
H 	H 	0.92050 0.98920 0.43040 0.04100
C 	C 	0.94850 0.03260 0.32630 -0.00200
H 	H 	0.98980 0.02220 0.33020 0.01700
C 	C 	0.92760 0.06810 0.26040 -0.07400
C 	C 	0.76290 0.08380 0.29430 0.37700
C 	C 	0.96780 0.09480 0.19420 0.38200
Er	Er	0.38335 0.41620 0.37604 1.38200
O 	O 	0.27700 0.42680 0.34730 -0.44600
O 	O 	0.24510 0.38910 0.22550 -0.45900
O 	O 	0.97570 0.41400 0.19740 -0.47800
O 	O 	0.05930 0.37380 0.13840 -0.45500
N 	N 	0.13150 0.41850 0.25220 -0.16800
C 	C 	0.17160 0.43670 0.30990 -0.05900
C 	C 	0.15390 0.47000 0.37800 -0.01000
H 	H 	0.18240 0.48120 0.41820 0.02800
C 	C 	0.09250 0.48690 0.38590 -0.07700
H 	H 	0.07950 0.51080 0.43040 0.04200
C 	C 	0.05150 0.46740 0.32630 -0.00200
H 	H 	0.01020 0.47780 0.33020 0.01700
C 	C 	0.07240 0.43190 0.26040 -0.07400
C 	C 	0.23710 0.41620 0.29430 0.37700
C 	C 	0.03220 0.40520 0.19420 0.38200
Er	Er	0.88335 0.91620 0.87604 1.38200
O 	O 	0.77700 0.92680 0.84730 -0.44600
O 	O 	0.74510 0.88910 0.72550 -0.45900
O 	O 	0.47570 0.91400 0.69740 -0.47800
O 	O 	0.55930 0.87380 0.63840 -0.45500
N 	N 	0.63150 0.91850 0.75220 -0.16800
C 	C 	0.67160 0.93670 0.80990 -0.05900
C 	C 	0.65390 0.97000 0.87800 -0.01100
H 	H 	0.68240 0.98120 0.91820 0.02900
C 	C 	0.59250 0.98690 0.88590 -0.07500
H 	H 	0.57950 0.01080 0.93040 0.04100
C 	C 	0.55150 0.96740 0.82630 -0.00300
H 	H 	0.51020 0.97780 0.83020 0.01700
C 	C 	0.57240 0.93190 0.76040 -0.07400
C 	C 	0.73710 0.91620 0.79430 0.37700
C 	C 	0.53220 0.90520 0.69420 0.38200
Er	Er	0.66620 0.86665 0.62604 1.38200
O 	O 	0.67680 0.97300 0.59730 -0.44600
O 	O 	0.63910 0.00490 0.47550 -0.45900
O 	O 	0.66400 0.27430 0.44740 -0.47800
O 	O 	0.62380 0.19070 0.38840 -0.45500
N 	N 	0.66850 0.11850 0.50220 -0.16800
C 	C 	0.68670 0.07840 0.55990 -0.05900
C 	C 	0.72000 0.09610 0.62800 -0.01000
H 	H 	0.73120 0.06760 0.66820 0.02800
C 	C 	0.73690 0.15750 0.63590 -0.07700
H 	H 	0.76080 0.17050 0.68040 0.04200
C 	C 	0.71740 0.19850 0.57630 -0.00200
H 	H 	0.72780 0.23980 0.58020 0.01700
C 	C 	0.68190 0.17760 0.51040 -0.07400
C 	C 	0.66620 0.01290 0.54430 0.37700
C 	C 	0.65520 0.21780 0.44420 0.38200
Er	Er	0.16620 0.36665 0.12604 1.38200
O 	O 	0.17680 0.47300 0.09730 -0.44600
O 	O 	0.13910 0.50490 0.97550 -0.45900
O 	O 	0.16400 0.77430 0.94740 -0.47800
O 	O 	0.12380 0.69070 0.88840 -0.45500
N 	N 	0.16850 0.61850 0.00220 -0.16800
C 	C 	0.18670 0.57840 0.05990 -0.06000
C 	C 	0.22000 0.59610 0.12800 -0.01000
H 	H 	0.23120 0.56760 0.16820 0.02800
C 	C 	0.23690 0.65750 0.13590 -0.07700
H 	H 	0.26080 0.67050 0.18040 0.04200
C 	C 	0.21740 0.69850 0.07630 -0.00200
H 	H 	0.22780 0.73980 0.08020 0.01700
C 	C 	0.18190 0.67760 0.01040 -0.07500
C 	C 	0.16620 0.51290 0.04430 0.37700
C 	C 	0.15520 0.71780 0.94420 0.38200
Er	Er	0.83380 0.13335 0.12604 1.38200
O 	O 	0.82320 0.02700 0.09730 -0.44500
O 	O 	0.86090 0.99510 0.97550 -0.45800
O 	O 	0.83600 0.72570 0.94740 -0.47800
O 	O 	0.87620 0.80930 0.88840 -0.45500
N 	N 	0.83150 0.88150 0.00220 -0.16800
C 	C 	0.81330 0.92160 0.05990 -0.05900
C 	C 	0.78000 0.90390 0.12800 -0.01000
H 	H 	0.76880 0.93240 0.16820 0.02800
C 	C 	0.76310 0.84250 0.13590 -0.07700
H 	H 	0.73920 0.82950 0.18040 0.04200
C 	C 	0.78260 0.80150 0.07630 -0.00200
H 	H 	0.77220 0.76020 0.08020 0.01700
C 	C 	0.81810 0.82240 0.01040 -0.07500
C 	C 	0.83380 0.98710 0.04430 0.37600
C 	C 	0.84480 0.78220 0.94420 0.38200
Er	Er	0.33380 0.63335 0.62604 1.38200
O 	O 	0.32320 0.52700 0.59730 -0.44600
O 	O 	0.36090 0.49510 0.47550 -0.45900
O 	O 	0.33600 0.22570 0.44740 -0.47800
O 	O 	0.37620 0.30930 0.38840 -0.45500
N 	N 	0.33150 0.38150 0.50220 -0.16800
C 	C 	0.31330 0.42160 0.55990 -0.05900
C 	C 	0.28000 0.40390 0.62800 -0.01000
H 	H 	0.26880 0.43240 0.66820 0.02800
C 	C 	0.26310 0.34250 0.63590 -0.07700
H 	H 	0.23920 0.32950 0.68040 0.04200
C 	C 	0.28260 0.30150 0.57630 -0.00200
H 	H 	0.27220 0.26020 0.58020 0.01700
C 	C 	0.31810 0.32240 0.51040 -0.07400
C 	C 	0.33380 0.48710 0.54430 0.37700
C 	C 	0.34480 0.28220 0.44420 0.38200
