data_crystal

_cell_length_a 21.81080
_cell_length_b 21.81080
_cell_length_c 16.09530
_cell_angle_alpha 90.00000
_cell_angle_beta  90.00000
_cell_angle_gamma 90.00000

_symmetry_space_group_name_	'P 1'
_symmetry_space_group_name_H-M	'P 1'

loop_
_symmetry_equiv_pos_as_xyz
  x,y,z

loop_
_atom_site_label
_atom_site_type_symbol
_atom_site_fract_x
_atom_site_fract_y
_atom_site_fract_z
_atom_site_charge
Dy	Dy	0.88384 0.41659 0.12352 1.45400
O 	O 	0.86090 0.49540 0.02330 -0.47000
O 	O 	0.82290 0.52690 0.90200 -0.45200
O 	O 	0.87620 0.30890 0.11010 -0.47300
O 	O 	0.83550 0.22600 0.05240 -0.49700
N 	N 	0.83220 0.38180 0.99600 -0.17100
C 	C 	0.81780 0.32290 0.98810 -0.07900
C 	C 	0.78310 0.30140 0.92220 0.00100
H 	H 	0.77330 0.26010 0.91770 0.01300
C 	C 	0.76350 0.34290 0.86380 -0.08100
H 	H 	0.73920 0.32980 0.81970 0.04100
C 	C 	0.77970 0.40370 0.87040 -0.00500
H 	H 	0.76780 0.43190 0.83030 0.02400
C 	C 	0.81420 0.42160 0.93840 -0.06800
C 	C 	0.83400 0.48610 0.95430 0.37500
C 	C 	0.84500 0.28230 0.05480 0.39400
Dy	Dy	0.38384 0.91659 0.62352 1.45300
O 	O 	0.36090 0.99540 0.52330 -0.47100
O 	O 	0.32290 0.02690 0.40200 -0.45300
O 	O 	0.37620 0.80890 0.61010 -0.47400
O 	O 	0.33550 0.72600 0.55240 -0.49800
N 	N 	0.33220 0.88180 0.49600 -0.17200
C 	C 	0.31780 0.82290 0.48810 -0.08000
C 	C 	0.28310 0.80140 0.42220 0.00000
H 	H 	0.27330 0.76010 0.41770 0.01300
C 	C 	0.26350 0.84290 0.36380 -0.08100
H 	H 	0.23920 0.82980 0.31970 0.04100
C 	C 	0.27970 0.90370 0.37040 -0.00500
H 	H 	0.26780 0.93190 0.33030 0.02400
C 	C 	0.31420 0.92160 0.43840 -0.06800
C 	C 	0.33400 0.98610 0.45430 0.37500
C 	C 	0.34500 0.78230 0.55480 0.39400
Dy	Dy	0.61616 0.58341 0.62352 1.45300
O 	O 	0.63910 0.50460 0.52330 -0.47000
O 	O 	0.67710 0.47310 0.40200 -0.45300
O 	O 	0.62380 0.69110 0.61010 -0.47400
O 	O 	0.66450 0.77400 0.55240 -0.49800
N 	N 	0.66780 0.61820 0.49600 -0.17200
C 	C 	0.68220 0.67710 0.48810 -0.08000
C 	C 	0.71690 0.69860 0.42220 0.00000
H 	H 	0.72670 0.73990 0.41770 0.01300
C 	C 	0.73650 0.65710 0.36380 -0.08100
H 	H 	0.76080 0.67020 0.31970 0.04100
C 	C 	0.72030 0.59630 0.37040 -0.00500
H 	H 	0.73220 0.56810 0.33030 0.02400
C 	C 	0.68580 0.57840 0.43840 -0.06700
C 	C 	0.66600 0.51390 0.45430 0.37500
C 	C 	0.65500 0.71770 0.55480 0.39400
Dy	Dy	0.11616 0.08341 0.12352 1.45300
O 	O 	0.13910 0.00460 0.02330 -0.47000
O 	O 	0.17710 0.97310 0.90200 -0.45200
O 	O 	0.12380 0.19110 0.11010 -0.47400
O 	O 	0.16450 0.27400 0.05240 -0.49800
N 	N 	0.16780 0.11820 0.99600 -0.17200
C 	C 	0.18220 0.17710 0.98810 -0.08000
C 	C 	0.21690 0.19860 0.92220 0.00000
H 	H 	0.22670 0.23990 0.91770 0.01300
C 	C 	0.23650 0.15710 0.86380 -0.08100
H 	H 	0.26080 0.17020 0.81970 0.04100
C 	C 	0.22030 0.09630 0.87040 -0.00500
H 	H 	0.23220 0.06810 0.83030 0.02400
C 	C 	0.18580 0.07840 0.93840 -0.06700
C 	C 	0.16600 0.01390 0.95430 0.37400
C 	C 	0.15500 0.21770 0.05480 0.39400
Dy	Dy	0.33341 0.13384 0.37352 1.45300
O 	O 	0.25460 0.11090 0.27330 -0.47000
O 	O 	0.22310 0.07290 0.15200 -0.45300
O 	O 	0.44110 0.12620 0.36010 -0.47400
O 	O 	0.52400 0.08550 0.30240 -0.49800
N 	N 	0.36820 0.08220 0.24600 -0.17200
C 	C 	0.42710 0.06780 0.23810 -0.08000
C 	C 	0.44860 0.03310 0.17220 -0.00100
H 	H 	0.48990 0.02330 0.16770 0.01300
C 	C 	0.40710 0.01350 0.11380 -0.07900
H 	H 	0.42020 0.98920 0.06970 0.04000
C 	C 	0.34630 0.02970 0.12040 -0.00600
H 	H 	0.31810 0.01780 0.08030 0.02500
C 	C 	0.32840 0.06420 0.18840 -0.06700
C 	C 	0.26390 0.08400 0.20430 0.37500
C 	C 	0.46770 0.09500 0.30480 0.39400
Dy	Dy	0.83341 0.63384 0.87352 1.45300
O 	O 	0.75460 0.61090 0.77330 -0.47000
O 	O 	0.72310 0.57290 0.65200 -0.45300
O 	O 	0.94110 0.62620 0.86010 -0.47400
O 	O 	0.02400 0.58550 0.80240 -0.49800
N 	N 	0.86820 0.58220 0.74600 -0.17200
C 	C 	0.92710 0.56780 0.73810 -0.08000
C 	C 	0.94860 0.53310 0.67220 0.00000
H 	H 	0.98990 0.52330 0.66770 0.01300
C 	C 	0.90710 0.51350 0.61380 -0.08100
H 	H 	0.92020 0.48920 0.56970 0.04100
C 	C 	0.84630 0.52970 0.62040 -0.00500
H 	H 	0.81810 0.51780 0.58030 0.02400
C 	C 	0.82840 0.56420 0.68840 -0.06800
C 	C 	0.76390 0.58400 0.70430 0.37500
C 	C 	0.96770 0.59500 0.80480 0.39400
Dy	Dy	0.16659 0.86616 0.87352 1.45300
O 	O 	0.24540 0.88910 0.77330 -0.47000
O 	O 	0.27690 0.92710 0.65200 -0.45300
O 	O 	0.05890 0.87380 0.86010 -0.47400
O 	O 	0.97600 0.91450 0.80240 -0.49800
N 	N 	0.13180 0.91780 0.74600 -0.17200
C 	C 	0.07290 0.93220 0.73810 -0.08000
C 	C 	0.05140 0.96690 0.67220 -0.00000
H 	H 	0.01010 0.97670 0.66770 0.01300
C 	C 	0.09290 0.98650 0.61380 -0.08000
H 	H 	0.07980 0.01080 0.56970 0.04100
C 	C 	0.15370 0.97030 0.62040 -0.00500
H 	H 	0.18190 0.98220 0.58030 0.02400
C 	C 	0.17160 0.93580 0.68840 -0.06700
C 	C 	0.23610 0.91600 0.70430 0.37500
C 	C 	0.03230 0.90500 0.80480 0.39400
Dy	Dy	0.66659 0.36616 0.37352 1.45300
O 	O 	0.74540 0.38910 0.27330 -0.47000
O 	O 	0.77690 0.42710 0.15200 -0.45300
O 	O 	0.55890 0.37380 0.36010 -0.47400
O 	O 	0.47600 0.41450 0.30240 -0.49800
N 	N 	0.63180 0.41780 0.24600 -0.17200
C 	C 	0.57290 0.43220 0.23810 -0.08000
C 	C 	0.55140 0.46690 0.17220 0.00000
H 	H 	0.51010 0.47670 0.16770 0.01300
C 	C 	0.59290 0.48650 0.11380 -0.08100
H 	H 	0.57980 0.51080 0.06970 0.04100
C 	C 	0.65370 0.47030 0.12040 -0.00500
H 	H 	0.68190 0.48220 0.08030 0.02400
C 	C 	0.67160 0.43580 0.18840 -0.06700
C 	C 	0.73610 0.41600 0.20430 0.37500
C 	C 	0.53230 0.40500 0.30480 0.39400
Dy	Dy	0.11616 0.58341 0.87648 1.45300
O 	O 	0.13910 0.50460 0.97670 -0.47100
O 	O 	0.17710 0.47310 0.09800 -0.45300
O 	O 	0.12380 0.69110 0.88990 -0.47400
O 	O 	0.16450 0.77400 0.94760 -0.49800
N 	N 	0.16780 0.61820 0.00400 -0.17200
C 	C 	0.18220 0.67710 0.01190 -0.08000
C 	C 	0.21690 0.69860 0.07780 0.00000
H 	H 	0.22670 0.73990 0.08230 0.01300
C 	C 	0.23650 0.65710 0.13620 -0.08100
H 	H 	0.26080 0.67020 0.18030 0.04100
C 	C 	0.22030 0.59630 0.12960 -0.00500
H 	H 	0.23220 0.56810 0.16970 0.02400
C 	C 	0.18580 0.57840 0.06160 -0.06800
C 	C 	0.16600 0.51390 0.04570 0.37500
C 	C 	0.15500 0.71770 0.94520 0.39400
Dy	Dy	0.61616 0.08341 0.37648 1.45300
O 	O 	0.63910 0.00460 0.47670 -0.47100
O 	O 	0.67710 0.97310 0.59800 -0.45300
O 	O 	0.62380 0.19110 0.38990 -0.47400
O 	O 	0.66450 0.27400 0.44760 -0.49800
N 	N 	0.66780 0.11820 0.50400 -0.17200
C 	C 	0.68220 0.17710 0.51190 -0.08000
C 	C 	0.71690 0.19860 0.57780 0.00000
H 	H 	0.72670 0.23990 0.58230 0.01300
C 	C 	0.73650 0.15710 0.63620 -0.08100
H 	H 	0.76080 0.17020 0.68030 0.04100
C 	C 	0.72030 0.09630 0.62960 -0.00500
H 	H 	0.73220 0.06810 0.66970 0.02400
C 	C 	0.68580 0.07840 0.56160 -0.06800
C 	C 	0.66600 0.01390 0.54570 0.37500
C 	C 	0.65500 0.21770 0.44520 0.39400
Dy	Dy	0.38384 0.41659 0.37648 1.45300
O 	O 	0.36090 0.49540 0.47670 -0.47000
O 	O 	0.32290 0.52690 0.59800 -0.45300
O 	O 	0.37620 0.30890 0.38990 -0.47400
O 	O 	0.33550 0.22600 0.44760 -0.49800
N 	N 	0.33220 0.38180 0.50400 -0.17200
C 	C 	0.31780 0.32290 0.51190 -0.08000
C 	C 	0.28310 0.30140 0.57780 0.00000
H 	H 	0.27330 0.26010 0.58230 0.01300
C 	C 	0.26350 0.34290 0.63620 -0.08100
H 	H 	0.23920 0.32980 0.68030 0.04100
C 	C 	0.27970 0.40370 0.62960 -0.00500
H 	H 	0.26780 0.43190 0.66970 0.02400
C 	C 	0.31420 0.42160 0.56160 -0.06700
C 	C 	0.33400 0.48610 0.54570 0.37500
C 	C 	0.34500 0.28230 0.44520 0.39400
Dy	Dy	0.88384 0.91659 0.87648 1.45300
O 	O 	0.86090 0.99540 0.97670 -0.47000
O 	O 	0.82290 0.02690 0.09800 -0.45200
O 	O 	0.87620 0.80890 0.88990 -0.47400
O 	O 	0.83550 0.72600 0.94760 -0.49800
N 	N 	0.83220 0.88180 0.00400 -0.17200
C 	C 	0.81780 0.82290 0.01190 -0.08000
C 	C 	0.78310 0.80140 0.07780 0.00000
H 	H 	0.77330 0.76010 0.08230 0.01300
C 	C 	0.76350 0.84290 0.13620 -0.08100
H 	H 	0.73920 0.82980 0.18030 0.04100
C 	C 	0.77970 0.90370 0.12960 -0.00500
H 	H 	0.76780 0.93190 0.16970 0.02400
C 	C 	0.81420 0.92160 0.06160 -0.06700
C 	C 	0.83400 0.98610 0.04570 0.37400
C 	C 	0.84500 0.78230 0.94520 0.39400
Dy	Dy	0.66659 0.86616 0.62648 1.45300
O 	O 	0.74540 0.88910 0.72670 -0.47000
O 	O 	0.77690 0.92710 0.84800 -0.45300
O 	O 	0.55890 0.87380 0.63990 -0.47400
O 	O 	0.47600 0.91450 0.69760 -0.49800
N 	N 	0.63180 0.91780 0.75400 -0.17200
C 	C 	0.57290 0.93220 0.76190 -0.08000
C 	C 	0.55140 0.96690 0.82780 -0.00100
H 	H 	0.51010 0.97670 0.83230 0.01300
C 	C 	0.59290 0.98650 0.88620 -0.07900
H 	H 	0.57980 0.01080 0.93030 0.04000
C 	C 	0.65370 0.97030 0.87960 -0.00600
H 	H 	0.68190 0.98220 0.91970 0.02500
C 	C 	0.67160 0.93580 0.81160 -0.06700
C 	C 	0.73610 0.91600 0.79570 0.37500
C 	C 	0.53230 0.90500 0.69520 0.39400
Dy	Dy	0.16659 0.36616 0.12648 1.45300
O 	O 	0.24540 0.38910 0.22670 -0.47000
O 	O 	0.27690 0.42710 0.34800 -0.45300
O 	O 	0.05890 0.37380 0.13990 -0.47400
O 	O 	0.97600 0.41450 0.19760 -0.49800
N 	N 	0.13180 0.41780 0.25400 -0.17200
C 	C 	0.07290 0.43220 0.26190 -0.08000
C 	C 	0.05140 0.46690 0.32780 0.00000
H 	H 	0.01010 0.47670 0.33230 0.01300
C 	C 	0.09290 0.48650 0.38620 -0.08100
H 	H 	0.07980 0.51080 0.43030 0.04100
C 	C 	0.15370 0.47030 0.37960 -0.00500
H 	H 	0.18190 0.48220 0.41970 0.02400
C 	C 	0.17160 0.43580 0.31160 -0.06800
C 	C 	0.23610 0.41600 0.29570 0.37500
C 	C 	0.03230 0.40500 0.19520 0.39400
Dy	Dy	0.83341 0.13384 0.12648 1.45300
O 	O 	0.75460 0.11090 0.22670 -0.47000
O 	O 	0.72310 0.07290 0.34800 -0.45300
O 	O 	0.94110 0.12620 0.13990 -0.47400
O 	O 	0.02400 0.08550 0.19760 -0.49800
N 	N 	0.86820 0.08220 0.25400 -0.17200
C 	C 	0.92710 0.06780 0.26190 -0.08000
C 	C 	0.94860 0.03310 0.32780 -0.00000
H 	H 	0.98990 0.02330 0.33230 0.01300
C 	C 	0.90710 0.01350 0.38620 -0.08000
H 	H 	0.92020 0.98920 0.43030 0.04100
C 	C 	0.84630 0.02970 0.37960 -0.00500
H 	H 	0.81810 0.01780 0.41970 0.02400
C 	C 	0.82840 0.06420 0.31160 -0.06700
C 	C 	0.76390 0.08400 0.29570 0.37500
C 	C 	0.96770 0.09500 0.19520 0.39400
Dy	Dy	0.33341 0.63384 0.62648 1.45300
O 	O 	0.25460 0.61090 0.72670 -0.47000
O 	O 	0.22310 0.57290 0.84800 -0.45300
O 	O 	0.44110 0.62620 0.63990 -0.47400
O 	O 	0.52400 0.58550 0.69760 -0.49800
N 	N 	0.36820 0.58220 0.75400 -0.17200
C 	C 	0.42710 0.56780 0.76190 -0.08000
C 	C 	0.44860 0.53310 0.82780 0.00000
H 	H 	0.48990 0.52330 0.83230 0.01300
C 	C 	0.40710 0.51350 0.88620 -0.08100
H 	H 	0.42020 0.48920 0.93030 0.04100
C 	C 	0.34630 0.52970 0.87960 -0.00500
H 	H 	0.31810 0.51780 0.91970 0.02400
C 	C 	0.32840 0.56420 0.81160 -0.06700
C 	C 	0.26390 0.58400 0.79570 0.37500
C 	C 	0.46770 0.59500 0.69520 0.39400
