data_crystal

_cell_length_a 30.77800
_cell_length_b 15.58700
_cell_length_c 22.10300
_cell_angle_alpha 90.00000
_cell_angle_beta  132.99500
_cell_angle_gamma 90.00000

_symmetry_space_group_name_	'P 1'
_symmetry_space_group_name_H-M	'P 1'

loop_
_symmetry_equiv_pos_as_xyz
  x,y,z

loop_
_atom_site_label
_atom_site_type_symbol
_atom_site_fract_x
_atom_site_fract_y
_atom_site_fract_z
_atom_site_charge
O 	O 	0.94370 0.15100 0.07850 -0.48200
O 	O 	0.86500 0.96920 0.88220 -0.48100
O 	O 	0.88860 0.88620 0.71630 -0.44300
O 	O 	0.72300 0.34510 0.79520 -0.46600
O 	O 	0.02070 0.22240 0.11670 -0.63000
O 	O 	0.82370 0.09500 0.87100 -0.44200
O 	O 	0.75510 0.23400 0.87540 -0.50600
O 	O 	0.85330 0.95200 0.60260 -0.47600
N 	N 	0.84120 0.99680 0.74560 -0.16400
N 	N 	0.86680 0.27050 0.96470 -0.15600
La	La	0.83093 0.12717 0.98695 1.46900
La	La	0.89000 0.85695 0.82964 1.50000
C 	C 	0.81630 0.05200 0.76100 -0.06000
C 	C 	0.77490 0.11520 0.70550 -0.02600
H 	H 	0.75590 0.15040 0.71540 0.01100
C 	C 	0.76500 0.12000 0.63300 -0.08300
H 	H 	0.73750 0.16130 0.59420 0.02600
C 	C 	0.78760 0.07700 0.61600 0.01700
H 	H 	0.77940 0.08680 0.56800 -0.01300
C 	C 	0.82910 0.00800 0.67400 -0.10100
C 	C 	0.83970 0.03600 0.84880 0.35200
C 	C 	0.85940 0.94800 0.66360 0.37300
C 	C 	0.92370 0.28500 0.01200 -0.10000
C 	C 	0.94280 0.35600 -0.00000 0.06800
H 	H 	0.98330 0.36390 0.03200 0.03500
C 	C 	0.90420 0.41400 0.94210 -0.10400
H 	H 	0.91720 0.46330 0.93510 0.04200
C 	C 	0.84400 0.39800 0.89300 0.01700
H 	H 	0.81570 0.43770 0.85360 0.00800
C 	C 	0.82550 0.32400 0.90200 -0.10300
C 	C 	0.96720 0.21400 0.07700 0.55000
C 	C 	0.76090 0.30000 0.85200 0.42200
W 	W 	0.05289 0.63581 0.44889 0.98900
W 	W 	0.92446 0.52400 0.29000 1.15300
W 	W 	0.12765 0.52431 0.40849 1.18500
W 	W 	0.92366 0.74750 0.29010 1.21800
W 	W 	0.12993 0.74712 0.40853 1.21400
O 	O 	0.96870 0.43700 0.29620 -0.41000
O 	O 	0.10240 0.71890 0.45890 -0.49400
O 	O 	0.07370 0.43400 0.35500 -0.50900
O 	O 	0.86730 0.51000 0.17100 -0.49200
O 	O 	0.10240 0.55600 0.46200 -0.48600
O 	O 	0.89560 0.64000 0.27810 -0.48700
O 	O 	0.99430 0.72200 0.39800 -0.40800
O 	O 	0.99470 0.55230 0.40120 -0.37900
O 	O 	0.96200 0.71100 0.23400 -0.58200
O 	O 	0.16000 0.64000 0.43020 -0.49300
O 	O 	0.96600 0.84200 0.29400 -0.41400
O 	O 	0.07700 0.84000 0.36100 -0.49900
O 	O 	0.86530 0.75600 0.17200 -0.48100
O 	O 	0.94900 0.64000 0.16100 -0.67400
O 	O 	0.03940 0.55300 0.27200 -0.71300
O 	O 	0.98410 0.63500 0.29900 -0.60600
O 	O 	0.44370 0.65100 0.07850 -0.48200
O 	O 	0.36500 0.46920 0.88220 -0.49500
O 	O 	0.38860 0.38620 0.71630 -0.46800
O 	O 	0.22300 0.84510 0.79520 -0.46400
O 	O 	0.52070 0.72240 0.11670 -0.49200
O 	O 	0.32370 0.59500 0.87100 -0.44500
O 	O 	0.25510 0.73400 0.87540 -0.50400
O 	O 	0.35330 0.45200 0.60260 -0.49100
N 	N 	0.34120 0.49680 0.74560 -0.16500
N 	N 	0.36680 0.77050 0.96470 -0.16100
La	La	0.33093 0.62717 0.98695 1.45600
La	La	0.39000 0.35695 0.82964 1.46900
C 	C 	0.31630 0.55200 0.76100 -0.06500
C 	C 	0.27490 0.61520 0.70550 -0.02200
H 	H 	0.25590 0.65040 0.71540 0.01000
C 	C 	0.26500 0.62000 0.63300 -0.08900
H 	H 	0.23750 0.66130 0.59420 0.03000
C 	C 	0.28760 0.57700 0.61600 0.02200
H 	H 	0.27940 0.58680 0.56800 -0.01600
C 	C 	0.32910 0.50800 0.67400 -0.10800
C 	C 	0.33970 0.53600 0.84880 0.35100
C 	C 	0.35940 0.44800 0.66360 0.37100
C 	C 	0.42370 0.78500 0.01200 -0.08200
C 	C 	0.44280 0.85600 -0.00000 0.03500
H 	H 	0.48330 0.86390 0.03200 -0.00800
C 	C 	0.40420 0.91400 0.94210 -0.09100
H 	H 	0.41720 0.96330 0.93510 0.02100
C 	C 	0.34400 0.89800 0.89300 0.00400
H 	H 	0.31570 0.93770 0.85360 0.01200
C 	C 	0.32550 0.82400 0.90200 -0.10000
C 	C 	0.46720 0.71400 0.07700 0.37600
C 	C 	0.26090 0.80000 0.85200 0.41900
W 	W 	0.55289 0.13581 0.44889 1.24200
W 	W 	0.42446 0.02400 0.29000 1.19300
W 	W 	0.62765 0.02431 0.40849 1.22300
W 	W 	0.42366 0.24750 0.29010 1.25900
W 	W 	0.62993 0.24712 0.40853 1.25100
O 	O 	0.46870 0.93700 0.29620 -0.51300
O 	O 	0.60240 0.21890 0.45890 -0.50500
O 	O 	0.57370 0.93400 0.35500 -0.52400
O 	O 	0.36730 0.01000 0.17100 -0.49600
O 	O 	0.60240 0.05600 0.46200 -0.50500
O 	O 	0.39560 0.14000 0.27810 -0.49300
O 	O 	0.49430 0.22200 0.39800 -0.50900
O 	O 	0.49470 0.05230 0.40120 -0.48800
O 	O 	0.46200 0.21100 0.23400 -0.71800
O 	O 	0.66000 0.14000 0.43020 -0.50300
O 	O 	0.46600 0.34200 0.29400 -0.51200
O 	O 	0.57700 0.34000 0.36100 -0.50600
O 	O 	0.36530 0.25600 0.17200 -0.48500
O 	O 	0.44900 0.14000 0.16100 -0.83300
O 	O 	0.53940 0.05300 0.27200 -0.78500
O 	O 	0.48410 0.13500 0.29900 -0.77800
O 	O 	0.05630 0.15100 0.42150 -0.46800
O 	O 	0.13500 0.96920 0.61780 -0.50800
O 	O 	0.11140 0.88620 0.78370 -0.47800
O 	O 	0.27700 0.34510 0.70480 -0.46400
O 	O 	0.97930 0.22240 0.38330 -0.34000
O 	O 	0.17630 0.09500 0.62900 -0.44800
O 	O 	0.24490 0.23400 0.62460 -0.50200
O 	O 	0.14670 0.95200 0.89740 -0.49900
N 	N 	0.15880 0.99680 0.75440 -0.16600
N 	N 	0.13320 0.27050 0.53530 -0.16500
La	La	0.16907 0.12717 0.51305 1.45400
La	La	0.11000 0.85695 0.67036 1.44600
C 	C 	0.18370 0.05200 0.73900 -0.06800
C 	C 	0.22510 0.11520 0.79450 -0.02200
H 	H 	0.24410 0.15040 0.78460 0.00900
C 	C 	0.23500 0.12000 0.86700 -0.09100
H 	H 	0.26250 0.16130 0.90580 0.02700
C 	C 	0.21240 0.07700 0.88400 0.02400
H 	H 	0.22060 0.08680 0.93200 -0.01800
C 	C 	0.17090 0.00800 0.82600 -0.11100
C 	C 	0.16030 0.03600 0.65120 0.35000
C 	C 	0.14060 0.94800 0.83640 0.37200
C 	C 	0.07630 0.28500 0.48800 -0.05600
C 	C 	0.05720 0.35600 0.50000 -0.00900
H 	H 	0.01670 0.36390 0.46800 -0.04400
C 	C 	0.09580 0.41400 0.55790 -0.06600
H 	H 	0.08280 0.46330 0.56490 0.00000
C 	C 	0.15600 0.39800 0.60700 -0.01100
H 	H 	0.18430 0.43770 0.64640 0.01800
C 	C 	0.17450 0.32400 0.59800 -0.09400
C 	C 	0.03280 0.21400 0.42300 0.20500
C 	C 	0.23910 0.30000 0.64800 0.41700
W 	W 	0.94711 0.63581 0.05111 1.43900
W 	W 	0.07554 0.52400 0.21000 1.16400
W 	W 	0.87235 0.52431 0.09151 1.19900
W 	W 	0.07634 0.74750 0.20990 1.23200
W 	W 	0.87007 0.74712 0.09147 1.22900
O 	O 	0.03130 0.43700 0.20380 -0.51700
O 	O 	0.89760 0.71890 0.04110 -0.50900
O 	O 	0.92630 0.43400 0.14500 -0.43800
O 	O 	0.13270 0.51000 0.32900 -0.48800
O 	O 	0.89760 0.55600 0.03800 -0.51300
O 	O 	0.10440 0.64000 0.22190 -0.48900
O 	O 	0.00570 0.72200 0.10200 -0.59800
O 	O 	0.00530 0.55230 0.09880 -0.58300
O 	O 	0.03800 0.71100 0.26600 -0.65500
O 	O 	0.84000 0.64000 0.06980 -0.50300
O 	O 	0.03400 0.84200 0.20600 -0.51000
O 	O 	0.92300 0.84000 0.13900 -0.42300
O 	O 	0.13470 0.75600 0.32800 -0.47800
O 	O 	0.05100 0.64000 0.33900 -0.76300
O 	O 	0.96060 0.55300 0.22800 -0.63400
O 	O 	0.01590 0.63500 0.20100 -0.73700
O 	O 	0.55630 0.65100 0.42150 -0.48500
O 	O 	0.63500 0.46920 0.61780 -0.49300
O 	O 	0.61140 0.38620 0.78370 -0.46900
O 	O 	0.77700 0.84510 0.70480 -0.46500
O 	O 	0.47930 0.72240 0.38330 -0.49300
O 	O 	0.67630 0.59500 0.62900 -0.44400
O 	O 	0.74490 0.73400 0.62460 -0.50100
O 	O 	0.64670 0.45200 0.89740 -0.49400
N 	N 	0.65880 0.49680 0.75440 -0.16500
N 	N 	0.63320 0.77050 0.53530 -0.15900
La	La	0.66907 0.62717 0.51305 1.46300
La	La	0.61000 0.35695 0.67036 1.47000
C 	C 	0.68370 0.55200 0.73900 -0.06400
C 	C 	0.72510 0.61520 0.79450 -0.02500
H 	H 	0.74410 0.65040 0.78460 0.01100
C 	C 	0.73500 0.62000 0.86700 -0.08700
H 	H 	0.76250 0.66130 0.90580 0.02600
C 	C 	0.71240 0.57700 0.88400 0.02000
H 	H 	0.72060 0.58680 0.93200 -0.01700
C 	C 	0.67090 0.50800 0.82600 -0.10800
C 	C 	0.66030 0.53600 0.65120 0.35100
C 	C 	0.64060 0.44800 0.83640 0.37100
C 	C 	0.57630 0.78500 0.48800 -0.08300
C 	C 	0.55720 0.85600 0.50000 0.01900
H 	H 	0.51670 0.86390 0.46800 -0.00400
C 	C 	0.59580 0.91400 0.55790 -0.07400
H 	H 	0.58280 0.96330 0.56490 0.01600
C 	C 	0.65600 0.89800 0.60700 -0.00300
H 	H 	0.68430 0.93770 0.64640 0.01400
C 	C 	0.67450 0.82400 0.59800 -0.09700
C 	C 	0.53280 0.71400 0.42300 0.37600
C 	C 	0.73910 0.80000 0.64800 0.41900
W 	W 	0.44711 0.13581 0.05111 1.24600
W 	W 	0.57554 0.02400 0.21000 1.19300
W 	W 	0.37235 0.02431 0.09151 1.22800
W 	W 	0.57634 0.24750 0.20990 1.25900
W 	W 	0.37007 0.24712 0.09147 1.25500
O 	O 	0.53130 0.93700 0.20380 -0.51300
O 	O 	0.39760 0.21890 0.04110 -0.50400
O 	O 	0.42630 0.93400 0.14500 -0.52400
O 	O 	0.63270 0.01000 0.32900 -0.49700
O 	O 	0.39760 0.05600 0.03800 -0.50300
O 	O 	0.60440 0.14000 0.22190 -0.49300
O 	O 	0.50570 0.22200 0.10200 -0.50900
O 	O 	0.50530 0.05230 0.09880 -0.48700
O 	O 	0.53800 0.21100 0.26600 -0.71800
O 	O 	0.34000 0.14000 0.06980 -0.50200
O 	O 	0.53400 0.34200 0.20600 -0.51200
O 	O 	0.42300 0.34000 0.13900 -0.50500
O 	O 	0.63470 0.25600 0.32800 -0.48600
O 	O 	0.55100 0.14000 0.33900 -0.83200
O 	O 	0.46060 0.05300 0.22800 -0.78500
O 	O 	0.51590 0.13500 0.20100 -0.77900
O 	O 	0.05630 0.84900 0.92150 -0.47700
O 	O 	0.13500 0.03080 0.11780 -0.50400
O 	O 	0.11140 0.11380 0.28370 -0.47700
O 	O 	0.27700 0.65490 0.20480 -0.46500
O 	O 	0.97930 0.77760 0.88330 -0.34700
O 	O 	0.17630 0.90500 0.12900 -0.44700
O 	O 	0.24490 0.76600 0.12460 -0.50300
O 	O 	0.14670 0.04800 0.39740 -0.49600
N 	N 	0.15880 0.00320 0.25440 -0.16700
N 	N 	0.13320 0.72950 0.03530 -0.14700
La	La	0.16907 0.87283 0.01305 1.46700
La	La	0.11000 0.14305 0.17036 1.45000
C 	C 	0.18370 0.94800 0.23900 -0.06700
C 	C 	0.22510 0.88480 0.29450 -0.02200
H 	H 	0.24410 0.84960 0.28460 0.01000
C 	C 	0.23500 0.88000 0.36700 -0.08900
H 	H 	0.26250 0.83870 0.40580 0.02900
C 	C 	0.21240 0.92300 0.38400 0.02300
H 	H 	0.22060 0.91320 0.43200 -0.01600
C 	C 	0.17090 0.99200 0.32600 -0.10900
C 	C 	0.16030 0.96400 0.15120 0.35000
C 	C 	0.14060 0.05200 0.33640 0.37100
C 	C 	0.07630 0.71500 0.98800 -0.10700
C 	C 	0.05720 0.64400 -0.00000 0.08000
H 	H 	0.01670 0.63610 0.96800 -0.08200
C 	C 	0.09580 0.58600 0.05790 -0.12600
H 	H 	0.08280 0.53670 0.06490 0.02500
C 	C 	0.15600 0.60200 0.10700 0.02800
H 	H 	0.18430 0.56230 0.14640 0.00500
C 	C 	0.17450 0.67600 0.09800 -0.11000
C 	C 	0.03280 0.78600 0.92300 0.22100
C 	C 	0.23910 0.70000 0.14800 0.42500
W 	W 	0.94711 0.36419 0.55111 1.44000
W 	W 	0.07554 0.47600 0.71000 1.16300
W 	W 	0.87235 0.47569 0.59151 1.19600
W 	W 	0.07634 0.25250 0.70990 1.23000
W 	W 	0.87007 0.25288 0.59147 1.22600
O 	O 	0.03130 0.56300 0.70380 -0.51800
O 	O 	0.89760 0.28110 0.54110 -0.51000
O 	O 	0.92630 0.56600 0.64500 -0.43700
O 	O 	0.13270 0.49000 0.82900 -0.48800
O 	O 	0.89760 0.44400 0.53800 -0.51500
O 	O 	0.10440 0.36000 0.72190 -0.48900
O 	O 	0.00570 0.27800 0.60200 -0.60300
O 	O 	0.00530 0.44770 0.59880 -0.58800
O 	O 	0.03800 0.28900 0.76600 -0.65400
O 	O 	0.84000 0.36000 0.56980 -0.50400
O 	O 	0.03400 0.15800 0.70600 -0.51100
O 	O 	0.92300 0.16000 0.63900 -0.42200
O 	O 	0.13470 0.24400 0.82800 -0.47800
O 	O 	0.05100 0.36000 0.83900 -0.76000
O 	O 	0.96060 0.44700 0.72800 -0.63200
O 	O 	0.01590 0.36500 0.70100 -0.73700
O 	O 	0.55630 0.34900 0.92150 -0.49000
O 	O 	0.63500 0.53080 0.11780 -0.49200
O 	O 	0.61140 0.61380 0.28370 -0.46800
O 	O 	0.77700 0.15490 0.20480 -0.46600
O 	O 	0.47930 0.27760 0.88330 -0.49600
O 	O 	0.67630 0.40500 0.12900 -0.44300
O 	O 	0.74490 0.26600 0.12460 -0.50100
O 	O 	0.64670 0.54800 0.39740 -0.49100
N 	N 	0.65880 0.50320 0.25440 -0.16500
N 	N 	0.63320 0.22950 0.03530 -0.15000
La	La	0.66907 0.37283 0.01305 1.46900
La	La	0.61000 0.64305 0.17036 1.47200
C 	C 	0.68370 0.44800 0.23900 -0.06400
C 	C 	0.72510 0.38480 0.29450 -0.02400
H 	H 	0.74410 0.34960 0.28460 0.01100
C 	C 	0.73500 0.38000 0.36700 -0.08700
H 	H 	0.76250 0.33870 0.40580 0.02800
C 	C 	0.71240 0.42300 0.38400 0.02100
H 	H 	0.72060 0.41320 0.43200 -0.01500
C 	C 	0.67090 0.49200 0.32600 -0.10700
C 	C 	0.66030 0.46400 0.15120 0.35100
C 	C 	0.64060 0.55200 0.33640 0.37000
C 	C 	0.57630 0.21500 0.98800 -0.11000
C 	C 	0.55720 0.14400 -0.00000 0.06400
H 	H 	0.51670 0.13610 0.96800 -0.02300
C 	C 	0.59580 0.08600 0.05790 -0.10300
H 	H 	0.58280 0.03670 0.06490 0.02800
C 	C 	0.65600 0.10200 0.10700 0.01600
H 	H 	0.68430 0.06230 0.14640 0.00800
C 	C 	0.67450 0.17600 0.09800 -0.10500
C 	C 	0.53280 0.28600 0.92300 0.38300
C 	C 	0.73910 0.20000 0.14800 0.42200
W 	W 	0.44711 0.86419 0.55111 1.24200
W 	W 	0.57554 0.97600 0.71000 1.19200
W 	W 	0.37235 0.97569 0.59151 1.22500
W 	W 	0.57634 0.75250 0.70990 1.25900
W 	W 	0.37007 0.75288 0.59147 1.25200
O 	O 	0.53130 0.06300 0.70380 -0.51400
O 	O 	0.39760 0.78110 0.54110 -0.50500
O 	O 	0.42630 0.06600 0.64500 -0.52400
O 	O 	0.63270 0.99000 0.82900 -0.49700
O 	O 	0.39760 0.94400 0.53800 -0.50500
O 	O 	0.60440 0.86000 0.72190 -0.49300
O 	O 	0.50570 0.77800 0.60200 -0.50900
O 	O 	0.50530 0.94770 0.59880 -0.48800
O 	O 	0.53800 0.78900 0.76600 -0.71800
O 	O 	0.34000 0.86000 0.56980 -0.50400
O 	O 	0.53400 0.65800 0.70600 -0.51200
O 	O 	0.42300 0.66000 0.63900 -0.50600
O 	O 	0.63470 0.74400 0.82800 -0.48600
O 	O 	0.55100 0.86000 0.83900 -0.83100
O 	O 	0.46060 0.94700 0.72800 -0.78400
O 	O 	0.51590 0.86500 0.70100 -0.77800
O 	O 	0.94370 0.84900 0.57850 -0.48500
O 	O 	0.86500 0.03080 0.38220 -0.47700
O 	O 	0.88860 0.11380 0.21630 -0.44100
O 	O 	0.72300 0.65490 0.29520 -0.46400
O 	O 	0.02070 0.77760 0.61670 -0.63400
O 	O 	0.82370 0.90500 0.37100 -0.44000
O 	O 	0.75510 0.76600 0.37540 -0.50400
O 	O 	0.85330 0.04800 0.10260 -0.47100
N 	N 	0.84120 0.00320 0.24560 -0.16300
N 	N 	0.86680 0.72950 0.46470 -0.15300
La	La	0.83093 0.87283 0.48695 1.47800
La	La	0.89000 0.14305 0.32964 1.50300
C 	C 	0.81630 0.94800 0.26100 -0.06000
C 	C 	0.77490 0.88480 0.20550 -0.02600
H 	H 	0.75590 0.84960 0.21540 0.01200
C 	C 	0.76500 0.88000 0.13300 -0.08200
H 	H 	0.73750 0.83870 0.09420 0.02800
C 	C 	0.78760 0.92300 0.11600 0.01700
H 	H 	0.77940 0.91320 0.06800 -0.01200
C 	C 	0.82910 0.99200 0.17400 -0.10000
C 	C 	0.83970 0.96400 0.34880 0.35300
C 	C 	0.85940 0.05200 0.16360 0.37200
C 	C 	0.92370 0.71500 0.51200 -0.10100
C 	C 	0.94280 0.64400 0.50000 0.04700
H 	H 	0.98330 0.63610 0.53200 0.04100
C 	C 	0.90420 0.58600 0.44210 -0.07800
H 	H 	0.91720 0.53670 0.43510 0.03600
C 	C 	0.84400 0.60200 0.39300 0.00600
H 	H 	0.81570 0.56230 0.35360 0.01300
C 	C 	0.82550 0.67600 0.40200 -0.09700
C 	C 	0.96720 0.78600 0.57700 0.55300
C 	C 	0.76090 0.70000 0.35200 0.42000
W 	W 	0.05289 0.36419 0.94889 0.98500
W 	W 	0.92446 0.47600 0.79000 1.15100
W 	W 	0.12765 0.47569 0.90849 1.18100
W 	W 	0.92366 0.25250 0.79010 1.21600
W 	W 	0.12993 0.25288 0.90853 1.21100
O 	O 	0.96870 0.56300 0.79620 -0.40900
O 	O 	0.10240 0.28110 0.95890 -0.49500
O 	O 	0.07370 0.56600 0.85500 -0.50900
O 	O 	0.86730 0.49000 0.67100 -0.49200
O 	O 	0.10240 0.44400 0.96200 -0.48700
O 	O 	0.89560 0.36000 0.77810 -0.48700
O 	O 	0.99430 0.27800 0.89800 -0.41100
O 	O 	0.99470 0.44770 0.90120 -0.38300
O 	O 	0.96200 0.28900 0.73400 -0.58000
O 	O 	0.16000 0.36000 0.93020 -0.49400
O 	O 	0.96600 0.15800 0.79400 -0.41400
O 	O 	0.07700 0.16000 0.86100 -0.49900
O 	O 	0.86530 0.24400 0.67200 -0.48100
O 	O 	0.94900 0.36000 0.66100 -0.67000
O 	O 	0.03940 0.44700 0.77200 -0.71100
O 	O 	0.98410 0.36500 0.79900 -0.60400
O 	O 	0.44370 0.34900 0.57850 -0.48500
O 	O 	0.36500 0.53080 0.38220 -0.49300
O 	O 	0.38860 0.61380 0.21630 -0.46700
O 	O 	0.22300 0.15490 0.29520 -0.46300
O 	O 	0.52070 0.27760 0.61670 -0.49300
O 	O 	0.32370 0.40500 0.37100 -0.44400
O 	O 	0.25510 0.26600 0.37540 -0.50300
O 	O 	0.35330 0.54800 0.10260 -0.48700
N 	N 	0.34120 0.50320 0.24560 -0.16500
N 	N 	0.36680 0.22950 0.46470 -0.15900
La	La	0.33093 0.37283 0.48695 1.46200
La	La	0.39000 0.64305 0.32964 1.47100
C 	C 	0.31630 0.44800 0.26100 -0.06500
C 	C 	0.27490 0.38480 0.20550 -0.02100
H 	H 	0.25590 0.34960 0.21540 0.01000
C 	C 	0.26500 0.38000 0.13300 -0.08800
H 	H 	0.23750 0.33870 0.09420 0.03300
C 	C 	0.28760 0.42300 0.11600 0.02300
H 	H 	0.27940 0.41320 0.06800 -0.01300
C 	C 	0.32910 0.49200 0.17400 -0.10600
C 	C 	0.33970 0.46400 0.34880 0.35200
C 	C 	0.35940 0.55200 0.16360 0.37000
C 	C 	0.42370 0.21500 0.51200 -0.08300
C 	C 	0.44280 0.14400 0.50000 0.01900
H 	H 	0.48330 0.13610 0.53200 -0.00400
C 	C 	0.40420 0.08600 0.44210 -0.07300
H 	H 	0.41720 0.03670 0.43510 0.01600
C 	C 	0.34400 0.10200 0.39300 -0.00400
H 	H 	0.31570 0.06230 0.35360 0.01500
C 	C 	0.32550 0.17600 0.40200 -0.09600
C 	C 	0.46720 0.28600 0.57700 0.37600
C 	C 	0.26090 0.20000 0.35200 0.41800
W 	W 	0.55289 0.86419 0.94889 1.23900
W 	W 	0.42446 0.97600 0.79000 1.19300
W 	W 	0.62765 0.97569 0.90849 1.22100
W 	W 	0.42366 0.75250 0.79010 1.25800
W 	W 	0.62993 0.75288 0.90853 1.24900
O 	O 	0.46870 0.06300 0.79620 -0.51400
O 	O 	0.60240 0.78110 0.95890 -0.50600
O 	O 	0.57370 0.06600 0.85500 -0.52500
O 	O 	0.36730 0.99000 0.67100 -0.49700
O 	O 	0.60240 0.94400 0.96200 -0.50600
O 	O 	0.39560 0.86000 0.77810 -0.49400
O 	O 	0.49430 0.77800 0.89800 -0.51000
O 	O 	0.49470 0.94770 0.90120 -0.48900
O 	O 	0.46200 0.78900 0.73400 -0.71800
O 	O 	0.66000 0.86000 0.93020 -0.50500
O 	O 	0.46600 0.65800 0.79400 -0.51200
O 	O 	0.57700 0.66000 0.86100 -0.50600
O 	O 	0.36530 0.74400 0.67200 -0.48600
O 	O 	0.44900 0.86000 0.66100 -0.83100
O 	O 	0.53940 0.94700 0.77200 -0.78400
O 	O 	0.48410 0.86500 0.79900 -0.77800
K 	K 	-0.00000 0.13640 0.25000 0.62900
W 	W 	-0.00000 0.41112 0.25000 1.31800
W 	W 	-0.00000 0.85826 0.25000 1.31900
B 	B 	-0.00000 0.63200 0.25000 3.01600
O 	O 	-0.00000 0.30100 0.25000 -0.54500
O 	O 	-0.00000 0.96000 0.25000 -0.56600
K 	K 	0.50000 0.63640 0.25000 0.65100
W 	W 	0.50000 0.91112 0.25000 1.56700
W 	W 	0.50000 0.35826 0.25000 1.55900
B 	B 	0.50000 0.13200 0.25000 3.62400
O 	O 	0.50000 0.80100 0.25000 -0.52900
O 	O 	0.50000 0.46000 0.25000 -0.55600
K 	K 	0.00000 0.86360 0.75000 0.62700
W 	W 	0.00000 0.58888 0.75000 1.31200
W 	W 	0.00000 0.14174 0.75000 1.31400
B 	B 	0.00000 0.36800 0.75000 3.00400
O 	O 	0.00000 0.69900 0.75000 -0.54700
O 	O 	0.00000 0.04000 0.75000 -0.56800
K 	K 	0.50000 0.36360 0.75000 0.65100
W 	W 	0.50000 0.08888 0.75000 1.56600
W 	W 	0.50000 0.64174 0.75000 1.55800
B 	B 	0.50000 0.86800 0.75000 3.62200
O 	O 	0.50000 0.19900 0.75000 -0.53000
O 	O 	0.50000 0.54000 0.75000 -0.55700
