data_crystal

_cell_length_a 21.87880
_cell_length_b 21.87880
_cell_length_c 16.14430
_cell_angle_alpha 90.00000
_cell_angle_beta  90.00000
_cell_angle_gamma 90.00000

_symmetry_space_group_name_	'P 1'
_symmetry_space_group_name_H-M	'P 1'

loop_
_symmetry_equiv_pos_as_xyz
  x,y,z

loop_
_atom_site_label
_atom_site_type_symbol
_atom_site_fract_x
_atom_site_fract_y
_atom_site_fract_z
_atom_site_charge
Tb	Tb	0.66699 0.13417 0.37323 1.49200
N 	N 	0.63190 0.08240 0.24610 -0.17600
C 	C 	0.57300 0.06850 0.23790 -0.08400
C 	C 	0.55190 0.03300 0.17140 0.00200
H 	H 	0.51080 0.02260 0.16740 0.01000
C 	C 	0.59210 0.01420 0.11320 -0.08500
H 	H 	0.57900 0.99100 0.06840 0.03900
C 	C 	0.65370 0.03010 0.12100 -0.00600
H 	H 	0.68210 0.01770 0.08150 0.02100
C 	C 	0.67130 0.06410 0.18730 -0.06700
C 	C 	0.53290 0.09420 0.30340 0.37600
C 	C 	0.73700 0.08330 0.20370 0.38100
O 	O 	0.77680 0.07320 0.15110 -0.46400
O 	O 	0.74510 0.11170 0.27200 -0.48000
O 	O 	0.55940 0.12580 0.36000 -0.47100
O 	O 	0.47600 0.08470 0.30220 -0.49700
Tb	Tb	0.16699 0.63417 0.87323 1.49300
N 	N 	0.13190 0.58240 0.74610 -0.17500
C 	C 	0.07300 0.56850 0.73790 -0.08300
C 	C 	0.05190 0.53300 0.67140 0.00400
H 	H 	0.01080 0.52260 0.66740 0.01000
C 	C 	0.09210 0.51420 0.61320 -0.08500
H 	H 	0.07900 0.49100 0.56840 0.04100
C 	C 	0.15370 0.53010 0.62100 -0.00400
H 	H 	0.18210 0.51770 0.58150 0.02200
C 	C 	0.17130 0.56410 0.68730 -0.06700
C 	C 	0.03290 0.59420 0.80340 0.37600
C 	C 	0.23700 0.58330 0.70370 0.38100
O 	O 	0.27680 0.57320 0.65110 -0.46400
O 	O 	0.24510 0.61170 0.77200 -0.48000
O 	O 	0.05940 0.62580 0.86000 -0.47100
O 	O 	0.97600 0.58470 0.80220 -0.49700
Tb	Tb	0.83301 0.86583 0.87323 1.49300
N 	N 	0.86810 0.91760 0.74610 -0.17500
C 	C 	0.92700 0.93150 0.73790 -0.08300
C 	C 	0.94810 0.96700 0.67140 0.00300
H 	H 	0.98920 0.97740 0.66740 0.01000
C 	C 	0.90790 0.98580 0.61320 -0.08500
H 	H 	0.92100 0.00900 0.56840 0.04100
C 	C 	0.84630 0.96990 0.62100 -0.00500
H 	H 	0.81790 0.98230 0.58150 0.02200
C 	C 	0.82870 0.93590 0.68730 -0.06700
C 	C 	0.96710 0.90580 0.80340 0.37600
C 	C 	0.76300 0.91670 0.70370 0.38100
O 	O 	0.72320 0.92680 0.65110 -0.46400
O 	O 	0.75490 0.88830 0.77200 -0.48000
O 	O 	0.94060 0.87420 0.86000 -0.47100
O 	O 	0.02400 0.91530 0.80220 -0.49700
Tb	Tb	0.33301 0.36583 0.37323 1.49300
N 	N 	0.36810 0.41760 0.24610 -0.17500
C 	C 	0.42700 0.43150 0.23790 -0.08300
C 	C 	0.44810 0.46700 0.17140 0.00400
H 	H 	0.48920 0.47740 0.16740 0.01000
C 	C 	0.40790 0.48580 0.11320 -0.08500
H 	H 	0.42100 0.50900 0.06840 0.04100
C 	C 	0.34630 0.46990 0.12100 -0.00400
H 	H 	0.31790 0.48230 0.08150 0.02200
C 	C 	0.32870 0.43590 0.18730 -0.06700
C 	C 	0.46710 0.40580 0.30340 0.37600
C 	C 	0.26300 0.41670 0.20370 0.38100
O 	O 	0.22320 0.42680 0.15110 -0.46400
O 	O 	0.25490 0.38830 0.27200 -0.48000
O 	O 	0.44060 0.37420 0.36000 -0.47100
O 	O 	0.52400 0.41530 0.30220 -0.49700
Tb	Tb	0.61583 0.91699 0.62323 1.49300
N 	N 	0.66760 0.88190 0.49610 -0.17500
C 	C 	0.68150 0.82300 0.48790 -0.08300
C 	C 	0.71700 0.80190 0.42140 0.00400
H 	H 	0.72740 0.76080 0.41740 0.01000
C 	C 	0.73580 0.84210 0.36320 -0.08500
H 	H 	0.75900 0.82900 0.31840 0.04100
C 	C 	0.71990 0.90370 0.37100 -0.00400
H 	H 	0.73230 0.93210 0.33150 0.02200
C 	C 	0.68590 0.92130 0.43730 -0.06700
C 	C 	0.65580 0.78290 0.55340 0.37600
C 	C 	0.66670 0.98700 0.45370 0.38100
O 	O 	0.67680 0.02680 0.40110 -0.46400
O 	O 	0.63830 0.99510 0.52200 -0.48000
O 	O 	0.62420 0.80940 0.61000 -0.47100
O 	O 	0.66530 0.72600 0.55220 -0.49700
Tb	Tb	0.11583 0.41699 0.12323 1.49300
N 	N 	0.16760 0.38190 0.99610 -0.17500
C 	C 	0.18150 0.32300 0.98790 -0.08300
C 	C 	0.21700 0.30190 0.92140 0.00400
H 	H 	0.22740 0.26080 0.91740 0.01000
C 	C 	0.23580 0.34210 0.86320 -0.08600
H 	H 	0.25900 0.32900 0.81840 0.04100
C 	C 	0.21990 0.40370 0.87100 -0.00400
H 	H 	0.23230 0.43210 0.83150 0.02200
C 	C 	0.18590 0.42130 0.93730 -0.06700
C 	C 	0.15580 0.28290 0.05340 0.37600
C 	C 	0.16670 0.48700 0.95370 0.38100
O 	O 	0.17680 0.52680 0.90110 -0.46400
O 	O 	0.13830 0.49510 0.02200 -0.48000
O 	O 	0.12420 0.30940 0.11000 -0.47100
O 	O 	0.16530 0.22600 0.05220 -0.49700
Tb	Tb	0.88417 0.08301 0.12323 1.49300
N 	N 	0.83240 0.11810 0.99610 -0.17500
C 	C 	0.81850 0.17700 0.98790 -0.08300
C 	C 	0.78300 0.19810 0.92140 0.00400
H 	H 	0.77260 0.23920 0.91740 0.01000
C 	C 	0.76420 0.15790 0.86320 -0.08500
H 	H 	0.74100 0.17100 0.81840 0.04100
C 	C 	0.78010 0.09630 0.87100 -0.00400
H 	H 	0.76770 0.06790 0.83150 0.02200
C 	C 	0.81410 0.07870 0.93730 -0.06700
C 	C 	0.84420 0.21710 0.05340 0.37600
C 	C 	0.83330 0.01300 0.95370 0.38000
O 	O 	0.82320 0.97320 0.90110 -0.46300
O 	O 	0.86170 0.00490 0.02200 -0.48000
O 	O 	0.87580 0.19060 0.11000 -0.47100
O 	O 	0.83470 0.27400 0.05220 -0.49700
Tb	Tb	0.38417 0.58301 0.62323 1.49300
N 	N 	0.33240 0.61810 0.49610 -0.17500
C 	C 	0.31850 0.67700 0.48790 -0.08300
C 	C 	0.28300 0.69810 0.42140 0.00400
H 	H 	0.27260 0.73920 0.41740 0.01000
C 	C 	0.26420 0.65790 0.36320 -0.08500
H 	H 	0.24100 0.67100 0.31840 0.04100
C 	C 	0.28010 0.59630 0.37100 -0.00400
H 	H 	0.26770 0.56790 0.33150 0.02200
C 	C 	0.31410 0.57870 0.43730 -0.06700
C 	C 	0.34420 0.71710 0.55340 0.37600
C 	C 	0.33330 0.51300 0.45370 0.38100
O 	O 	0.32320 0.47320 0.40110 -0.46400
O 	O 	0.36170 0.50490 0.52200 -0.48000
O 	O 	0.37580 0.69060 0.61000 -0.47100
O 	O 	0.33470 0.77400 0.55220 -0.49700
Tb	Tb	0.33301 0.86583 0.62677 1.49300
N 	N 	0.36810 0.91760 0.75390 -0.17500
C 	C 	0.42700 0.93150 0.76210 -0.08300
C 	C 	0.44810 0.96700 0.82860 0.00300
H 	H 	0.48920 0.97740 0.83260 0.01100
C 	C 	0.40790 0.98580 0.88680 -0.08400
H 	H 	0.42100 0.00900 0.93160 0.04000
C 	C 	0.34630 0.96990 0.87900 -0.00500
H 	H 	0.31790 0.98230 0.91850 0.02200
C 	C 	0.32870 0.93590 0.81270 -0.06600
C 	C 	0.46710 0.90580 0.69660 0.37600
C 	C 	0.26300 0.91670 0.79630 0.38100
O 	O 	0.22320 0.92680 0.84890 -0.46400
O 	O 	0.25490 0.88830 0.72800 -0.48000
O 	O 	0.44060 0.87420 0.64000 -0.47100
O 	O 	0.52400 0.91530 0.69780 -0.49700
Tb	Tb	0.83301 0.36583 0.12677 1.49300
N 	N 	0.86810 0.41760 0.25390 -0.17500
C 	C 	0.92700 0.43150 0.26210 -0.08300
C 	C 	0.94810 0.46700 0.32860 0.00400
H 	H 	0.98920 0.47740 0.33260 0.01000
C 	C 	0.90790 0.48580 0.38680 -0.08500
H 	H 	0.92100 0.50900 0.43160 0.04100
C 	C 	0.84630 0.46990 0.37900 -0.00400
H 	H 	0.81790 0.48230 0.41850 0.02200
C 	C 	0.82870 0.43590 0.31270 -0.06700
C 	C 	0.96710 0.40580 0.19660 0.37600
C 	C 	0.76300 0.41670 0.29630 0.38100
O 	O 	0.72320 0.42680 0.34890 -0.46400
O 	O 	0.75490 0.38830 0.22800 -0.48000
O 	O 	0.94060 0.37420 0.14000 -0.47100
O 	O 	0.02400 0.41530 0.19780 -0.49700
Tb	Tb	0.16699 0.13417 0.12677 1.49300
N 	N 	0.13190 0.08240 0.25390 -0.17500
C 	C 	0.07300 0.06850 0.26210 -0.08300
C 	C 	0.05190 0.03300 0.32860 0.00300
H 	H 	0.01080 0.02260 0.33260 0.01000
C 	C 	0.09210 0.01420 0.38680 -0.08500
H 	H 	0.07900 0.99100 0.43160 0.04100
C 	C 	0.15370 0.03010 0.37900 -0.00500
H 	H 	0.18210 0.01770 0.41850 0.02200
C 	C 	0.17130 0.06410 0.31270 -0.06700
C 	C 	0.03290 0.09420 0.19660 0.37600
C 	C 	0.23700 0.08330 0.29630 0.38100
O 	O 	0.27680 0.07320 0.34890 -0.46400
O 	O 	0.24510 0.11170 0.22800 -0.48000
O 	O 	0.05940 0.12580 0.14000 -0.47100
O 	O 	0.97600 0.08470 0.19780 -0.49700
Tb	Tb	0.66699 0.63417 0.62677 1.49300
N 	N 	0.63190 0.58240 0.75390 -0.17500
C 	C 	0.57300 0.56850 0.76210 -0.08300
C 	C 	0.55190 0.53300 0.82860 0.00400
H 	H 	0.51080 0.52260 0.83260 0.01000
C 	C 	0.59210 0.51420 0.88680 -0.08500
H 	H 	0.57900 0.49100 0.93160 0.04100
C 	C 	0.65370 0.53010 0.87900 -0.00400
H 	H 	0.68210 0.51770 0.91850 0.02200
C 	C 	0.67130 0.56410 0.81270 -0.06700
C 	C 	0.53290 0.59420 0.69660 0.37600
C 	C 	0.73700 0.58330 0.79630 0.38100
O 	O 	0.77680 0.57320 0.84890 -0.46400
O 	O 	0.74510 0.61170 0.72800 -0.48000
O 	O 	0.55940 0.62580 0.64000 -0.47100
O 	O 	0.47600 0.58470 0.69780 -0.49700
Tb	Tb	0.38417 0.08301 0.37677 1.49300
N 	N 	0.33240 0.11810 0.50390 -0.17500
C 	C 	0.31850 0.17700 0.51210 -0.08300
C 	C 	0.28300 0.19810 0.57860 0.00400
H 	H 	0.27260 0.23920 0.58260 0.01000
C 	C 	0.26420 0.15790 0.63680 -0.08500
H 	H 	0.24100 0.17100 0.68160 0.04100
C 	C 	0.28010 0.09630 0.62900 -0.00400
H 	H 	0.26770 0.06790 0.66850 0.02200
C 	C 	0.31410 0.07870 0.56270 -0.06700
C 	C 	0.34420 0.21710 0.44660 0.37600
C 	C 	0.33330 0.01300 0.54630 0.38100
O 	O 	0.32320 0.97320 0.59890 -0.46400
O 	O 	0.36170 0.00490 0.47800 -0.48000
O 	O 	0.37580 0.19060 0.39000 -0.47100
O 	O 	0.33470 0.27400 0.44780 -0.49700
Tb	Tb	0.88417 0.58301 0.87677 1.49300
N 	N 	0.83240 0.61810 0.00390 -0.17500
C 	C 	0.81850 0.67700 0.01210 -0.08300
C 	C 	0.78300 0.69810 0.07860 0.00400
H 	H 	0.77260 0.73920 0.08260 0.01000
C 	C 	0.76420 0.65790 0.13680 -0.08600
H 	H 	0.74100 0.67100 0.18160 0.04100
C 	C 	0.78010 0.59630 0.12900 -0.00400
H 	H 	0.76770 0.56790 0.16850 0.02200
C 	C 	0.81410 0.57870 0.06270 -0.06700
C 	C 	0.84420 0.71710 0.94660 0.37600
C 	C 	0.83330 0.51300 0.04630 0.38100
O 	O 	0.82320 0.47320 0.09890 -0.46400
O 	O 	0.86170 0.50490 0.97800 -0.48000
O 	O 	0.87580 0.69060 0.89000 -0.47100
O 	O 	0.83470 0.77400 0.94780 -0.49700
Tb	Tb	0.11583 0.91699 0.87677 1.49300
N 	N 	0.16760 0.88190 0.00390 -0.17500
C 	C 	0.18150 0.82300 0.01210 -0.08300
C 	C 	0.21700 0.80190 0.07860 0.00400
H 	H 	0.22740 0.76080 0.08260 0.01000
C 	C 	0.23580 0.84210 0.13680 -0.08500
H 	H 	0.25900 0.82900 0.18160 0.04100
C 	C 	0.21990 0.90370 0.12900 -0.00400
H 	H 	0.23230 0.93210 0.16850 0.02200
C 	C 	0.18590 0.92130 0.06270 -0.06700
C 	C 	0.15580 0.78290 0.94660 0.37600
C 	C 	0.16670 0.98700 0.04630 0.38000
O 	O 	0.17680 0.02680 0.09890 -0.46300
O 	O 	0.13830 0.99510 0.97800 -0.48000
O 	O 	0.12420 0.80940 0.89000 -0.47100
O 	O 	0.16530 0.72600 0.94780 -0.49700
Tb	Tb	0.61583 0.41699 0.37677 1.49300
N 	N 	0.66760 0.38190 0.50390 -0.17500
C 	C 	0.68150 0.32300 0.51210 -0.08300
C 	C 	0.71700 0.30190 0.57860 0.00400
H 	H 	0.72740 0.26080 0.58260 0.01000
C 	C 	0.73580 0.34210 0.63680 -0.08500
H 	H 	0.75900 0.32900 0.68160 0.04100
C 	C 	0.71990 0.40370 0.62900 -0.00400
H 	H 	0.73230 0.43210 0.66850 0.02200
C 	C 	0.68590 0.42130 0.56270 -0.06700
C 	C 	0.65580 0.28290 0.44660 0.37600
C 	C 	0.66670 0.48700 0.54630 0.38100
O 	O 	0.67680 0.52680 0.59890 -0.46400
O 	O 	0.63830 0.49510 0.47800 -0.48000
O 	O 	0.62420 0.30940 0.39000 -0.47100
O 	O 	0.66530 0.22600 0.44780 -0.49700
