data_crystal

_cell_length_a 30.68500
_cell_length_b 15.58350
_cell_length_c 22.05290
_cell_angle_alpha 90.00000
_cell_angle_beta  132.98400
_cell_angle_gamma 90.00000

_symmetry_space_group_name_	'P 1'
_symmetry_space_group_name_H-M	'P 1'

loop_
_symmetry_equiv_pos_as_xyz
  x,y,z

loop_
_atom_site_label
_atom_site_type_symbol
_atom_site_fract_x
_atom_site_fract_y
_atom_site_fract_z
_atom_site_charge
W 	W 	0.05303 0.13553 0.44942 0.95800
W 	W 	0.92419 0.02375 0.29015 1.27300
W 	W 	0.12807 0.02384 0.40901 1.30400
W 	W 	0.92342 0.24729 0.29039 1.39100
W 	W 	0.13024 0.24694 0.40873 1.33400
Ce	Ce	0.88972 0.64227 0.32851 2.05800
Ce	Ce	0.83092 0.62693 0.98638 2.03500
N 	N 	0.84200 0.50320 0.24530 -0.20100
N 	N 	0.13230 0.76660 0.53430 -0.21300
C 	C 	0.17400 0.82370 0.59770 -0.13800
C 	C 	0.76410 0.37820 0.13510 -0.11000
H 	H 	0.73720 0.33630 0.09730 0.02300
C 	C 	0.03200 0.71100 0.42310 0.12000
C 	C 	0.82980 0.49200 0.17600 -0.11500
C 	C 	0.78960 0.42680 0.11690 0.02500
H 	H 	0.78170 0.41890 0.06840 -0.03100
C 	C 	0.07450 0.78310 0.48730 -0.08200
C 	C 	0.23850 0.79820 0.64640 0.45000
C 	C 	0.83800 0.46280 0.34680 0.37400
C 	C 	0.85880 0.55600 0.16320 0.41500
C 	C 	0.05590 0.85480 0.49860 0.00100
H 	H 	0.01550 0.86490 0.46580 -0.09900
C 	C 	0.77550 0.38670 0.20560 0.01000
H 	H 	0.75560 0.35400 0.21560 -0.01700
C 	C 	0.09760 0.91340 0.55940 -0.09500
H 	H 	0.08490 0.96310 0.56670 -0.01300
C 	C 	0.81920 0.44800 0.26400 -0.11000
C 	C 	0.15710 0.89860 0.60850 0.01500
H 	H 	0.18530 0.93840 0.64810 -0.00300
O 	O 	0.27780 0.84490 0.70470 -0.56000
O 	O 	0.24550 0.73310 0.62450 -0.63400
O 	O 	0.97930 0.72060 0.38190 -0.34500
O 	O 	0.05740 0.64940 0.42180 -0.57000
O 	O 	0.85080 0.54760 0.10100 -0.57500
O 	O 	0.88850 0.61550 0.21620 -0.54200
O 	O 	0.82430 0.40580 0.37190 -0.55100
O 	O 	0.86560 0.53170 0.38320 -0.57100
O 	O 	0.13410 0.25600 0.32610 -0.48400
O 	O 	0.10280 0.05440 0.46280 -0.47900
O 	O 	0.16010 0.13860 0.43110 -0.48900
O 	O 	0.99470 0.05160 0.40100 -0.32000
O 	O 	0.96800 0.93490 0.29540 -0.35400
O 	O 	0.10260 0.21640 0.46000 -0.50500
O 	O 	0.99590 0.22320 0.39940 -0.35300
O 	O 	0.89530 0.14170 0.28060 -0.50000
O 	O 	0.96370 0.06600 0.22900 -1.29600
O 	O 	0.95060 0.13600 0.16680 -1.25500
O 	O 	0.98590 0.14100 0.29800 -1.12100
O 	O 	0.13140 0.01500 0.32600 -0.50500
O 	O 	0.03400 0.33800 0.20630 -0.53800
O 	O 	0.07700 0.34100 0.35850 -0.51700
O 	O 	0.07380 0.92800 0.35470 -0.51300
O 	O 	0.03610 0.20500 0.26900 -1.39200
W 	W 	0.55303 0.63553 0.44942 1.46300
W 	W 	0.42419 0.52375 0.29015 1.40600
W 	W 	0.62807 0.52384 0.40901 1.45400
W 	W 	0.42342 0.74729 0.29039 1.54000
W 	W 	0.63024 0.74694 0.40873 1.48000
Ce	Ce	0.38972 0.14227 0.32851 2.03500
Ce	Ce	0.33092 0.12693 0.98638 2.02700
N 	N 	0.34200 0.00320 0.24530 -0.20800
N 	N 	0.63230 0.26660 0.53430 -0.20400
C 	C 	0.67400 0.32370 0.59770 -0.14300
C 	C 	0.26410 0.87820 0.13510 -0.12400
H 	H 	0.23720 0.83630 0.09730 0.03200
C 	C 	0.53200 0.21100 0.42310 0.43200
C 	C 	0.32980 0.99200 0.17600 -0.13100
C 	C 	0.28960 0.92680 0.11690 0.03600
H 	H 	0.28170 0.91890 0.06840 -0.03500
C 	C 	0.57450 0.28310 0.48730 -0.13300
C 	C 	0.73850 0.29820 0.64640 0.44900
C 	C 	0.33800 0.96280 0.34680 0.37500
C 	C 	0.35880 0.05600 0.16320 0.41200
C 	C 	0.55590 0.35480 0.49860 0.05100
H 	H 	0.51550 0.36490 0.46580 -0.03500
C 	C 	0.27550 0.88670 0.20560 0.01900
H 	H 	0.25560 0.85400 0.21560 -0.02000
C 	C 	0.59760 0.41340 0.55940 -0.10600
H 	H 	0.58490 0.46310 0.56670 0.00700
C 	C 	0.31920 0.94800 0.26400 -0.12400
C 	C 	0.65710 0.39860 0.60850 0.02500
H 	H 	0.68530 0.43840 0.64810 -0.01000
O 	O 	0.77780 0.34490 0.70470 -0.55800
O 	O 	0.74550 0.23310 0.62450 -0.62800
O 	O 	0.47930 0.22060 0.38190 -0.62700
O 	O 	0.55740 0.14940 0.42180 -0.60500
O 	O 	0.35080 0.04760 0.10100 -0.60600
O 	O 	0.38850 0.11550 0.21620 -0.59200
O 	O 	0.32430 0.90580 0.37190 -0.56200
O 	O 	0.36560 0.03170 0.38320 -0.60900
O 	O 	0.63410 0.75600 0.32610 -0.50000
O 	O 	0.60280 0.55440 0.46280 -0.51600
O 	O 	0.66010 0.63860 0.43110 -0.51000
O 	O 	0.49470 0.55160 0.40100 -0.51100
O 	O 	0.46800 0.43490 0.29540 -0.53700
O 	O 	0.60260 0.71640 0.46000 -0.52900
O 	O 	0.49590 0.72320 0.39940 -0.53200
O 	O 	0.39530 0.64170 0.28060 -0.51700
O 	O 	0.46370 0.56600 0.22900 -1.86600
O 	O 	0.45060 0.63600 0.16680 -1.80600
O 	O 	0.48590 0.64100 0.29800 -1.67100
O 	O 	0.63140 0.51500 0.32600 -0.52000
O 	O 	0.53400 0.83800 0.20630 -0.54700
O 	O 	0.57700 0.84100 0.35850 -0.53800
O 	O 	0.57380 0.42800 0.35470 -0.54900
O 	O 	0.53610 0.70500 0.26900 -1.81800
W 	W 	0.94697 0.13553 0.05058 1.73700
W 	W 	0.07581 0.02375 0.20985 1.28500
W 	W 	0.87193 0.02384 0.09099 1.33500
W 	W 	0.07658 0.24729 0.20961 1.41400
W 	W 	0.86976 0.24694 0.09127 1.36700
Ce	Ce	0.11028 0.64227 0.17149 2.02500
Ce	Ce	0.16908 0.62693 0.51362 2.02800
N 	N 	0.15800 0.50320 0.25470 -0.21100
N 	N 	0.86770 0.76660 0.96570 -0.20100
C 	C 	0.82600 0.82370 0.90230 -0.15500
C 	C 	0.23590 0.37820 0.36490 -0.12500
H 	H 	0.26280 0.33630 0.40270 0.02100
C 	C 	0.96800 0.71100 0.07690 0.74700
C 	C 	0.17020 0.49200 0.32400 -0.13600
C 	C 	0.21040 0.42680 0.38310 0.03600
H 	H 	0.21830 0.41890 0.43160 -0.04200
C 	C 	0.92550 0.78310 0.01270 -0.16000
C 	C 	0.76150 0.79820 0.85360 0.45600
C 	C 	0.16200 0.46280 0.15320 0.37400
C 	C 	0.14120 0.55600 0.33680 0.41400
C 	C 	0.94410 0.85480 0.00140 0.14200
H 	H 	0.98450 0.86490 0.03420 0.03500
C 	C 	0.22450 0.38670 0.29440 0.01900
H 	H 	0.24440 0.35400 0.28440 -0.02200
C 	C 	0.90240 0.91340 0.94060 -0.16300
H 	H 	0.91510 0.96310 0.93330 0.05300
C 	C 	0.18080 0.44800 0.23600 -0.12700
C 	C 	0.84290 0.89860 0.89150 0.06400
H 	H 	0.81470 0.93840 0.85190 -0.02000
O 	O 	0.72220 0.84490 0.79530 -0.56200
O 	O 	0.75450 0.73310 0.87550 -0.63700
O 	O 	0.02070 0.72060 0.11810 -0.87100
O 	O 	0.94260 0.64940 0.07820 -0.59700
O 	O 	0.14920 0.54760 0.39900 -0.62200
O 	O 	0.11150 0.61550 0.28380 -0.61100
O 	O 	0.17570 0.40580 0.12810 -0.56500
O 	O 	0.13440 0.53170 0.11680 -0.62800
O 	O 	0.86590 0.25600 0.17390 -0.49000
O 	O 	0.89720 0.05440 0.03720 -0.52300
O 	O 	0.83990 0.13860 0.06890 -0.50600
O 	O 	0.00530 0.05160 0.09900 -0.66700
O 	O 	0.03200 0.93490 0.20460 -0.53700
O 	O 	0.89740 0.21640 0.04000 -0.53100
O 	O 	0.00410 0.22320 0.10060 -0.68100
O 	O 	0.10470 0.14170 0.21940 -0.50500
O 	O 	0.03630 0.06600 0.27100 -1.43300
O 	O 	0.04940 0.13600 0.33320 -1.40500
O 	O 	0.01410 0.14100 0.20200 -1.35000
O 	O 	0.86860 0.01500 0.17400 -0.51200
O 	O 	0.96600 0.33800 0.29370 -0.37300
O 	O 	0.92300 0.34100 0.14150 -0.38500
O 	O 	0.92620 0.92800 0.14530 -0.39200
O 	O 	0.96390 0.20500 0.23100 -1.26700
W 	W 	0.44697 0.63553 0.05058 1.47200
W 	W 	0.57581 0.52375 0.20985 1.40800
W 	W 	0.37193 0.52384 0.09099 1.46300
W 	W 	0.57658 0.74729 0.20961 1.54200
W 	W 	0.36976 0.74694 0.09127 1.48800
Ce	Ce	0.61028 0.14227 0.17149 2.03700
Ce	Ce	0.66908 0.12693 0.51362 2.03300
N 	N 	0.65800 0.00320 0.25470 -0.20900
N 	N 	0.36770 0.26660 0.96570 -0.21100
C 	C 	0.32600 0.32370 0.90230 -0.15400
C 	C 	0.73590 0.87820 0.36490 -0.12300
H 	H 	0.76280 0.83630 0.40270 0.02400
C 	C 	0.46800 0.21100 0.07690 0.43300
C 	C 	0.67020 0.99200 0.32400 -0.13200
C 	C 	0.71040 0.92680 0.38310 0.03300
H 	H 	0.71830 0.91890 0.43160 -0.04000
C 	C 	0.42550 0.28310 0.01270 -0.12800
C 	C 	0.26150 0.29820 0.85360 0.45300
C 	C 	0.66200 0.96280 0.15320 0.37400
C 	C 	0.64120 0.05600 0.33680 0.41300
C 	C 	0.44410 0.35480 0.00140 0.08700
H 	H 	0.48450 0.36490 0.03420 -0.04300
C 	C 	0.72450 0.88670 0.29440 0.01500
H 	H 	0.74440 0.85400 0.28440 -0.01800
C 	C 	0.40240 0.41340 0.94060 -0.14700
H 	H 	0.41510 0.46310 0.93330 0.01700
C 	C 	0.68080 0.94800 0.23600 -0.12100
C 	C 	0.34290 0.39860 0.89150 0.04400
H 	H 	0.31470 0.43840 0.85190 -0.01800
O 	O 	0.22220 0.34490 0.79530 -0.56300
O 	O 	0.25450 0.23310 0.87550 -0.63700
O 	O 	0.52070 0.22060 0.11810 -0.62500
O 	O 	0.44260 0.14940 0.07820 -0.59800
O 	O 	0.64920 0.04760 0.39900 -0.61300
O 	O 	0.61150 0.11550 0.28380 -0.59400
O 	O 	0.67570 0.90580 0.12810 -0.55800
O 	O 	0.63440 0.03170 0.11680 -0.60400
O 	O 	0.36590 0.75600 0.17390 -0.50000
O 	O 	0.39720 0.55440 0.03720 -0.51200
O 	O 	0.33990 0.63860 0.06890 -0.50600
O 	O 	0.50530 0.55160 0.09900 -0.50900
O 	O 	0.53200 0.43490 0.20460 -0.53700
O 	O 	0.39740 0.71640 0.04000 -0.52600
O 	O 	0.50410 0.72320 0.10060 -0.53000
O 	O 	0.60470 0.64170 0.21940 -0.51700
O 	O 	0.53630 0.56600 0.27100 -1.86500
O 	O 	0.54940 0.63600 0.33320 -1.80400
O 	O 	0.51410 0.64100 0.20200 -1.67100
O 	O 	0.36860 0.51500 0.17400 -0.52000
O 	O 	0.46600 0.83800 0.29370 -0.54800
O 	O 	0.42300 0.84100 0.14150 -0.53700
O 	O 	0.42620 0.42800 0.14530 -0.54700
O 	O 	0.46390 0.70500 0.23100 -1.81800
W 	W 	0.94697 0.86447 0.55058 1.73200
W 	W 	0.07581 0.97625 0.70985 1.28200
W 	W 	0.87193 0.97616 0.59099 1.32700
W 	W 	0.07658 0.75271 0.70961 1.40900
W 	W 	0.86976 0.75306 0.59127 1.35900
Ce	Ce	0.11028 0.35773 0.67149 2.02100
Ce	Ce	0.16908 0.37307 0.01362 2.03800
N 	N 	0.15800 0.49680 0.75470 -0.21200
N 	N 	0.86770 0.23340 0.46570 -0.19100
C 	C 	0.82600 0.17630 0.40230 -0.14200
C 	C 	0.23590 0.62180 0.86490 -0.12600
H 	H 	0.26280 0.66370 0.90270 0.01700
C 	C 	0.96800 0.28900 0.57690 0.75100
C 	C 	0.17020 0.50800 0.82400 -0.13800
C 	C 	0.21040 0.57320 0.88310 0.03600
H 	H 	0.21830 0.58110 0.93160 -0.04600
C 	C 	0.92550 0.21690 0.51270 -0.16600
C 	C 	0.76150 0.20180 0.35360 0.45300
C 	C 	0.16200 0.53720 0.65320 0.37400
C 	C 	0.14120 0.44400 0.83680 0.41500
C 	C 	0.94410 0.14520 0.50140 0.10100
H 	H 	0.98450 0.13510 0.53420 0.04400
C 	C 	0.22450 0.61330 0.79440 0.01900
H 	H 	0.24440 0.64600 0.78440 -0.02300
C 	C 	0.90240 0.08660 0.44060 -0.11200
H 	H 	0.91510 0.03690 0.43330 0.04200
C 	C 	0.18080 0.55200 0.73600 -0.12900
C 	C 	0.84290 0.10140 0.39150 0.04000
H 	H 	0.81470 0.06160 0.35190 -0.01000
O 	O 	0.72220 0.15510 0.29530 -0.56000
O 	O 	0.75450 0.26690 0.37550 -0.63200
O 	O 	0.02070 0.27940 0.61810 -0.88200
O 	O 	0.94260 0.35060 0.57820 -0.60500
O 	O 	0.14920 0.45240 0.89900 -0.62800
O 	O 	0.11150 0.38450 0.78380 -0.61400
O 	O 	0.17570 0.59420 0.62810 -0.57000
O 	O 	0.13440 0.46830 0.61680 -0.63600
O 	O 	0.86590 0.74400 0.67390 -0.49000
O 	O 	0.89720 0.94560 0.53720 -0.52700
O 	O 	0.83990 0.86140 0.56890 -0.51000
O 	O 	0.00530 0.94840 0.59900 -0.67500
O 	O 	0.03200 0.06510 0.70460 -0.54000
O 	O 	0.89740 0.78360 0.54000 -0.53400
O 	O 	0.00410 0.77680 0.60060 -0.68900
O 	O 	0.10470 0.85830 0.71940 -0.50500
O 	O 	0.03630 0.93400 0.77100 -1.42600
O 	O 	0.04940 0.86400 0.83320 -1.39700
O 	O 	0.01410 0.85900 0.70200 -1.34600
O 	O 	0.86860 0.98500 0.67400 -0.51200
O 	O 	0.96600 0.66200 0.79370 -0.37500
O 	O 	0.92300 0.65900 0.64150 -0.38500
O 	O 	0.92620 0.07200 0.64530 -0.39200
O 	O 	0.96390 0.79500 0.73100 -1.26000
W 	W 	0.44697 0.36447 0.55058 1.46300
W 	W 	0.57581 0.47625 0.70985 1.40400
W 	W 	0.37193 0.47616 0.59099 1.45300
W 	W 	0.57658 0.25271 0.70961 1.53900
W 	W 	0.36976 0.25306 0.59127 1.47900
Ce	Ce	0.61028 0.85773 0.67149 2.03500
Ce	Ce	0.66908 0.87307 0.01362 2.04000
N 	N 	0.65800 0.99680 0.75470 -0.20600
N 	N 	0.36770 0.73340 0.46570 -0.20400
C 	C 	0.32600 0.67630 0.40230 -0.14300
C 	C 	0.73590 0.12180 0.86490 -0.12700
H 	H 	0.76280 0.16370 0.90270 0.01900
C 	C 	0.46800 0.78900 0.57690 0.43200
C 	C 	0.67020 0.00800 0.82400 -0.13900
C 	C 	0.71040 0.07320 0.88310 0.03600
H 	H 	0.71830 0.08110 0.93160 -0.04700
C 	C 	0.42550 0.71690 0.51270 -0.13300
C 	C 	0.26150 0.70180 0.35360 0.45000
C 	C 	0.66200 0.03720 0.65320 0.37300
C 	C 	0.64120 0.94400 0.83680 0.41700
C 	C 	0.44410 0.64520 0.50140 0.05100
H 	H 	0.48450 0.63510 0.53420 -0.03500
C 	C 	0.72450 0.11330 0.79440 0.01600
H 	H 	0.74440 0.14600 0.78440 -0.02000
C 	C 	0.40240 0.58660 0.44060 -0.10600
H 	H 	0.41510 0.53690 0.43330 0.00700
C 	C 	0.68080 0.05200 0.73600 -0.12500
C 	C 	0.34290 0.60140 0.39150 0.02500
H 	H 	0.31470 0.56160 0.35190 -0.00900
O 	O 	0.22220 0.65510 0.29530 -0.56000
O 	O 	0.25450 0.76690 0.37550 -0.63300
O 	O 	0.52070 0.77940 0.61810 -0.62700
O 	O 	0.44260 0.85060 0.57820 -0.60400
O 	O 	0.64920 0.95240 0.89900 -0.61800
O 	O 	0.61150 0.88450 0.78380 -0.59600
O 	O 	0.67570 0.09420 0.62810 -0.56100
O 	O 	0.63440 0.96830 0.61680 -0.60700
O 	O 	0.36590 0.24400 0.67390 -0.50000
O 	O 	0.39720 0.44560 0.53720 -0.51600
O 	O 	0.33990 0.36140 0.56890 -0.51000
O 	O 	0.50530 0.44840 0.59900 -0.51100
O 	O 	0.53200 0.56510 0.70460 -0.53700
O 	O 	0.39740 0.28360 0.54000 -0.52900
O 	O 	0.50410 0.27680 0.60060 -0.53200
O 	O 	0.60470 0.35830 0.71940 -0.51700
O 	O 	0.53630 0.43400 0.77100 -1.86200
O 	O 	0.54940 0.36400 0.83320 -1.80000
O 	O 	0.51410 0.35900 0.70200 -1.66800
O 	O 	0.36860 0.48500 0.67400 -0.52100
O 	O 	0.46600 0.16200 0.79370 -0.54900
O 	O 	0.42300 0.15900 0.64150 -0.53800
O 	O 	0.42620 0.57200 0.64530 -0.54900
O 	O 	0.46390 0.29500 0.73100 -1.81500
W 	W 	0.05303 0.86447 0.94942 0.95200
W 	W 	0.92419 0.97625 0.79015 1.27000
W 	W 	0.12807 0.97616 0.90901 1.29800
W 	W 	0.92342 0.75271 0.79039 1.38500
W 	W 	0.13024 0.75306 0.90873 1.32600
Ce	Ce	0.88972 0.35773 0.82851 2.05400
Ce	Ce	0.83092 0.37307 0.48638 2.04300
N 	N 	0.84200 0.49680 0.74530 -0.20300
N 	N 	0.13230 0.23340 0.03430 -0.20300
C 	C 	0.17400 0.17630 0.09770 -0.12300
C 	C 	0.76410 0.62180 0.63510 -0.11200
H 	H 	0.73720 0.66370 0.59730 0.01700
C 	C 	0.03200 0.28900 0.92310 0.12100
C 	C 	0.82980 0.50800 0.67600 -0.11700
C 	C 	0.78960 0.57320 0.61690 0.02500
H 	H 	0.78170 0.58110 0.56840 -0.03600
C 	C 	0.07450 0.21690 0.98730 -0.08600
C 	C 	0.23850 0.20180 0.14640 0.44600
C 	C 	0.83800 0.53720 0.84680 0.37400
C 	C 	0.85880 0.44400 0.66320 0.41600
C 	C 	0.05590 0.14520 0.99860 -0.04600
H 	H 	0.01550 0.13510 0.96580 -0.08900
C 	C 	0.77550 0.61330 0.70560 0.00900
H 	H 	0.75560 0.64600 0.71560 -0.01800
C 	C 	0.09760 0.08660 0.05940 -0.03700
H 	H 	0.08490 0.03690 0.06670 -0.02600
C 	C 	0.81920 0.55200 0.76400 -0.11100
C 	C 	0.15710 0.10140 0.10850 -0.01200
H 	H 	0.18530 0.06160 0.14810 0.00800
O 	O 	0.27780 0.15510 0.20470 -0.55800
O 	O 	0.24550 0.26690 0.12450 -0.62900
O 	O 	0.97930 0.27940 0.88190 -0.35200
O 	O 	0.05740 0.35060 0.92180 -0.57800
O 	O 	0.85080 0.45240 0.60100 -0.58100
O 	O 	0.88850 0.38450 0.71620 -0.54500
O 	O 	0.82430 0.59420 0.87190 -0.55600
O 	O 	0.86560 0.46830 0.88320 -0.57800
O 	O 	0.13410 0.74400 0.82610 -0.48400
O 	O 	0.10280 0.94560 0.96280 -0.48200
O 	O 	0.16010 0.86140 0.93110 -0.49200
O 	O 	0.99470 0.94840 0.90100 -0.32600
O 	O 	0.96800 0.06510 0.79540 -0.35600
O 	O 	0.10260 0.78360 0.96000 -0.50800
O 	O 	0.99590 0.77680 0.89940 -0.36000
O 	O 	0.89530 0.85830 0.78060 -0.50100
O 	O 	0.96370 0.93400 0.72900 -1.28800
O 	O 	0.95060 0.86400 0.66680 -1.24700
O 	O 	0.98590 0.85900 0.79800 -1.11600
O 	O 	0.13140 0.98500 0.82600 -0.50500
O 	O 	0.03400 0.66200 0.70630 -0.54000
O 	O 	0.07700 0.65900 0.85850 -0.51700
O 	O 	0.07380 0.07200 0.85470 -0.51600
O 	O 	0.03610 0.79500 0.76900 -1.38500
W 	W 	0.55303 0.36447 0.94942 1.45400
W 	W 	0.42419 0.47625 0.79015 1.40300
W 	W 	0.62807 0.47616 0.90901 1.44500
W 	W 	0.42342 0.25271 0.79039 1.53700
W 	W 	0.63024 0.25306 0.90873 1.47200
Ce	Ce	0.38972 0.85773 0.82851 2.03400
Ce	Ce	0.33092 0.87307 0.48638 2.03300
N 	N 	0.34200 0.99680 0.74530 -0.20600
N 	N 	0.63230 0.73340 0.03430 -0.19700
C 	C 	0.67400 0.67630 0.09770 -0.13200
C 	C 	0.26410 0.12180 0.63510 -0.12800
H 	H 	0.23720 0.16370 0.59730 0.02600
C 	C 	0.53200 0.78900 0.92310 0.43000
C 	C 	0.32980 0.00800 0.67600 -0.13700
C 	C 	0.28960 0.07320 0.61690 0.03800
H 	H 	0.28170 0.08110 0.56840 -0.04200
C 	C 	0.57450 0.71690 0.98730 -0.13700
C 	C 	0.73850 0.70180 0.14640 0.44700
C 	C 	0.33800 0.03720 0.84680 0.37300
C 	C 	0.35880 0.94400 0.66320 0.41600
C 	C 	0.55590 0.64520 0.99860 0.01800
H 	H 	0.51550 0.63510 0.96580 -0.02800
C 	C 	0.27550 0.11330 0.70560 0.02000
H 	H 	0.25560 0.14600 0.71560 -0.02200
C 	C 	0.59760 0.58660 0.05940 -0.06800
H 	H 	0.58490 0.53690 0.06670 -0.00100
C 	C 	0.31920 0.05200 0.76400 -0.12600
C 	C 	0.65710 0.60140 0.10850 0.00700
H 	H 	0.68530 0.56160 0.14810 -0.00200
O 	O 	0.77780 0.65510 0.20470 -0.55500
O 	O 	0.74550 0.76690 0.12450 -0.62400
O 	O 	0.47930 0.77940 0.88190 -0.62800
O 	O 	0.55740 0.85060 0.92180 -0.61000
O 	O 	0.35080 0.95240 0.60100 -0.61300
O 	O 	0.38850 0.88450 0.71620 -0.59500
O 	O 	0.32430 0.09420 0.87190 -0.56500
O 	O 	0.36560 0.96830 0.88320 -0.61100
O 	O 	0.63410 0.24400 0.82610 -0.50000
O 	O 	0.60280 0.44560 0.96280 -0.51900
O 	O 	0.66010 0.36140 0.93110 -0.51300
O 	O 	0.49470 0.44840 0.90100 -0.51200
O 	O 	0.46800 0.56510 0.79540 -0.53700
O 	O 	0.60260 0.28360 0.96000 -0.53200
O 	O 	0.49590 0.27680 0.89940 -0.53400
O 	O 	0.39530 0.35830 0.78060 -0.51700
O 	O 	0.46370 0.43400 0.72900 -1.86200
O 	O 	0.45060 0.36400 0.66680 -1.80100
O 	O 	0.48590 0.35900 0.79800 -1.66700
O 	O 	0.63140 0.48500 0.82600 -0.52100
O 	O 	0.53400 0.16200 0.70630 -0.54800
O 	O 	0.57700 0.15900 0.85850 -0.53900
O 	O 	0.57380 0.57200 0.85470 -0.55000
O 	O 	0.53610 0.29500 0.76900 -1.81500
W 	W 	0.00000 0.91075 0.25000 1.31700
W 	W 	0.00000 0.35810 0.25000 1.33800
K 	K 	0.00000 0.63610 0.25000 0.60500
O 	O 	0.00000 0.46290 0.25000 -0.62300
O 	O 	0.00000 0.80100 0.25000 -0.60600
B 	B 	0.00000 0.13600 0.25000 6.86500
W 	W 	0.50000 0.41075 0.25000 1.82000
W 	W 	0.50000 0.85810 0.25000 1.84000
K 	K 	0.50000 0.13610 0.25000 0.64400
O 	O 	0.50000 0.96290 0.25000 -0.62100
O 	O 	0.50000 0.30100 0.25000 -0.59400
B 	B 	0.50000 0.63600 0.25000 9.58500
W 	W 	0.00000 0.08925 0.75000 1.30700
W 	W 	0.00000 0.64190 0.75000 1.33000
K 	K 	0.00000 0.36390 0.75000 0.60300
O 	O 	0.00000 0.53710 0.75000 -0.62600
O 	O 	0.00000 0.19900 0.75000 -0.60900
B 	B 	0.00000 0.86400 0.75000 6.82900
W 	W 	0.50000 0.58925 0.75000 1.81900
W 	W 	0.50000 0.14190 0.75000 1.83900
K 	K 	0.50000 0.86390 0.75000 0.64400
O 	O 	0.50000 0.03710 0.75000 -0.62300
O 	O 	0.50000 0.69900 0.75000 -0.59500
B 	B 	0.50000 0.36400 0.75000 9.56900
