data_crystal

_cell_length_a 35.25630
_cell_length_b 15.46250
_cell_length_c 25.05100
_cell_angle_alpha 90.00000
_cell_angle_beta  122.79400
_cell_angle_gamma 90.00000

_symmetry_space_group_name_	'P 1'
_symmetry_space_group_name_H-M	'P 1'

loop_
_symmetry_equiv_pos_as_xyz
  x,y,z

loop_
_atom_site_label
_atom_site_type_symbol
_atom_site_fract_x
_atom_site_fract_y
_atom_site_fract_z
_atom_site_charge
N 	N 	0.34270 0.96820 0.35330 -0.23900
C 	C 	0.33420 0.94170 0.39670 0.09100
H 	H 	0.31060 0.96050 0.40030 -0.01000
N 	N 	0.36560 0.88350 0.43410 -0.09400
N 	N 	0.39350 0.87400 0.41380 -0.07600
C 	C 	0.37930 0.92630 0.36380 0.07800
H 	H 	0.39260 0.93250 0.34060 -0.00800
C 	C 	0.42840 0.81080 0.43480 -0.12800
H 	H 	0.44150 0.79880 0.47940 0.07700
H 	H 	0.45200 0.83350 0.42990 0.07000
C 	C 	0.41030 0.72940 0.39770 0.06600
C 	C 	0.39960 0.72300 0.33610 -0.06600
H 	H 	0.40090 0.77340 0.31660 0.05000
C 	C 	0.40600 0.65410 0.42330 -0.07000
H 	H 	0.41340 0.65420 0.46500 0.05500
N 	N 	0.25440 0.48170 0.24210 -0.24200
C 	C 	0.26820 0.40420 0.26590 0.10500
H 	H 	0.25070 0.36120 0.26820 -0.02000
N 	N 	0.31090 0.39790 0.28590 -0.10100
N 	N 	0.32360 0.47150 0.27450 -0.07900
C 	C 	0.28860 0.52330 0.24750 0.09300
H 	H 	0.28820 0.57970 0.23430 -0.01700
C 	C 	0.36830 0.49150 0.29100 -0.13200
H 	H 	0.36870 0.49780 0.25280 0.07200
H 	H 	0.38870 0.44500 0.31620 0.08000
C 	C 	0.38310 0.57350 0.32800 0.06600
C 	C 	0.38730 0.64910 0.30250 -0.07700
H 	H 	0.38160 0.64900 0.26160 0.05000
C 	C 	0.39080 0.57800 0.38820 -0.07200
H 	H 	0.38570 0.52940 0.40540 0.05800
N 	N 	0.26380 0.12400 0.20190 -0.24300
C 	C 	0.26540 0.20820 0.20790 0.10200
H 	H 	0.28270 0.23890 0.24560 -0.01500
N 	N 	0.23860 0.24160 0.15140 -0.09200
N 	N 	0.22040 0.17810 0.11070 -0.07900
C 	C 	0.23590 0.10540 0.14190 0.09900
H 	H 	0.22850 0.05020 0.12440 -0.01900
C 	C 	0.19400 0.18900 0.04320 -0.13400
H 	H 	0.16980 0.23010 0.03210 0.08200
H 	H 	0.18040 0.13460 0.02310 0.06900
C 	C 	0.22070 0.22140 0.01850 0.07900
C 	C 	0.25000 0.16640 0.01620 -0.07500
H 	H 	0.25060 0.10870 0.02720 0.05400
C 	C 	0.22030 0.30570 0.00250 -0.08100
H 	H 	0.20080 0.34490 0.00380 0.06000
N 	N 	0.35540 0.09210 0.27710 -0.23700
C 	C 	0.38120 0.16090 0.31210 0.07800
H 	H 	0.38420 0.18190 0.34900 -0.00900
N 	N 	0.40180 0.19350 0.28340 -0.08900
N 	N 	0.38880 0.14490 0.23080 -0.07400
C 	C 	0.36010 0.08230 0.22690 0.06900
H 	H 	0.34620 0.04020 0.19550 -0.01500
C 	C 	0.40390 0.14200 0.18800 -0.13100
H 	H 	0.38650 0.18260 0.15390 0.07500
H 	H 	0.39790 0.08430 0.16940 0.06600
C 	C 	0.45190 0.16100 0.21800 0.07500
C 	C 	0.47660 0.08700 0.23500 -0.07100
H 	H 	0.46180 0.03410 0.22810 0.05300
C 	C 	0.47650 0.23500 0.23400 -0.07300
H 	H 	0.46140 0.28790 0.22240 0.05800
Cu	Cu	0.30333 0.04320 0.27651 0.85000
N 	N 	0.84270 0.46820 0.35330 -0.24000
C 	C 	0.83420 0.44170 0.39670 0.09000
H 	H 	0.81060 0.46050 0.40030 -0.01100
N 	N 	0.86560 0.38350 0.43410 -0.09500
N 	N 	0.89350 0.37400 0.41380 -0.07700
C 	C 	0.87930 0.42630 0.36380 0.07700
H 	H 	0.89260 0.43250 0.34060 -0.01000
C 	C 	0.92840 0.31080 0.43480 -0.13000
H 	H 	0.94150 0.29880 0.47940 0.07600
H 	H 	0.95200 0.33350 0.42990 0.06900
C 	C 	0.91030 0.22940 0.39770 0.06600
C 	C 	0.89960 0.22300 0.33610 -0.06800
H 	H 	0.90090 0.27340 0.31660 0.04900
C 	C 	0.90600 0.15410 0.42330 -0.07200
H 	H 	0.91340 0.15420 0.46500 0.05400
N 	N 	0.75440 0.98170 0.24210 -0.24200
C 	C 	0.76820 0.90420 0.26590 0.10400
H 	H 	0.75070 0.86120 0.26820 -0.02100
N 	N 	0.81090 0.89790 0.28590 -0.10100
N 	N 	0.82360 0.97150 0.27450 -0.07900
C 	C 	0.78860 0.02330 0.24750 0.09200
H 	H 	0.78820 0.07970 0.23430 -0.01700
C 	C 	0.86830 0.99150 0.29100 -0.13100
H 	H 	0.86870 0.99780 0.25280 0.07200
H 	H 	0.88870 0.94500 0.31620 0.07900
C 	C 	0.88310 0.07350 0.32800 0.06400
C 	C 	0.88730 0.14910 0.30250 -0.07600
H 	H 	0.88160 0.14900 0.26160 0.05000
C 	C 	0.89080 0.07800 0.38820 -0.07100
H 	H 	0.88570 0.02940 0.40540 0.05800
N 	N 	0.76380 0.62400 0.20190 -0.24300
C 	C 	0.76540 0.70820 0.20790 0.10200
H 	H 	0.78270 0.73890 0.24560 -0.01500
N 	N 	0.73860 0.74160 0.15140 -0.09200
N 	N 	0.72040 0.67810 0.11070 -0.07900
C 	C 	0.73590 0.60540 0.14190 0.10000
H 	H 	0.72850 0.55020 0.12440 -0.01900
C 	C 	0.69400 0.68900 0.04320 -0.13100
H 	H 	0.66980 0.73010 0.03210 0.08100
H 	H 	0.68040 0.63460 0.02310 0.06800
C 	C 	0.72070 0.72140 0.01850 0.07400
C 	C 	0.75000 0.66640 0.01620 -0.06800
H 	H 	0.75060 0.60870 0.02720 0.05200
C 	C 	0.72030 0.80570 0.00250 -0.07400
H 	H 	0.70080 0.84490 0.00380 0.05800
N 	N 	0.85540 0.59210 0.27710 -0.23700
C 	C 	0.88120 0.66090 0.31210 0.07800
H 	H 	0.88420 0.68190 0.34900 -0.00900
N 	N 	0.90180 0.69350 0.28340 -0.08900
N 	N 	0.88880 0.64490 0.23080 -0.07400
C 	C 	0.86010 0.58230 0.22690 0.06900
H 	H 	0.84620 0.54020 0.19550 -0.01500
C 	C 	0.90390 0.64200 0.18800 -0.13100
H 	H 	0.88650 0.68260 0.15390 0.07500
H 	H 	0.89790 0.58430 0.16940 0.06700
C 	C 	0.95190 0.66100 0.21800 0.07600
C 	C 	0.97660 0.58700 0.23500 -0.07200
H 	H 	0.96180 0.53410 0.22810 0.05300
C 	C 	0.97650 0.73500 0.23400 -0.07300
H 	H 	0.96140 0.78790 0.22240 0.05800
Cu	Cu	0.80333 0.54320 0.27651 0.85000
N 	N 	0.65730 0.96820 0.14670 -0.24000
C 	C 	0.66580 0.94170 0.10330 0.09000
H 	H 	0.68940 0.96050 0.09970 -0.01000
N 	N 	0.63440 0.88350 0.06590 -0.09500
N 	N 	0.60650 0.87400 0.08620 -0.07700
C 	C 	0.62070 0.92630 0.13620 0.07700
H 	H 	0.60740 0.93250 0.15940 -0.00900
C 	C 	0.57160 0.81080 0.06520 -0.13000
H 	H 	0.55850 0.79880 0.02060 0.07700
H 	H 	0.54800 0.83350 0.07010 0.06900
C 	C 	0.58970 0.72940 0.10230 0.06600
C 	C 	0.60040 0.72300 0.16390 -0.06700
H 	H 	0.59910 0.77340 0.18340 0.04900
C 	C 	0.59400 0.65410 0.07670 -0.07100
H 	H 	0.58660 0.65420 0.03500 0.05400
N 	N 	0.74560 0.48170 0.25790 -0.24300
C 	C 	0.73180 0.40420 0.23410 0.10400
H 	H 	0.74930 0.36120 0.23180 -0.02100
N 	N 	0.68910 0.39790 0.21410 -0.10100
N 	N 	0.67640 0.47150 0.22550 -0.07900
C 	C 	0.71140 0.52330 0.25250 0.09300
H 	H 	0.71180 0.57970 0.26570 -0.01700
C 	C 	0.63170 0.49150 0.20900 -0.13200
H 	H 	0.63130 0.49780 0.24720 0.07200
H 	H 	0.61130 0.44500 0.18380 0.08000
C 	C 	0.61690 0.57350 0.17200 0.06600
C 	C 	0.61270 0.64910 0.19750 -0.07700
H 	H 	0.61840 0.64900 0.23840 0.05000
C 	C 	0.60920 0.57800 0.11180 -0.07100
H 	H 	0.61430 0.52940 0.09460 0.05800
N 	N 	0.73620 0.12400 0.29810 -0.24300
C 	C 	0.73460 0.20820 0.29210 0.10200
H 	H 	0.71730 0.23890 0.25440 -0.01500
N 	N 	0.76140 0.24160 0.34860 -0.09200
N 	N 	0.77960 0.17810 0.38930 -0.07900
C 	C 	0.76410 0.10540 0.35810 0.09900
H 	H 	0.77150 0.05020 0.37560 -0.01900
C 	C 	0.80600 0.18900 0.45680 -0.13200
H 	H 	0.83020 0.23010 0.46790 0.08100
H 	H 	0.81960 0.13460 0.47690 0.06900
C 	C 	0.77930 0.22140 0.48150 0.07600
C 	C 	0.75000 0.16640 0.48380 -0.07100
H 	H 	0.74940 0.10870 0.47280 0.05300
C 	C 	0.77970 0.30570 0.49750 -0.07800
H 	H 	0.79920 0.34490 0.49620 0.05900
N 	N 	0.64460 0.09210 0.22290 -0.23800
C 	C 	0.61880 0.16090 0.18790 0.07800
H 	H 	0.61580 0.18190 0.15100 -0.00900
N 	N 	0.59820 0.19350 0.21660 -0.08900
N 	N 	0.61120 0.14490 0.26920 -0.07400
C 	C 	0.63990 0.08230 0.27310 0.06900
H 	H 	0.65380 0.04020 0.30450 -0.01500
C 	C 	0.59610 0.14200 0.31200 -0.13100
H 	H 	0.61350 0.18260 0.34610 0.07500
H 	H 	0.60210 0.08430 0.33060 0.06700
C 	C 	0.54810 0.16100 0.28200 0.07600
C 	C 	0.52340 0.08700 0.26500 -0.07200
H 	H 	0.53820 0.03410 0.27190 0.05300
C 	C 	0.52350 0.23500 0.26600 -0.07300
H 	H 	0.53860 0.28790 0.27760 0.05800
Cu	Cu	0.69667 0.04320 0.22349 0.84900
N 	N 	0.15730 0.46820 0.14670 -0.24000
C 	C 	0.16580 0.44170 0.10330 0.09000
H 	H 	0.18940 0.46050 0.09970 -0.01100
N 	N 	0.13440 0.38350 0.06590 -0.09500
N 	N 	0.10650 0.37400 0.08620 -0.07700
C 	C 	0.12070 0.42630 0.13620 0.07700
H 	H 	0.10740 0.43250 0.15940 -0.01000
C 	C 	0.07160 0.31080 0.06520 -0.13000
H 	H 	0.05850 0.29880 0.02060 0.07600
H 	H 	0.04800 0.33350 0.07010 0.06900
C 	C 	0.08970 0.22940 0.10230 0.06600
C 	C 	0.10040 0.22300 0.16390 -0.06800
H 	H 	0.09910 0.27340 0.18340 0.04900
C 	C 	0.09400 0.15410 0.07670 -0.07200
H 	H 	0.08660 0.15420 0.03500 0.05400
N 	N 	0.24560 0.98170 0.25790 -0.24200
C 	C 	0.23180 0.90420 0.23410 0.10400
H 	H 	0.24930 0.86120 0.23180 -0.02100
N 	N 	0.18910 0.89790 0.21410 -0.10100
N 	N 	0.17640 0.97150 0.22550 -0.07900
C 	C 	0.21140 0.02330 0.25250 0.09200
H 	H 	0.21180 0.07970 0.26570 -0.01700
C 	C 	0.13170 0.99150 0.20900 -0.13000
H 	H 	0.13130 0.99780 0.24720 0.07200
H 	H 	0.11130 0.94500 0.18380 0.07900
C 	C 	0.11690 0.07350 0.17200 0.06400
C 	C 	0.11270 0.14910 0.19750 -0.07600
H 	H 	0.11840 0.14900 0.23840 0.05000
C 	C 	0.10920 0.07800 0.11180 -0.07000
H 	H 	0.11430 0.02940 0.09460 0.05800
N 	N 	0.23620 0.62400 0.29810 -0.24300
C 	C 	0.23460 0.70820 0.29210 0.10200
H 	H 	0.21730 0.73890 0.25440 -0.01500
N 	N 	0.26140 0.74160 0.34860 -0.09200
N 	N 	0.27960 0.67810 0.38930 -0.07900
C 	C 	0.26410 0.60540 0.35810 0.09900
H 	H 	0.27150 0.55020 0.37560 -0.01900
C 	C 	0.30600 0.68900 0.45680 -0.13200
H 	H 	0.33020 0.73010 0.46790 0.08100
H 	H 	0.31960 0.63460 0.47690 0.06900
C 	C 	0.27930 0.72140 0.48150 0.07600
C 	C 	0.25000 0.66640 0.48380 -0.07100
H 	H 	0.24940 0.60870 0.47280 0.05300
C 	C 	0.27970 0.80570 0.49750 -0.07700
H 	H 	0.29920 0.84490 0.49620 0.05900
N 	N 	0.14460 0.59210 0.22290 -0.23700
C 	C 	0.11880 0.66090 0.18790 0.07800
H 	H 	0.11580 0.68190 0.15100 -0.00900
N 	N 	0.09820 0.69350 0.21660 -0.08900
N 	N 	0.11120 0.64490 0.26920 -0.07400
C 	C 	0.13990 0.58230 0.27310 0.06900
H 	H 	0.15380 0.54020 0.30450 -0.01500
C 	C 	0.09610 0.64200 0.31200 -0.13100
H 	H 	0.11350 0.68260 0.34610 0.07500
H 	H 	0.10210 0.58430 0.33060 0.06700
C 	C 	0.04810 0.66100 0.28200 0.07600
C 	C 	0.02340 0.58700 0.26500 -0.07100
H 	H 	0.03820 0.53410 0.27190 0.05300
C 	C 	0.02350 0.73500 0.26600 -0.07300
H 	H 	0.03860 0.78790 0.27760 0.05800
Cu	Cu	0.19667 0.54320 0.22349 0.85000
N 	N 	0.65730 0.03180 0.64670 -0.24000
C 	C 	0.66580 0.05830 0.60330 0.09000
H 	H 	0.68940 0.03950 0.59970 -0.01100
N 	N 	0.63440 0.11650 0.56590 -0.09500
N 	N 	0.60650 0.12600 0.58620 -0.07700
C 	C 	0.62070 0.07370 0.63620 0.07700
H 	H 	0.60740 0.06750 0.65940 -0.00900
C 	C 	0.57160 0.18920 0.56520 -0.12900
H 	H 	0.55850 0.20120 0.52060 0.07600
H 	H 	0.54800 0.16650 0.57010 0.06900
C 	C 	0.58970 0.27060 0.60230 0.06500
C 	C 	0.60040 0.27700 0.66390 -0.06700
H 	H 	0.59910 0.22660 0.68340 0.04900
C 	C 	0.59400 0.34590 0.57670 -0.07100
H 	H 	0.58660 0.34580 0.53500 0.05400
N 	N 	0.74560 0.51830 0.75790 -0.24300
C 	C 	0.73180 0.59580 0.73410 0.10400
H 	H 	0.74930 0.63880 0.73180 -0.02100
N 	N 	0.68910 0.60210 0.71410 -0.10100
N 	N 	0.67640 0.52850 0.72550 -0.07900
C 	C 	0.71140 0.47670 0.75250 0.09300
H 	H 	0.71180 0.42030 0.76570 -0.01700
C 	C 	0.63170 0.50850 0.70900 -0.13200
H 	H 	0.63130 0.50220 0.74720 0.07200
H 	H 	0.61130 0.55500 0.68380 0.08000
C 	C 	0.61690 0.42650 0.67200 0.06600
C 	C 	0.61270 0.35090 0.69750 -0.07700
H 	H 	0.61840 0.35100 0.73840 0.05000
C 	C 	0.60920 0.42200 0.61180 -0.07200
H 	H 	0.61430 0.47060 0.59460 0.05800
N 	N 	0.73620 0.87600 0.79810 -0.24300
C 	C 	0.73460 0.79180 0.79210 0.10200
H 	H 	0.71730 0.76110 0.75440 -0.01500
N 	N 	0.76140 0.75840 0.84860 -0.09200
N 	N 	0.77960 0.82190 0.88930 -0.07900
C 	C 	0.76410 0.89460 0.85810 0.09900
H 	H 	0.77150 0.94980 0.87560 -0.01900
C 	C 	0.80600 0.81100 0.95680 -0.13400
H 	H 	0.83020 0.76990 0.96790 0.08200
H 	H 	0.81960 0.86540 0.97690 0.06900
C 	C 	0.77930 0.77860 0.98150 0.07900
C 	C 	0.75000 0.83360 0.98380 -0.07500
H 	H 	0.74940 0.89130 0.97280 0.05400
C 	C 	0.77970 0.69430 0.99750 -0.08100
H 	H 	0.79920 0.65510 0.99620 0.06000
N 	N 	0.64460 0.90790 0.72290 -0.23700
C 	C 	0.61880 0.83910 0.68790 0.07800
H 	H 	0.61580 0.81810 0.65100 -0.00900
N 	N 	0.59820 0.80650 0.71660 -0.08900
N 	N 	0.61120 0.85510 0.76920 -0.07400
C 	C 	0.63990 0.91770 0.77310 0.06900
H 	H 	0.65380 0.95980 0.80450 -0.01500
C 	C 	0.59610 0.85800 0.81200 -0.13100
H 	H 	0.61350 0.81740 0.84610 0.07500
H 	H 	0.60210 0.91570 0.83060 0.06600
C 	C 	0.54810 0.83900 0.78200 0.07500
C 	C 	0.52340 0.91300 0.76500 -0.07100
H 	H 	0.53820 0.96590 0.77190 0.05300
C 	C 	0.52350 0.76500 0.76600 -0.07300
H 	H 	0.53860 0.71210 0.77760 0.05800
Cu	Cu	0.69667 0.95680 0.72349 0.85000
N 	N 	0.15730 0.53180 0.64670 -0.24000
C 	C 	0.16580 0.55830 0.60330 0.09000
H 	H 	0.18940 0.53950 0.59970 -0.01100
N 	N 	0.13440 0.61650 0.56590 -0.09500
N 	N 	0.10650 0.62600 0.58620 -0.07700
C 	C 	0.12070 0.57370 0.63620 0.07700
H 	H 	0.10740 0.56750 0.65940 -0.01000
C 	C 	0.07160 0.68920 0.56520 -0.13000
H 	H 	0.05850 0.70120 0.52060 0.07600
H 	H 	0.04800 0.66650 0.57010 0.06900
C 	C 	0.08970 0.77060 0.60230 0.06600
C 	C 	0.10040 0.77700 0.66390 -0.06800
H 	H 	0.09910 0.72660 0.68340 0.04900
C 	C 	0.09400 0.84590 0.57670 -0.07200
H 	H 	0.08660 0.84580 0.53500 0.05400
N 	N 	0.24560 0.01830 0.75790 -0.24200
C 	C 	0.23180 0.09580 0.73410 0.10400
H 	H 	0.24930 0.13880 0.73180 -0.02100
N 	N 	0.18910 0.10210 0.71410 -0.10100
N 	N 	0.17640 0.02850 0.72550 -0.07900
C 	C 	0.21140 0.97670 0.75250 0.09200
H 	H 	0.21180 0.92030 0.76570 -0.01700
C 	C 	0.13170 0.00850 0.70900 -0.13100
H 	H 	0.13130 0.00220 0.74720 0.07200
H 	H 	0.11130 0.05500 0.68380 0.07900
C 	C 	0.11690 0.92650 0.67200 0.06400
C 	C 	0.11270 0.85090 0.69750 -0.07600
H 	H 	0.11840 0.85100 0.73840 0.05000
C 	C 	0.10920 0.92200 0.61180 -0.07100
H 	H 	0.11430 0.97060 0.59460 0.05800
N 	N 	0.23620 0.37600 0.79810 -0.24300
C 	C 	0.23460 0.29180 0.79210 0.10200
H 	H 	0.21730 0.26110 0.75440 -0.01500
N 	N 	0.26140 0.25840 0.84860 -0.09200
N 	N 	0.27960 0.32190 0.88930 -0.07900
C 	C 	0.26410 0.39460 0.85810 0.10000
H 	H 	0.27150 0.44980 0.87560 -0.01900
C 	C 	0.30600 0.31100 0.95680 -0.13100
H 	H 	0.33020 0.26990 0.96790 0.08100
H 	H 	0.31960 0.36540 0.97690 0.06800
C 	C 	0.27930 0.27860 0.98150 0.07400
C 	C 	0.25000 0.33360 0.98380 -0.06800
H 	H 	0.24940 0.39130 0.97280 0.05200
C 	C 	0.27970 0.19430 0.99750 -0.07400
H 	H 	0.29920 0.15510 0.99620 0.05800
N 	N 	0.14460 0.40790 0.72290 -0.23700
C 	C 	0.11880 0.33910 0.68790 0.07800
H 	H 	0.11580 0.31810 0.65100 -0.00900
N 	N 	0.09820 0.30650 0.71660 -0.08900
N 	N 	0.11120 0.35510 0.76920 -0.07400
C 	C 	0.13990 0.41770 0.77310 0.06900
H 	H 	0.15380 0.45980 0.80450 -0.01500
C 	C 	0.09610 0.35800 0.81200 -0.13100
H 	H 	0.11350 0.31740 0.84610 0.07500
H 	H 	0.10210 0.41570 0.83060 0.06700
C 	C 	0.04810 0.33900 0.78200 0.07600
C 	C 	0.02340 0.41300 0.76500 -0.07200
H 	H 	0.03820 0.46590 0.77190 0.05300
C 	C 	0.02350 0.26500 0.76600 -0.07300
H 	H 	0.03860 0.21210 0.77760 0.05800
Cu	Cu	0.19667 0.45680 0.72349 0.85000
N 	N 	0.34270 0.03180 0.85330 -0.24000
C 	C 	0.33420 0.05830 0.89670 0.09000
H 	H 	0.31060 0.03950 0.90030 -0.01000
N 	N 	0.36560 0.11650 0.93410 -0.09500
N 	N 	0.39350 0.12600 0.91380 -0.07700
C 	C 	0.37930 0.07370 0.86380 0.07700
H 	H 	0.39260 0.06750 0.84060 -0.00900
C 	C 	0.42840 0.18920 0.93480 -0.13000
H 	H 	0.44150 0.20120 0.97940 0.07700
H 	H 	0.45200 0.16650 0.92990 0.06900
C 	C 	0.41030 0.27060 0.89770 0.06600
C 	C 	0.39960 0.27700 0.83610 -0.06700
H 	H 	0.40090 0.22660 0.81660 0.04900
C 	C 	0.40600 0.34590 0.92330 -0.07100
H 	H 	0.41340 0.34580 0.96500 0.05400
N 	N 	0.25440 0.51830 0.74210 -0.24300
C 	C 	0.26820 0.59580 0.76590 0.10400
H 	H 	0.25070 0.63880 0.76820 -0.02100
N 	N 	0.31090 0.60210 0.78590 -0.10100
N 	N 	0.32360 0.52850 0.77450 -0.07900
C 	C 	0.28860 0.47670 0.74750 0.09300
H 	H 	0.28820 0.42030 0.73430 -0.01700
C 	C 	0.36830 0.50850 0.79100 -0.13200
H 	H 	0.36870 0.50220 0.75280 0.07200
H 	H 	0.38870 0.55500 0.81620 0.08000
C 	C 	0.38310 0.42650 0.82800 0.06600
C 	C 	0.38730 0.35090 0.80250 -0.07700
H 	H 	0.38160 0.35100 0.76160 0.05000
C 	C 	0.39080 0.42200 0.88820 -0.07100
H 	H 	0.38570 0.47060 0.90540 0.05800
N 	N 	0.26380 0.87600 0.70190 -0.24300
C 	C 	0.26540 0.79180 0.70790 0.10200
H 	H 	0.28270 0.76110 0.74560 -0.01500
N 	N 	0.23860 0.75840 0.65140 -0.09200
N 	N 	0.22040 0.82190 0.61070 -0.07900
C 	C 	0.23590 0.89460 0.64190 0.09900
H 	H 	0.22850 0.94980 0.62440 -0.01900
C 	C 	0.19400 0.81100 0.54320 -0.13200
H 	H 	0.16980 0.76990 0.53210 0.08100
H 	H 	0.18040 0.86540 0.52310 0.06900
C 	C 	0.22070 0.77860 0.51850 0.07600
C 	C 	0.25000 0.83360 0.51620 -0.07100
H 	H 	0.25060 0.89130 0.52720 0.05300
C 	C 	0.22030 0.69430 0.50250 -0.07800
H 	H 	0.20080 0.65510 0.50380 0.05900
N 	N 	0.35540 0.90790 0.77710 -0.23800
C 	C 	0.38120 0.83910 0.81210 0.07800
H 	H 	0.38420 0.81810 0.84900 -0.00900
N 	N 	0.40180 0.80650 0.78340 -0.08900
N 	N 	0.38880 0.85510 0.73080 -0.07400
C 	C 	0.36010 0.91770 0.72690 0.06900
H 	H 	0.34620 0.95980 0.69550 -0.01500
C 	C 	0.40390 0.85800 0.68800 -0.13100
H 	H 	0.38650 0.81740 0.65390 0.07500
H 	H 	0.39790 0.91570 0.66940 0.06700
C 	C 	0.45190 0.83900 0.71800 0.07600
C 	C 	0.47660 0.91300 0.73500 -0.07200
H 	H 	0.46180 0.96590 0.72810 0.05300
C 	C 	0.47650 0.76500 0.73400 -0.07300
H 	H 	0.46140 0.71210 0.72240 0.05800
Cu	Cu	0.30333 0.95680 0.77651 0.84900
N 	N 	0.84270 0.53180 0.85330 -0.24000
C 	C 	0.83420 0.55830 0.89670 0.09000
H 	H 	0.81060 0.53950 0.90030 -0.01100
N 	N 	0.86560 0.61650 0.93410 -0.09500
N 	N 	0.89350 0.62600 0.91380 -0.07700
C 	C 	0.87930 0.57370 0.86380 0.07700
H 	H 	0.89260 0.56750 0.84060 -0.01000
C 	C 	0.92840 0.68920 0.93480 -0.13000
H 	H 	0.94150 0.70120 0.97940 0.07600
H 	H 	0.95200 0.66650 0.92990 0.06900
C 	C 	0.91030 0.77060 0.89770 0.06600
C 	C 	0.89960 0.77700 0.83610 -0.06800
H 	H 	0.90090 0.72660 0.81660 0.04900
C 	C 	0.90600 0.84590 0.92330 -0.07200
H 	H 	0.91340 0.84580 0.96500 0.05400
N 	N 	0.75440 0.01830 0.74210 -0.24200
C 	C 	0.76820 0.09580 0.76590 0.10400
H 	H 	0.75070 0.13880 0.76820 -0.02100
N 	N 	0.81090 0.10210 0.78590 -0.10100
N 	N 	0.82360 0.02850 0.77450 -0.07900
C 	C 	0.78860 0.97670 0.74750 0.09200
H 	H 	0.78820 0.92030 0.73430 -0.01700
C 	C 	0.86830 0.00850 0.79100 -0.13000
H 	H 	0.86870 0.00220 0.75280 0.07200
H 	H 	0.88870 0.05500 0.81620 0.07900
C 	C 	0.88310 0.92650 0.82800 0.06400
C 	C 	0.88730 0.85090 0.80250 -0.07600
H 	H 	0.88160 0.85100 0.76160 0.05000
C 	C 	0.89080 0.92200 0.88820 -0.07000
H 	H 	0.88570 0.97060 0.90540 0.05800
N 	N 	0.76380 0.37600 0.70190 -0.24300
C 	C 	0.76540 0.29180 0.70790 0.10200
H 	H 	0.78270 0.26110 0.74560 -0.01500
N 	N 	0.73860 0.25840 0.65140 -0.09200
N 	N 	0.72040 0.32190 0.61070 -0.07900
C 	C 	0.73590 0.39460 0.64190 0.09900
H 	H 	0.72850 0.44980 0.62440 -0.01900
C 	C 	0.69400 0.31100 0.54320 -0.13200
H 	H 	0.66980 0.26990 0.53210 0.08100
H 	H 	0.68040 0.36540 0.52310 0.06900
C 	C 	0.72070 0.27860 0.51850 0.07600
C 	C 	0.75000 0.33360 0.51620 -0.07100
H 	H 	0.75060 0.39130 0.52720 0.05300
C 	C 	0.72030 0.19430 0.50250 -0.07700
H 	H 	0.70080 0.15510 0.50380 0.05900
N 	N 	0.85540 0.40790 0.77710 -0.23700
C 	C 	0.88120 0.33910 0.81210 0.07800
H 	H 	0.88420 0.31810 0.84900 -0.00900
N 	N 	0.90180 0.30650 0.78340 -0.08900
N 	N 	0.88880 0.35510 0.73080 -0.07400
C 	C 	0.86010 0.41770 0.72690 0.06900
H 	H 	0.84620 0.45980 0.69550 -0.01500
C 	C 	0.90390 0.35800 0.68800 -0.13100
H 	H 	0.88650 0.31740 0.65390 0.07500
H 	H 	0.89790 0.41570 0.66940 0.06700
C 	C 	0.95190 0.33900 0.71800 0.07600
C 	C 	0.97660 0.41300 0.73500 -0.07100
H 	H 	0.96180 0.46590 0.72810 0.05300
C 	C 	0.97650 0.26500 0.73400 -0.07300
H 	H 	0.96140 0.21210 0.72240 0.05800
Cu	Cu	0.80333 0.45680 0.77651 0.85000
