data_crystal

_cell_length_a 18.79800
_cell_length_b 18.79800
_cell_length_c 18.79800
_cell_angle_alpha 90.00000
_cell_angle_beta  90.00000
_cell_angle_gamma 90.00000

_symmetry_space_group_name_	'P 1'
_symmetry_space_group_name_H-M	'P 1'

loop_
_symmetry_equiv_pos_as_xyz
  x,y,z

loop_
_atom_site_label
_atom_site_type_symbol
_atom_site_fract_x
_atom_site_fract_y
_atom_site_fract_z
_atom_site_charge
Cd	Cd	0.50000 0.25000 -0.00000 1.21100
Cd	Cd	0.50000 0.75000 -0.00000 1.21200
Cd	Cd	0.00000 0.50000 0.25000 1.21100
Cd	Cd	0.00000 0.50000 0.75000 1.21200
Cd	Cd	0.25000 0.00000 0.50000 1.21100
Cd	Cd	0.75000 0.00000 0.50000 1.21200
Cd	Cd	0.25000 0.50000 -0.00000 1.21100
Cd	Cd	0.75000 0.50000 -0.00000 1.21200
Cd	Cd	0.50000 0.00000 0.75000 1.21200
Cd	Cd	0.50000 0.00000 0.25000 1.21000
Cd	Cd	0.00000 0.25000 0.50000 1.21000
Cd	Cd	0.00000 0.75000 0.50000 1.21100
Cd	Cd	0.68858 0.00000 -0.00000 0.82800
O 	O 	0.56860 0.00000 -0.00000 -0.51000
Cd	Cd	0.64690 0.00000 -0.00000 0.89700
Cd	Cd	0.18858 0.50000 0.50000 0.85500
O 	O 	0.06860 0.50000 0.50000 -0.46900
Cd	Cd	0.14690 0.50000 0.50000 0.91400
Cd	Cd	0.31142 0.00000 -0.00000 0.82300
O 	O 	0.43140 0.00000 -0.00000 -0.51000
Cd	Cd	0.35310 0.00000 -0.00000 0.89700
Cd	Cd	0.81142 0.50000 0.50000 0.85600
O 	O 	0.93140 0.50000 0.50000 -0.38400
Cd	Cd	0.85310 0.50000 0.50000 0.91400
Cd	Cd	-0.00000 0.68858 -0.00000 0.82800
O 	O 	-0.00000 0.56860 -0.00000 -0.51000
Cd	Cd	-0.00000 0.64690 -0.00000 0.89700
Cd	Cd	0.50000 0.18858 0.50000 0.85500
O 	O 	0.50000 0.06860 0.50000 -0.46900
Cd	Cd	0.50000 0.14690 0.50000 0.91400
Cd	Cd	-0.00000 0.31142 -0.00000 0.82300
O 	O 	0.00000 0.43140 -0.00000 -0.51000
Cd	Cd	-0.00000 0.35310 -0.00000 0.89700
Cd	Cd	0.50000 0.81142 0.50000 0.85600
O 	O 	0.50000 0.93140 0.50000 -0.38400
Cd	Cd	0.50000 0.85310 0.50000 0.91400
Cd	Cd	0.00000 0.00000 0.68858 0.82800
O 	O 	0.00000 0.00000 0.56860 -0.51000
Cd	Cd	0.00000 0.00000 0.64690 0.89700
Cd	Cd	0.50000 0.50000 0.18858 0.85500
O 	O 	0.50000 0.50000 0.06860 -0.46900
Cd	Cd	0.50000 0.50000 0.14690 0.91400
Cd	Cd	0.00000 0.00000 0.31142 0.82300
O 	O 	0.00000 0.00000 0.43140 -0.51000
Cd	Cd	0.00000 0.00000 0.35310 0.89700
Cd	Cd	0.50000 0.50000 0.81142 0.85600
O 	O 	0.50000 0.50000 0.93140 -0.38400
Cd	Cd	0.50000 0.50000 0.85310 0.91400
N 	N 	0.62270 0.28790 -0.00000 -0.20300
C 	C 	0.67250 0.23830 -0.00000 -0.04100
C 	C 	0.64730 0.16170 -0.00000 0.33200
O 	O 	0.58230 0.15020 -0.00000 -0.41500
O 	O 	0.69610 0.11680 -0.00000 -0.47400
N 	N 	0.12270 0.78790 0.50000 -0.18700
C 	C 	0.17250 0.73830 0.50000 -0.01800
C 	C 	0.14730 0.66170 0.50000 0.34000
O 	O 	0.08230 0.65020 0.50000 -0.39900
O 	O 	0.19610 0.61680 0.50000 -0.45100
N 	N 	0.37730 0.71210 -0.00000 -0.20300
C 	C 	0.32750 0.76170 -0.00000 -0.03400
C 	C 	0.35270 0.83830 -0.00000 0.32700
O 	O 	0.41770 0.84980 -0.00000 -0.38200
O 	O 	0.30390 0.88320 -0.00000 -0.41700
N 	N 	0.87730 0.21210 0.50000 -0.15800
C 	C 	0.82750 0.26170 0.50000 -0.00200
C 	C 	0.85270 0.33830 0.50000 0.33100
O 	O 	0.91770 0.34980 0.50000 -0.31700
O 	O 	0.80390 0.38320 0.50000 -0.44100
N 	N 	0.37730 0.28790 -0.00000 -0.20100
C 	C 	0.32750 0.23830 -0.00000 -0.05200
C 	C 	0.35270 0.16170 -0.00000 0.33600
O 	O 	0.41770 0.15020 -0.00000 -0.41700
O 	O 	0.30390 0.11680 -0.00000 -0.48900
N 	N 	0.87730 0.78790 0.50000 -0.15700
C 	C 	0.82750 0.73830 0.50000 0.00500
C 	C 	0.85270 0.66170 0.50000 0.33100
O 	O 	0.91770 0.65020 0.50000 -0.31600
O 	O 	0.80390 0.61680 0.50000 -0.43900
N 	N 	0.62270 0.71210 -0.00000 -0.20500
C 	C 	0.67250 0.76170 -0.00000 -0.02400
C 	C 	0.64730 0.83830 -0.00000 0.32400
O 	O 	0.58230 0.84980 -0.00000 -0.38000
O 	O 	0.69610 0.88320 -0.00000 -0.40500
N 	N 	0.12270 0.21210 0.50000 -0.19000
C 	C 	0.17250 0.26170 0.50000 -0.02700
C 	C 	0.14730 0.33830 0.50000 0.34000
O 	O 	0.08230 0.34980 0.50000 -0.40000
O 	O 	0.19610 0.38320 0.50000 -0.45300
N 	N 	0.00000 0.62270 0.28790 -0.20300
C 	C 	0.00000 0.67250 0.23830 -0.04100
C 	C 	0.00000 0.64730 0.16170 0.33200
O 	O 	0.00000 0.58230 0.15020 -0.41500
O 	O 	0.00000 0.69610 0.11680 -0.47400
N 	N 	0.50000 0.12270 0.78790 -0.18700
C 	C 	0.50000 0.17250 0.73830 -0.01800
C 	C 	0.50000 0.14730 0.66170 0.34000
O 	O 	0.50000 0.08230 0.65020 -0.39900
O 	O 	0.50000 0.19610 0.61680 -0.45100
N 	N 	0.00000 0.37730 0.71210 -0.20300
C 	C 	0.00000 0.32750 0.76170 -0.03400
C 	C 	0.00000 0.35270 0.83830 0.32700
O 	O 	0.00000 0.41770 0.84980 -0.38200
O 	O 	0.00000 0.30390 0.88320 -0.41700
N 	N 	0.50000 0.87730 0.21210 -0.15800
C 	C 	0.50000 0.82750 0.26170 -0.00200
C 	C 	0.50000 0.85270 0.33830 0.33100
O 	O 	0.50000 0.91770 0.34980 -0.31700
O 	O 	0.50000 0.80390 0.38320 -0.44100
N 	N 	0.00000 0.37730 0.28790 -0.20100
C 	C 	0.00000 0.32750 0.23830 -0.05200
C 	C 	0.00000 0.35270 0.16170 0.33600
O 	O 	0.00000 0.41770 0.15020 -0.41700
O 	O 	0.00000 0.30390 0.11680 -0.48900
N 	N 	0.50000 0.87730 0.78790 -0.15700
C 	C 	0.50000 0.82750 0.73830 0.00500
C 	C 	0.50000 0.85270 0.66170 0.33100
O 	O 	0.50000 0.91770 0.65020 -0.31600
O 	O 	0.50000 0.80390 0.61680 -0.43900
N 	N 	0.00000 0.62270 0.71210 -0.20500
C 	C 	0.00000 0.67250 0.76170 -0.02400
C 	C 	-0.00000 0.64730 0.83830 0.32400
O 	O 	-0.00000 0.58230 0.84980 -0.38000
O 	O 	-0.00000 0.69610 0.88320 -0.40500
N 	N 	0.50000 0.12270 0.21210 -0.19000
C 	C 	0.50000 0.17250 0.26170 -0.02700
C 	C 	0.50000 0.14730 0.33830 0.34000
O 	O 	0.50000 0.08230 0.34980 -0.40000
O 	O 	0.50000 0.19610 0.38320 -0.45300
N 	N 	0.28790 0.00000 0.62270 -0.20300
C 	C 	0.23830 0.00000 0.67250 -0.04100
C 	C 	0.16170 0.00000 0.64730 0.33200
O 	O 	0.15020 0.00000 0.58230 -0.41500
O 	O 	0.11680 0.00000 0.69610 -0.47400
N 	N 	0.78790 0.50000 0.12270 -0.18700
C 	C 	0.73830 0.50000 0.17250 -0.01800
C 	C 	0.66170 0.50000 0.14730 0.34000
O 	O 	0.65020 0.50000 0.08230 -0.39900
O 	O 	0.61680 0.50000 0.19610 -0.45100
N 	N 	0.71210 0.00000 0.37730 -0.20300
C 	C 	0.76170 0.00000 0.32750 -0.03400
C 	C 	0.83830 0.00000 0.35270 0.32700
O 	O 	0.84980 0.00000 0.41770 -0.38200
O 	O 	0.88320 0.00000 0.30390 -0.41700
N 	N 	0.21210 0.50000 0.87730 -0.15800
C 	C 	0.26170 0.50000 0.82750 -0.00200
C 	C 	0.33830 0.50000 0.85270 0.33100
O 	O 	0.34980 0.50000 0.91770 -0.31700
O 	O 	0.38320 0.50000 0.80390 -0.44100
N 	N 	0.28790 0.00000 0.37730 -0.20100
C 	C 	0.23830 0.00000 0.32750 -0.05200
C 	C 	0.16170 0.00000 0.35270 0.33600
O 	O 	0.15020 0.00000 0.41770 -0.41700
O 	O 	0.11680 0.00000 0.30390 -0.48900
N 	N 	0.78790 0.50000 0.87730 -0.15700
C 	C 	0.73830 0.50000 0.82750 0.00500
C 	C 	0.66170 0.50000 0.85270 0.33100
O 	O 	0.65020 0.50000 0.91770 -0.31600
O 	O 	0.61680 0.50000 0.80390 -0.43900
N 	N 	0.71210 0.00000 0.62270 -0.20500
C 	C 	0.76170 0.00000 0.67250 -0.02400
C 	C 	0.83830 0.00000 0.64730 0.32400
O 	O 	0.84980 0.00000 0.58230 -0.38000
O 	O 	0.88320 0.00000 0.69610 -0.40500
N 	N 	0.21210 0.50000 0.12270 -0.19000
C 	C 	0.26170 0.50000 0.17250 -0.02700
C 	C 	0.33830 0.50000 0.14730 0.34000
O 	O 	0.34980 0.50000 0.08230 -0.40000
O 	O 	0.38320 0.50000 0.19610 -0.45300
N 	N 	0.28790 0.62270 -0.00000 -0.20300
C 	C 	0.23830 0.67250 -0.00000 -0.04100
C 	C 	0.16170 0.64730 -0.00000 0.33200
O 	O 	0.15020 0.58230 -0.00000 -0.41500
O 	O 	0.11680 0.69610 -0.00000 -0.47400
N 	N 	0.78790 0.12270 0.50000 -0.18700
C 	C 	0.73830 0.17250 0.50000 -0.01800
C 	C 	0.66170 0.14730 0.50000 0.34000
O 	O 	0.65020 0.08230 0.50000 -0.39900
O 	O 	0.61680 0.19610 0.50000 -0.45100
N 	N 	0.71210 0.37730 -0.00000 -0.20300
C 	C 	0.76170 0.32750 -0.00000 -0.03400
C 	C 	0.83830 0.35270 -0.00000 0.32700
O 	O 	0.84980 0.41770 -0.00000 -0.38200
O 	O 	0.88320 0.30390 -0.00000 -0.41700
N 	N 	0.21210 0.87730 0.50000 -0.15800
C 	C 	0.26170 0.82750 0.50000 -0.00200
C 	C 	0.33830 0.85270 0.50000 0.33100
O 	O 	0.34980 0.91770 0.50000 -0.31700
O 	O 	0.38320 0.80390 0.50000 -0.44100
N 	N 	0.28790 0.37730 -0.00000 -0.20100
C 	C 	0.23830 0.32750 -0.00000 -0.05200
C 	C 	0.16170 0.35270 -0.00000 0.33600
O 	O 	0.15020 0.41770 -0.00000 -0.41700
O 	O 	0.11680 0.30390 -0.00000 -0.48900
N 	N 	0.78790 0.87730 0.50000 -0.15700
C 	C 	0.73830 0.82750 0.50000 0.00500
C 	C 	0.66170 0.85270 0.50000 0.33100
O 	O 	0.65020 0.91770 0.50000 -0.31600
O 	O 	0.61680 0.80390 0.50000 -0.43900
N 	N 	0.71210 0.62270 -0.00000 -0.20500
C 	C 	0.76170 0.67250 -0.00000 -0.02400
C 	C 	0.83830 0.64730 -0.00000 0.32400
O 	O 	0.84980 0.58230 -0.00000 -0.38000
O 	O 	0.88320 0.69610 -0.00000 -0.40500
N 	N 	0.21210 0.12270 0.50000 -0.19000
C 	C 	0.26170 0.17250 0.50000 -0.02700
C 	C 	0.33830 0.14730 0.50000 0.34000
O 	O 	0.34980 0.08230 0.50000 -0.40000
O 	O 	0.38320 0.19610 0.50000 -0.45300
N 	N 	0.62270 0.00000 0.71210 -0.20500
C 	C 	0.67250 0.00000 0.76170 -0.02400
C 	C 	0.64730 0.00000 0.83830 0.32400
O 	O 	0.58230 0.00000 0.84980 -0.38000
O 	O 	0.69610 0.00000 0.88320 -0.40500
N 	N 	0.12270 0.50000 0.21210 -0.19000
C 	C 	0.17250 0.50000 0.26170 -0.02700
C 	C 	0.14730 0.50000 0.33830 0.34000
O 	O 	0.08230 0.50000 0.34980 -0.40000
O 	O 	0.19610 0.50000 0.38320 -0.45300
N 	N 	0.37730 0.00000 0.28790 -0.20100
C 	C 	0.32750 0.00000 0.23830 -0.05200
C 	C 	0.35270 0.00000 0.16170 0.33600
O 	O 	0.41770 0.00000 0.15020 -0.41700
O 	O 	0.30390 0.00000 0.11680 -0.48900
N 	N 	0.87730 0.50000 0.78790 -0.15700
C 	C 	0.82750 0.50000 0.73830 0.00500
C 	C 	0.85270 0.50000 0.66170 0.33100
O 	O 	0.91770 0.50000 0.65020 -0.31600
O 	O 	0.80390 0.50000 0.61680 -0.43900
N 	N 	0.37730 0.00000 0.71210 -0.20300
C 	C 	0.32750 0.00000 0.76170 -0.03400
C 	C 	0.35270 0.00000 0.83830 0.32700
O 	O 	0.41770 0.00000 0.84980 -0.38200
O 	O 	0.30390 0.00000 0.88320 -0.41700
N 	N 	0.87730 0.50000 0.21210 -0.15800
C 	C 	0.82750 0.50000 0.26170 -0.00200
C 	C 	0.85270 0.50000 0.33830 0.33100
O 	O 	0.91770 0.50000 0.34980 -0.31700
O 	O 	0.80390 0.50000 0.38320 -0.44100
N 	N 	0.62270 0.00000 0.28790 -0.20300
C 	C 	0.67250 0.00000 0.23830 -0.04100
C 	C 	0.64730 0.00000 0.16170 0.33200
O 	O 	0.58230 0.00000 0.15020 -0.41500
O 	O 	0.69610 0.00000 0.11680 -0.47400
N 	N 	0.12270 0.50000 0.78790 -0.18700
C 	C 	0.17250 0.50000 0.73830 -0.01800
C 	C 	0.14730 0.50000 0.66170 0.34000
O 	O 	0.08230 0.50000 0.65020 -0.39900
O 	O 	0.19610 0.50000 0.61680 -0.45100
N 	N 	0.00000 0.28790 0.37730 -0.20100
C 	C 	0.00000 0.23830 0.32750 -0.05200
C 	C 	0.00000 0.16170 0.35270 0.33600
O 	O 	0.00000 0.15020 0.41770 -0.41700
O 	O 	0.00000 0.11680 0.30390 -0.48900
N 	N 	0.50000 0.78790 0.87730 -0.15700
C 	C 	0.50000 0.73830 0.82750 0.00500
C 	C 	0.50000 0.66170 0.85270 0.33100
O 	O 	0.50000 0.65020 0.91770 -0.31600
O 	O 	0.50000 0.61680 0.80390 -0.43900
N 	N 	0.00000 0.71210 0.62270 -0.20500
C 	C 	0.00000 0.76170 0.67250 -0.02400
C 	C 	0.00000 0.83830 0.64730 0.32400
O 	O 	0.00000 0.84980 0.58230 -0.38000
O 	O 	-0.00000 0.88320 0.69610 -0.40500
N 	N 	0.50000 0.21210 0.12270 -0.19000
C 	C 	0.50000 0.26170 0.17250 -0.02700
C 	C 	0.50000 0.33830 0.14730 0.34000
O 	O 	0.50000 0.34980 0.08230 -0.40000
O 	O 	0.50000 0.38320 0.19610 -0.45300
N 	N 	0.00000 0.28790 0.62270 -0.20300
C 	C 	0.00000 0.23830 0.67250 -0.04100
C 	C 	0.00000 0.16170 0.64730 0.33200
O 	O 	0.00000 0.15020 0.58230 -0.41500
O 	O 	0.00000 0.11680 0.69610 -0.47400
N 	N 	0.50000 0.78790 0.12270 -0.18700
C 	C 	0.50000 0.73830 0.17250 -0.01800
C 	C 	0.50000 0.66170 0.14730 0.34000
O 	O 	0.50000 0.65020 0.08230 -0.39900
O 	O 	0.50000 0.61680 0.19610 -0.45100
N 	N 	0.00000 0.71210 0.37730 -0.20300
C 	C 	0.00000 0.76170 0.32750 -0.03400
C 	C 	0.00000 0.83830 0.35270 0.32700
O 	O 	0.00000 0.84980 0.41770 -0.38200
O 	O 	0.00000 0.88320 0.30390 -0.41700
N 	N 	0.50000 0.21210 0.87730 -0.15800
C 	C 	0.50000 0.26170 0.82750 -0.00200
C 	C 	0.50000 0.33830 0.85270 0.33100
O 	O 	0.50000 0.34980 0.91770 -0.31700
O 	O 	0.50000 0.38320 0.80390 -0.44100
C 	C 	0.64490 0.35510 -0.00000 0.08300
H 	H 	0.60990 0.39010 -0.00000 -0.00100
C 	C 	0.74360 0.25640 -0.00000 -0.02500
H 	H 	0.77860 0.22140 -0.00000 0.05800
C 	C 	0.14490 0.85510 0.50000 0.10800
H 	H 	0.10990 0.89010 0.50000 0.06300
C 	C 	0.24360 0.75640 0.50000 -0.02500
H 	H 	0.27860 0.72140 0.50000 0.06600
C 	C 	0.35510 0.64490 -0.00000 0.08300
H 	H 	0.39010 0.60990 -0.00000 -0.00100
C 	C 	0.25640 0.74360 -0.00000 -0.02500
H 	H 	0.22140 0.77860 -0.00000 0.05800
C 	C 	0.85510 0.14490 0.50000 0.10800
H 	H 	0.89010 0.10990 0.50000 0.06300
C 	C 	0.75640 0.24360 0.50000 -0.02500
H 	H 	0.72140 0.27860 0.50000 0.06600
C 	C 	0.35510 0.35510 -0.00000 0.07900
H 	H 	0.39010 0.39010 -0.00000 -0.00000
C 	C 	0.25640 0.25640 -0.00000 -0.01600
H 	H 	0.22140 0.22140 -0.00000 0.03700
C 	C 	0.85510 0.85510 0.50000 0.11600
H 	H 	0.89010 0.89010 0.50000 0.09900
C 	C 	0.75640 0.75640 0.50000 -0.02900
H 	H 	0.72140 0.72140 0.50000 0.07100
C 	C 	0.64490 0.64490 -0.00000 0.08700
H 	H 	0.60990 0.60990 -0.00000 -0.00200
C 	C 	0.74360 0.74360 -0.00000 -0.03200
H 	H 	0.77860 0.77860 -0.00000 0.07800
C 	C 	0.14490 0.14490 0.50000 0.09900
H 	H 	0.10990 0.10990 0.50000 0.02500
C 	C 	0.24360 0.24360 0.50000 -0.02100
H 	H 	0.27860 0.27860 0.50000 0.06100
C 	C 	0.00000 0.64490 0.35510 0.08300
H 	H 	0.00000 0.60990 0.39010 -0.00100
C 	C 	0.00000 0.74360 0.25640 -0.02500
H 	H 	0.00000 0.77860 0.22140 0.05800
C 	C 	0.50000 0.14490 0.85510 0.10800
H 	H 	0.50000 0.10990 0.89010 0.06300
C 	C 	0.50000 0.24360 0.75640 -0.02500
H 	H 	0.50000 0.27860 0.72140 0.06600
C 	C 	0.00000 0.35510 0.64490 0.08300
H 	H 	0.00000 0.39010 0.60990 -0.00100
C 	C 	0.00000 0.25640 0.74360 -0.02500
H 	H 	0.00000 0.22140 0.77860 0.05800
C 	C 	0.50000 0.85510 0.14490 0.10800
H 	H 	0.50000 0.89010 0.10990 0.06300
C 	C 	0.50000 0.75640 0.24360 -0.02500
H 	H 	0.50000 0.72140 0.27860 0.06600
C 	C 	0.00000 0.35510 0.35510 0.07900
H 	H 	0.00000 0.39010 0.39010 -0.00000
C 	C 	0.00000 0.25640 0.25640 -0.01600
H 	H 	-0.00000 0.22140 0.22140 0.03700
C 	C 	0.50000 0.85510 0.85510 0.11600
H 	H 	0.50000 0.89010 0.89010 0.09900
C 	C 	0.50000 0.75640 0.75640 -0.02900
H 	H 	0.50000 0.72140 0.72140 0.07100
C 	C 	0.00000 0.64490 0.64490 0.08700
H 	H 	0.00000 0.60990 0.60990 -0.00200
C 	C 	0.00000 0.74360 0.74360 -0.03200
H 	H 	0.00000 0.77860 0.77860 0.07800
C 	C 	0.50000 0.14490 0.14490 0.09900
H 	H 	0.50000 0.10990 0.10990 0.02500
C 	C 	0.50000 0.24360 0.24360 -0.02100
H 	H 	0.50000 0.27860 0.27860 0.06100
C 	C 	0.35510 0.00000 0.64490 0.08300
H 	H 	0.39010 0.00000 0.60990 -0.00100
C 	C 	0.25640 0.00000 0.74360 -0.02500
H 	H 	0.22140 0.00000 0.77860 0.05800
C 	C 	0.85510 0.50000 0.14490 0.10800
H 	H 	0.89010 0.50000 0.10990 0.06300
C 	C 	0.75640 0.50000 0.24360 -0.02500
H 	H 	0.72140 0.50000 0.27860 0.06600
C 	C 	0.64490 0.00000 0.35510 0.08300
H 	H 	0.60990 0.00000 0.39010 -0.00100
C 	C 	0.74360 0.00000 0.25640 -0.02500
H 	H 	0.77860 0.00000 0.22140 0.05800
C 	C 	0.14490 0.50000 0.85510 0.10800
H 	H 	0.10990 0.50000 0.89010 0.06300
C 	C 	0.24360 0.50000 0.75640 -0.02500
H 	H 	0.27860 0.50000 0.72140 0.06600
C 	C 	0.35510 0.00000 0.35510 0.07900
H 	H 	0.39010 0.00000 0.39010 -0.00000
C 	C 	0.25640 0.00000 0.25640 -0.01600
H 	H 	0.22140 0.00000 0.22140 0.03700
C 	C 	0.85510 0.50000 0.85510 0.11600
H 	H 	0.89010 0.50000 0.89010 0.09900
C 	C 	0.75640 0.50000 0.75640 -0.02900
H 	H 	0.72140 0.50000 0.72140 0.07100
C 	C 	0.64490 0.00000 0.64490 0.08700
H 	H 	0.60990 0.00000 0.60990 -0.00200
C 	C 	0.74360 0.00000 0.74360 -0.03200
H 	H 	0.77860 0.00000 0.77860 0.07800
C 	C 	0.14490 0.50000 0.14490 0.09900
H 	H 	0.10990 0.50000 0.10990 0.02500
C 	C 	0.24360 0.50000 0.24360 -0.02100
H 	H 	0.27860 0.50000 0.27860 0.06100
