data_crystal

_cell_length_a 14.84910
_cell_length_b 14.92770
_cell_length_c 22.18000
_cell_angle_alpha 72.12900
_cell_angle_beta  87.94900
_cell_angle_gamma 69.45300

_symmetry_space_group_name_	'P 1'
_symmetry_space_group_name_H-M	'P 1'

loop_
_symmetry_equiv_pos_as_xyz
  x,y,z

loop_
_atom_site_label
_atom_site_type_symbol
_atom_site_fract_x
_atom_site_fract_y
_atom_site_fract_z
_atom_site_charge
Cu	Cu	0.91740 0.23400 0.20800 0.79100
C 	C 	0.33900 0.17900 0.52400 -0.14700
H 	H 	0.33770 0.13450 0.56570 0.06600
H 	H 	0.40150 0.18640 0.52100 0.07500
N 	N 	0.03500 0.13600 0.26670 -0.27600
C 	C 	0.04700 0.04500 0.29920 0.11600
H 	H 	0.00300 0.01280 0.30080 -0.04000
N 	N 	0.13100 0.00500 0.32920 -0.10400
N 	N 	0.17100 0.07200 0.31520 -0.08700
C 	C 	0.11100 0.15300 0.27660 0.10500
H 	H 	0.12180 0.21340 0.25880 -0.03200
C 	C 	0.27500 0.04400 0.32200 -0.11100
H 	H 	0.29720 0.07980 0.28390 0.06800
H 	H 	0.30650 0.97220 0.32960 0.06900
C 	C 	0.29700 0.07200 0.37800 0.03800
C 	C 	0.23100 0.08300 0.42100 -0.04000
H 	H 	0.17570 0.06900 0.41690 0.06000
C 	C 	0.24600 0.11300 0.47000 -0.11400
H 	H 	0.20070 0.12050 0.49940 0.07000
C 	C 	0.32700 0.13300 0.47500 0.11000
C 	C 	0.39300 0.12200 0.43200 -0.14400
H 	H 	0.44820 0.13550 0.43610 0.10900
C 	C 	0.37800 0.09100 0.38300 -0.03000
H 	H 	0.42330 0.08400 0.35360 0.03300
C 	C 	0.64800 0.13500 0.36000 -0.11600
H 	H 	0.67850 0.09780 0.40240 0.07000
H 	H 	0.64550 0.08650 0.34000 0.05800
N 	N 	0.82200 0.22100 0.27610 -0.26200
C 	C 	0.80700 0.25900 0.32230 0.10400
H 	H 	0.84130 0.29490 0.33220 -0.01800
N 	N 	0.73800 0.23700 0.35240 -0.10200
N 	N 	0.71000 0.18600 0.32470 -0.08800
C 	C 	0.76100 0.17700 0.27760 0.09500
H 	H 	0.75570 0.14310 0.24950 -0.03500
C 	C 	0.54600 0.19700 0.36600 0.06700
C 	C 	0.54400 0.14100 0.42800 -0.10000
H 	H 	0.58030 0.07200 0.44210 0.05600
C 	C 	0.48800 0.18600 0.46900 -0.08700
H 	H 	0.48630 0.14730 0.51080 0.04100
C 	C 	0.43300 0.28700 0.44800 0.05500
C 	C 	0.43500 0.34400 0.38600 -0.06200
H 	H 	0.39860 0.41250 0.37220 0.05900
C 	C 	0.49100 0.29900 0.34500 -0.07700
H 	H 	0.49270 0.33710 0.30350 0.06700
C 	C 	0.37500 0.34300 0.49200 -0.09100
H 	H 	0.40030 0.30480 0.53600 0.05600
H 	H 	0.38130 0.40810 0.48250 0.06500
N 	N 	0.14200 0.40800 0.50610 -0.24300
C 	C 	0.21400 0.43600 0.48160 0.07900
H 	H 	0.21100 0.50190 0.46380 -0.00800
N 	N 	0.28900 0.35400 0.48660 -0.08300
N 	N 	0.26500 0.27600 0.51430 -0.08200
C 	C 	0.17400 0.30900 0.52630 0.08100
H 	H 	0.13790 0.26930 0.54570 -0.01900
N 	N 	0.03980 0.60650 0.52320 -0.23800
C 	C 	0.02900 0.62510 0.57890 0.08000
H 	H 	0.00490 0.59140 0.61420 -0.02800
N 	N 	0.06050 0.70070 0.57480 -0.10000
N 	N 	0.09010 0.72880 0.51650 -0.08600
C 	C 	0.07700 0.67100 0.48460 0.07500
H 	H 	0.09190 0.67400 0.44310 -0.01400
C 	C 	0.13100 0.80400 0.49800 -0.07200
H 	H 	0.15120 0.81040 0.45470 0.06100
H 	H 	0.18850 0.78450 0.52560 0.06500
C 	C 	0.06000 0.90500 0.50000 -0.03600
C 	C 	0.08700 0.95900 0.53400 0.02000
H 	H 	0.14660 0.93180 0.55750 0.02600
C 	C 	0.97700 0.94700 0.46700 0.06100
H 	H 	0.95920 0.91200 0.44410 0.02000
Cu	Cu	0.08260 0.76600 0.79200 0.77300
C 	C 	0.66100 0.82100 0.47600 -0.14300
H 	H 	0.66230 0.86550 0.43430 0.06600
H 	H 	0.59850 0.81360 0.47900 0.07400
N 	N 	0.96500 0.86400 0.73330 -0.26300
C 	C 	0.95300 0.95500 0.70080 0.12000
H 	H 	0.99700 0.98720 0.69920 -0.02800
N 	N 	0.86900 0.99500 0.67080 -0.10300
N 	N 	0.82900 0.92800 0.68480 -0.08500
C 	C 	0.88900 0.84700 0.72340 0.10800
H 	H 	0.87820 0.78660 0.74120 -0.02600
C 	C 	0.72500 0.95600 0.67800 -0.12200
H 	H 	0.70280 0.92020 0.71610 0.07100
H 	H 	0.69350 0.02780 0.67040 0.07500
C 	C 	0.70300 0.92800 0.62200 0.04500
C 	C 	0.76900 0.91700 0.57900 -0.04600
H 	H 	0.82430 0.93100 0.58310 0.06700
C 	C 	0.75400 0.88700 0.53000 -0.10700
H 	H 	0.79930 0.87950 0.50060 0.07200
C 	C 	0.67300 0.86700 0.52500 0.10500
C 	C 	0.60700 0.87800 0.56800 -0.13800
H 	H 	0.55180 0.86450 0.56390 0.10600
C 	C 	0.62200 0.90900 0.61700 -0.03700
H 	H 	0.57670 0.91600 0.64640 0.03500
C 	C 	0.35200 0.86500 0.64000 -0.11400
H 	H 	0.32150 0.90220 0.59760 0.07000
H 	H 	0.35450 0.91350 0.66000 0.05500
N 	N 	0.17800 0.77900 0.72390 -0.26900
C 	C 	0.19300 0.74100 0.67770 0.10200
H 	H 	0.15870 0.70510 0.66780 -0.02300
N 	N 	0.26200 0.76300 0.64760 -0.10100
N 	N 	0.29000 0.81400 0.67530 -0.08900
C 	C 	0.23900 0.82300 0.72240 0.09300
H 	H 	0.24430 0.85690 0.75050 -0.04100
C 	C 	0.45400 0.80300 0.63400 0.06400
C 	C 	0.45600 0.85900 0.57200 -0.09700
H 	H 	0.41970 0.92800 0.55790 0.05400
C 	C 	0.51200 0.81400 0.53100 -0.08800
H 	H 	0.51370 0.85270 0.48920 0.04200
C 	C 	0.56700 0.71300 0.55200 0.05700
C 	C 	0.56500 0.65600 0.61400 -0.06400
H 	H 	0.60140 0.58750 0.62780 0.06000
C 	C 	0.50900 0.70100 0.65500 -0.07500
H 	H 	0.50730 0.66290 0.69650 0.06600
C 	C 	0.62500 0.65700 0.50800 -0.09200
H 	H 	0.59970 0.69520 0.46400 0.05700
H 	H 	0.61870 0.59190 0.51750 0.06500
N 	N 	0.85800 0.59200 0.49390 -0.23500
C 	C 	0.78600 0.56400 0.51840 0.08200
H 	H 	0.78900 0.49810 0.53620 -0.00700
N 	N 	0.71100 0.64600 0.51340 -0.08200
N 	N 	0.73500 0.72400 0.48570 -0.08100
C 	C 	0.82600 0.69100 0.47370 0.08500
H 	H 	0.86210 0.73070 0.45430 -0.00900
N 	N 	0.96020 0.39350 0.47680 -0.22700
C 	C 	0.97100 0.37490 0.42110 0.08800
H 	H 	0.99510 0.40860 0.38580 -0.01500
N 	N 	0.93950 0.29930 0.42520 -0.09500
N 	N 	0.90990 0.27120 0.48350 -0.06700
C 	C 	0.92300 0.32900 0.51540 0.07500
H 	H 	0.90810 0.32600 0.55690 -0.00600
C 	C 	0.86900 0.19600 0.50200 -0.18200
H 	H 	0.84880 0.18960 0.54530 0.09600
H 	H 	0.81150 0.21550 0.47440 0.09600
C 	C 	0.94000 0.09500 0.50000 0.18300
C 	C 	0.91300 0.04100 0.46600 -0.17500
H 	H 	0.85340 0.06820 0.44250 0.09600
C 	C 	0.02300 0.05300 0.53300 -0.19800
H 	H 	0.04080 0.08800 0.55590 0.09300
Cu	Cu	-0.00000 0.50000 0.50000 0.83100
Cu	Cu	0.27460 0.78000 0.18687 0.84600
N 	N 	0.27930 0.76180 0.28290 -0.24300
C 	C 	0.22310 0.72600 0.32220 0.10100
H 	H 	0.16820 0.71640 0.31080 -0.03000
N 	N 	0.25800 0.70500 0.38040 -0.10000
N 	N 	0.33600 0.72800 0.37720 -0.08200
C 	C 	0.34890 0.76400 0.31690 0.08900
H 	H 	0.39890 0.78570 0.30110 -0.02300
C 	C 	0.39900 0.71900 0.42890 -0.12600
H 	H 	0.36290 0.75880 0.45510 0.07500
H 	H 	0.45040 0.74300 0.41230 0.06200
C 	C 	0.43900 0.61000 0.46720 0.06000
C 	C 	0.44300 0.55600 0.53170 -0.07600
H 	H 	0.40770 0.59190 0.55790 0.05900
C 	C 	0.50800 0.54300 0.44100 -0.06400
H 	H 	0.52080 0.57130 0.39970 0.05000
N 	N 	0.27950 0.78000 0.09870 -0.24900
C 	C 	0.35510 0.77900 0.06410 0.07200
H 	H 	0.40460 0.79990 0.07100 -0.01900
N 	N 	0.34700 0.74100 0.01770 -0.08200
N 	N 	0.26700 0.72000 0.02360 -0.10700
C 	C 	0.22500 0.74400 0.07370 0.08400
H 	H 	0.16780 0.73620 0.08850 -0.02800
N 	N 	0.25390 0.92990 0.16090 -0.24600
C 	C 	0.17040 0.00200 0.16060 0.10100
H 	H 	0.11370 0.99260 0.17490 -0.04800
N 	N 	0.18190 0.08980 0.13660 -0.11600
N 	N 	0.27250 0.07200 0.12200 -0.08400
C 	C 	0.31700 0.97310 0.13710 0.07900
H 	H 	0.38120 0.93990 0.13180 -0.02100
N 	N 	0.29350 0.62910 0.20930 -0.24000
C 	C 	0.22750 0.58730 0.22100 0.09300
H 	H 	0.16160 0.62100 0.22090 -0.02900
N 	N 	0.27100 0.48970 0.23280 -0.08300
N 	N 	0.36390 0.47120 0.22840 -0.10000
C 	C 	0.37780 0.55700 0.21390 0.10000
H 	H 	0.43690 0.56590 0.20790 -0.02600
C 	C 	0.30500 0.15500 0.09400 -0.10600
H 	H 	0.27030 0.19290 0.05220 0.05400
H 	H 	0.37280 0.12780 0.08720 0.05500
C 	C 	0.29150 0.22630 0.13200 0.04300
C 	C 	0.34900 0.19850 0.18580 -0.05300
H 	H 	0.40210 0.13870 0.19660 0.04300
C 	C 	0.32880 0.25820 0.22380 -0.09500
H 	H 	0.36820 0.23920 0.26060 0.06500
C 	C 	0.25110 0.34560 0.20790 0.08500
C 	C 	0.19360 0.37340 0.15410 -0.10000
H 	H 	0.14050 0.43320 0.14320 0.04500
C 	C 	0.21380 0.31370 0.11610 -0.05700
H 	H 	0.17440 0.33270 0.07930 0.02900
C 	C 	0.22700 0.40900 0.25100 -0.13500
H 	H 	0.24980 0.36680 0.29470 0.07600
H 	H 	0.15710 0.44110 0.24990 0.05600
C 	C 	0.48700 0.54100 0.05050 -0.06300
H 	H 	0.47680 0.56590 0.08460 0.05300
C 	C 	0.46600 0.56000 0.94000 -0.07200
H 	H 	0.44020 0.60120 0.89950 0.04400
C 	C 	0.45400 0.60500 0.98840 0.05600
C 	C 	0.41900 0.71700 0.97300 -0.12500
H 	H 	0.47150 0.73900 0.97790 0.06200
H 	H 	0.38970 0.75020 0.92970 0.05900
Cu	Cu	0.72540 0.22000 0.81313 0.84700
N 	N 	0.72070 0.23820 0.71710 -0.24300
C 	C 	0.77690 0.27400 0.67780 0.10200
H 	H 	0.83180 0.28360 0.68920 -0.02500
N 	N 	0.74200 0.29500 0.61960 -0.10000
N 	N 	0.66400 0.27200 0.62280 -0.08200
C 	C 	0.65110 0.23600 0.68310 0.09000
H 	H 	0.60110 0.21430 0.69890 -0.02400
C 	C 	0.60100 0.28100 0.57110 -0.12500
H 	H 	0.63710 0.24120 0.54490 0.07400
H 	H 	0.54960 0.25700 0.58770 0.06100
C 	C 	0.56100 0.39000 0.53280 0.05900
C 	C 	0.55700 0.44400 0.46830 -0.07400
H 	H 	0.59230 0.40810 0.44210 0.05800
C 	C 	0.49200 0.45700 0.55900 -0.06200
H 	H 	0.47920 0.42870 0.60030 0.04900
N 	N 	0.72050 0.22000 0.90130 -0.24800
C 	C 	0.64490 0.22100 0.93590 0.07300
H 	H 	0.59540 0.20010 0.92900 -0.01900
N 	N 	0.65300 0.25900 0.98230 -0.08200
N 	N 	0.73300 0.28000 0.97640 -0.10400
C 	C 	0.77500 0.25600 0.92630 0.08600
H 	H 	0.83220 0.26380 0.91150 -0.02200
N 	N 	0.74610 0.07010 0.83910 -0.24200
C 	C 	0.82960 0.99800 0.83940 0.09000
H 	H 	0.88630 0.00740 0.82510 -0.03500
N 	N 	0.81810 0.91020 0.86340 -0.11000
N 	N 	0.72750 0.92800 0.87800 -0.08600
C 	C 	0.68300 0.02690 0.86290 0.08500
H 	H 	0.61880 0.06010 0.86820 -0.02200
N 	N 	0.70650 0.37090 0.79070 -0.23900
C 	C 	0.77250 0.41270 0.77900 0.09200
H 	H 	0.83840 0.37900 0.77910 -0.02300
N 	N 	0.72900 0.51030 0.76720 -0.08100
N 	N 	0.63610 0.52880 0.77160 -0.10000
C 	C 	0.62220 0.44300 0.78610 0.10000
H 	H 	0.56310 0.43410 0.79210 -0.02700
C 	C 	0.69500 0.84500 0.90600 -0.10400
H 	H 	0.72970 0.80710 0.94780 0.05700
H 	H 	0.62720 0.87220 0.91280 0.05400
C 	C 	0.70850 0.77370 0.86800 0.04000
C 	C 	0.65100 0.80150 0.81420 -0.04800
H 	H 	0.59790 0.86130 0.80340 0.04000
C 	C 	0.67120 0.74180 0.77620 -0.10100
H 	H 	0.63180 0.76080 0.73940 0.06700
C 	C 	0.74890 0.65440 0.79210 0.09300
C 	C 	0.80640 0.62660 0.84590 -0.10500
H 	H 	0.85950 0.56680 0.85680 0.05300
C 	C 	0.78620 0.68630 0.88390 -0.05100
H 	H 	0.82560 0.66730 0.92070 0.03300
C 	C 	0.77300 0.59100 0.74900 -0.14200
H 	H 	0.75020 0.63320 0.70530 0.08100
H 	H 	0.84290 0.55890 0.75010 0.06500
C 	C 	0.51300 0.45900 0.94950 -0.07500
H 	H 	0.52320 0.43410 0.91540 0.05600
C 	C 	0.53400 0.44000 0.06000 -0.08000
H 	H 	0.55980 0.39880 0.10050 0.04800
C 	C 	0.54600 0.39500 0.01160 0.06600
C 	C 	0.58100 0.28300 0.02700 -0.12800
H 	H 	0.52850 0.26100 0.02210 0.06300
H 	H 	0.61030 0.24980 0.07030 0.06300
