data_crystal

_cell_length_a 7.49100
_cell_length_b 15.38600
_cell_length_c 11.22600
_cell_angle_alpha 90.00000
_cell_angle_beta  90.00000
_cell_angle_gamma 90.00000

_symmetry_space_group_name_	'P 1'
_symmetry_space_group_name_H-M	'P 1'

loop_
_symmetry_equiv_pos_as_xyz
  x,y,z

loop_
_atom_site_label
_atom_site_type_symbol
_atom_site_fract_x
_atom_site_fract_y
_atom_site_fract_z
_atom_site_charge
Mn	Mn	0.47669 0.21766 0.35745 1.25600
C 	C 	0.64710 0.39409 0.27430 0.35500
C 	C 	0.76120 0.65513 0.01140 0.13200
C 	C 	0.59090 0.48003 0.22030 -0.01100
C 	C 	0.42740 0.51596 0.25540 -0.23600
H 	H 	0.35470 0.48530 0.30780 0.10800
C 	C 	0.37140 0.59640 0.21350 0.30800
C 	C 	0.48310 0.64110 0.13550 -0.26300
H 	H 	0.44890 0.69560 0.10820 0.09600
C 	C 	0.64440 0.60612 0.09730 0.03700
C 	C 	0.69880 0.52525 0.14070 -0.09800
H 	H 	0.80720 0.50170 0.11650 0.05100
C 	C 	0.19410 0.63420 0.25240 -0.82400
H 	H 	0.13610 0.59450 0.30580 0.26200
H 	H 	0.12000 0.64340 0.18380 0.26300
H 	H 	0.21390 0.68850 0.29220 0.25900
O 	O 	0.52520 0.34916 0.31940 -0.50500
O 	O 	0.81030 0.37599 0.27240 -0.50200
O 	O 	0.71440 0.73122 0.97970 -0.40500
O 	O 	0.90370 0.62206 0.97580 -0.33900
Mn	Mn	0.52331 0.78234 0.85745 1.26000
C 	C 	0.35290 0.60591 0.77430 0.36300
C 	C 	0.23880 0.34487 0.51140 0.30800
C 	C 	0.40910 0.51997 0.72030 -0.00700
C 	C 	0.57260 0.48404 0.75540 -0.23300
H 	H 	0.64530 0.51470 0.80780 0.11900
C 	C 	0.62860 0.40360 0.71350 0.32400
C 	C 	0.51690 0.35890 0.63550 -0.23900
H 	H 	0.55110 0.30440 0.60820 0.10700
C 	C 	0.35560 0.39388 0.59730 0.00100
C 	C 	0.30120 0.47475 0.64070 -0.06800
H 	H 	0.19280 0.49830 0.61650 0.05800
C 	C 	0.80590 0.36580 0.75240 -0.86200
H 	H 	0.86390 0.40550 0.80580 0.28400
H 	H 	0.88000 0.35660 0.68380 0.28700
H 	H 	0.78610 0.31150 0.79220 0.28000
O 	O 	0.47480 0.65084 0.81940 -0.49100
O 	O 	0.18970 0.62401 0.77240 -0.49200
O 	O 	0.28560 0.26878 0.47970 -0.50200
O 	O 	0.09630 0.37794 0.47580 -0.43800
Mn	Mn	0.97669 0.28234 0.35745 1.25500
C 	C 	0.14710 0.10591 0.27430 0.35600
C 	C 	0.26120 0.84487 0.01140 0.14100
C 	C 	0.09090 0.01997 0.22030 -0.00700
C 	C 	0.92740 0.98404 0.25540 -0.22900
H 	H 	0.85470 0.01470 0.30780 0.10100
C 	C 	0.87140 0.90360 0.21350 0.30300
C 	C 	0.98310 0.85890 0.13550 -0.26000
H 	H 	0.94890 0.80440 0.10820 0.09400
C 	C 	0.14440 0.89388 0.09730 0.03500
C 	C 	0.19880 0.97475 0.14070 -0.10000
H 	H 	0.30720 0.99830 0.11650 0.05200
C 	C 	0.69410 0.86580 0.25240 -0.81700
H 	H 	0.63610 0.90550 0.30580 0.26000
H 	H 	0.62000 0.85660 0.18380 0.26000
H 	H 	0.71390 0.81150 0.29220 0.25700
O 	O 	0.02520 0.15084 0.31940 -0.50200
O 	O 	0.31030 0.12401 0.27240 -0.50000
O 	O 	0.21440 0.76878 0.97970 -0.41200
O 	O 	0.40370 0.87794 0.97580 -0.34500
Mn	Mn	0.02331 0.71766 0.85745 1.25900
C 	C 	0.85290 0.89409 0.77430 0.36200
C 	C 	0.73880 0.15513 0.51140 0.30900
C 	C 	0.90910 0.98003 0.72030 -0.00300
C 	C 	0.07260 0.01596 0.75540 -0.22800
H 	H 	0.14530 0.98530 0.80780 0.11400
C 	C 	0.12860 0.09640 0.71350 0.32000
C 	C 	0.01690 0.14110 0.63550 -0.23000
H 	H 	0.05110 0.19560 0.60820 0.10500
C 	C 	0.85560 0.10612 0.59730 -0.00500
C 	C 	0.80120 0.02525 0.64070 -0.07200
H 	H 	0.69280 0.00170 0.61650 0.05800
C 	C 	0.30590 0.13420 0.75240 -0.85700
H 	H 	0.36390 0.09450 0.80580 0.28200
H 	H 	0.38000 0.14340 0.68380 0.28600
H 	H 	0.28610 0.18850 0.79220 0.27900
O 	O 	0.97480 0.84916 0.81940 -0.48900
O 	O 	0.68970 0.87599 0.77240 -0.49100
O 	O 	0.78560 0.23122 0.47970 -0.50400
O 	O 	0.59630 0.12206 0.47580 -0.44000
