data_crystal

_cell_length_a 7.28100
_cell_length_b 10.90300
_cell_length_c 15.14800
_cell_angle_alpha 90.00000
_cell_angle_beta  90.00000
_cell_angle_gamma 90.00000

_symmetry_space_group_name_	'P 1'
_symmetry_space_group_name_H-M	'P 1'

loop_
_symmetry_equiv_pos_as_xyz
  x,y,z

loop_
_atom_site_label
_atom_site_type_symbol
_atom_site_fract_x
_atom_site_fract_y
_atom_site_fract_z
_atom_site_charge
Mn	Mn	0.52668 0.09925 0.78153 1.27200
Mn	Mn	0.97332 0.59925 0.28153 1.27500
Mn	Mn	0.47332 0.59925 0.21847 1.27500
Mn	Mn	0.02668 0.09925 0.71847 1.26800
H 	H 	0.70200 0.49800 0.79970 0.18800
H 	H 	0.90340 0.93770 0.38170 0.13400
H 	H 	0.68960 0.85580 0.99970 0.04900
H 	H 	0.15290 0.05230 0.98430 -0.00300
H 	H 	0.65290 0.05230 0.51570 -0.00600
H 	H 	0.66080 0.57800 0.88610 0.18700
H 	H 	0.31040 0.35580 0.00030 0.01500
H 	H 	0.44950 0.35060 0.69860 0.07900
H 	H 	0.83920 0.07800 0.38610 0.07800
H 	H 	0.84710 0.55230 0.01570 0.05500
H 	H 	0.40340 0.93770 0.11830 0.13200
H 	H 	0.79800 0.99800 0.29970 0.12600
H 	H 	0.33920 0.07800 0.11390 0.07200
H 	H 	0.29800 0.99800 0.20030 0.12500
H 	H 	0.20200 0.49800 0.70030 0.19900
H 	H 	0.81040 0.35580 0.49970 0.03600
H 	H 	0.94950 0.35060 0.80140 0.06400
H 	H 	0.05050 0.85060 0.19860 0.04900
H 	H 	0.34710 0.55230 0.48430 0.08300
H 	H 	0.18960 0.85580 0.50030 0.03300
H 	H 	0.59660 0.43770 0.88170 0.19700
H 	H 	0.09660 0.43770 0.61830 0.20700
H 	H 	0.55050 0.85060 0.30140 0.04700
H 	H 	0.16080 0.57800 0.61390 0.19800
C 	C 	0.76430 0.25375 0.65515 0.37100
C 	C 	0.35620 0.01549 0.60570 0.40600
C 	C 	0.51570 0.87867 0.35839 -0.04900
C 	C 	0.57540 0.99795 0.48383 0.03200
C 	C 	0.64570 0.33937 0.60623 -0.06600
C 	C 	0.14380 0.51549 0.10570 0.45000
C 	C 	0.73570 0.75375 0.15515 0.39000
C 	C 	0.91220 0.96183 0.97998 -0.08500
C 	C 	0.85620 0.01549 0.89430 0.40100
C 	C 	0.35430 0.83937 0.39377 -0.12000
C 	C 	0.48430 0.37867 0.64161 -0.15600
C 	C 	0.14570 0.33937 0.89377 -0.11200
C 	C 	0.19760 0.38195 0.97512 0.05600
C 	C 	0.58780 0.46183 0.47998 -0.08100
C 	C 	0.69760 0.38195 0.52488 0.00300
C 	C 	0.37100 0.45727 0.59743 0.22800
C 	C 	0.87100 0.45727 0.90257 0.18000
C 	C 	0.64380 0.51549 0.39430 0.43000
C 	C 	0.01570 0.87867 0.14161 -0.05400
C 	C 	0.85430 0.83937 0.10623 -0.10900
C 	C 	0.30760 0.99610 0.13574 -0.31100
C 	C 	0.30240 0.88195 0.47512 0.05400
C 	C 	0.12900 0.95727 0.09743 0.08200
C 	C 	0.69240 0.49610 0.86426 -0.56800
C 	C 	0.08780 0.46183 0.02002 -0.13500
C 	C 	0.80240 0.88195 0.02488 0.01900
C 	C 	0.42460 0.49795 0.51617 -0.15000
C 	C 	0.41220 0.96183 0.52002 -0.10700
C 	C 	0.98430 0.37867 0.85839 -0.10400
C 	C 	0.23570 0.75375 0.34485 0.39500
C 	C 	0.19240 0.49610 0.63574 -0.61300
C 	C 	0.07540 0.99795 0.01617 0.01700
C 	C 	0.62900 0.95727 0.40257 0.07600
C 	C 	0.26430 0.25375 0.84485 0.38700
C 	C 	0.92460 0.49795 0.98383 -0.08000
C 	C 	0.80760 0.99610 0.36426 -0.31700
O 	O 	0.09206 0.71787 0.37833 -0.45700
O 	O 	0.78110 0.72301 0.23115 -0.53000
O 	O 	0.19217 0.01315 0.62474 -0.53600
O 	O 	0.40794 0.21787 0.87833 -0.46100
O 	O 	0.02059 0.56146 0.15017 -0.53600
O 	O 	0.80783 0.51315 0.37526 -0.52100
O 	O 	0.97941 0.06146 0.84983 -0.52600
O 	O 	0.59206 0.71787 0.12167 -0.45600
O 	O 	0.90794 0.21787 0.62167 -0.45400
O 	O 	0.71890 0.22301 0.73115 -0.52700
O 	O 	0.52059 0.56146 0.34983 -0.53100
O 	O 	0.47941 0.06146 0.65017 -0.53400
O 	O 	0.28110 0.72301 0.26885 -0.53100
O 	O 	0.69217 0.01315 0.87526 -0.53000
O 	O 	0.21890 0.22301 0.76885 -0.53600
O 	O 	0.30783 0.51315 0.12474 -0.52800
