data_crystal

_cell_length_a 18.48190
_cell_length_b 18.48190
_cell_length_c 34.44950
_cell_angle_alpha 90.00000
_cell_angle_beta  90.00000
_cell_angle_gamma 120.00000

_symmetry_space_group_name_	'P 1'
_symmetry_space_group_name_H-M	'P 1'

loop_
_symmetry_equiv_pos_as_xyz
  x,y,z

loop_
_atom_site_label
_atom_site_type_symbol
_atom_site_fract_x
_atom_site_fract_y
_atom_site_fract_z
_atom_site_charge
O 	O 	0.58751 0.02745 0.05077 -0.39900
O 	O 	0.62863 0.10934 0.99761 -0.40300
C 	C 	0.63950 0.09060 0.03153 0.34700
C 	C 	0.72090 0.14910 0.05100 -0.07100
C 	C 	0.73640 0.13430 0.08877 -0.02500
H 	H 	0.69800 0.08550 0.10140 0.05800
C 	C 	0.79630 0.09600 0.16330 -0.05100
C 	C 	0.83810 0.24410 0.17620 -0.00200
H 	H 	0.77600 0.05250 0.14540 0.05300
C 	C 	0.80310 0.07990 0.20270 -0.04600
C 	C 	0.83940 0.22200 0.21710 0.00100
H 	H 	0.78680 0.02700 0.21240 0.04800
O 	O 	0.97255 0.56006 0.05077 -0.40000
O 	O 	0.89066 0.51929 0.99761 -0.40400
C 	C 	0.90940 0.54890 0.03153 0.34600
C 	C 	0.85090 0.57180 0.05100 -0.07200
C 	C 	0.86570 0.60210 0.08877 -0.02600
H 	H 	0.91450 0.61250 0.10140 0.05700
C 	C 	0.90400 0.70030 0.16330 -0.05200
C 	C 	0.75590 0.59400 0.17620 -0.00300
H 	H 	0.94750 0.72350 0.14540 0.05200
C 	C 	0.92010 0.72320 0.20270 -0.04700
C 	C 	0.77800 0.61740 0.21710 0.00100
H 	H 	0.97300 0.75980 0.21240 0.04800
O 	O 	0.43994 0.41249 0.05077 -0.40000
O 	O 	0.48071 0.37137 0.99761 -0.40400
C 	C 	0.45110 0.36050 0.03153 0.34600
C 	C 	0.42820 0.27910 0.05100 -0.07200
C 	C 	0.39790 0.26360 0.08877 -0.02600
H 	H 	0.38750 0.30200 0.10140 0.05700
C 	C 	0.29970 0.20370 0.16330 -0.05200
C 	C 	0.40600 0.16190 0.17620 -0.00300
H 	H 	0.27650 0.22400 0.14540 0.05200
C 	C 	0.27680 0.19690 0.20270 -0.04700
C 	C 	0.38260 0.16060 0.21710 0.00100
H 	H 	0.24020 0.21320 0.21240 0.04800
O 	O 	0.41249 0.97255 0.55077 -0.40000
O 	O 	0.37137 0.89066 0.49761 -0.40400
C 	C 	0.36050 0.90940 0.53153 0.34600
C 	C 	0.27910 0.85090 0.55100 -0.07200
C 	C 	0.26360 0.86570 0.58877 -0.02600
H 	H 	0.30200 0.91450 0.60140 0.05700
C 	C 	0.20370 0.90400 0.66330 -0.05200
C 	C 	0.16190 0.75590 0.67620 -0.00300
H 	H 	0.22400 0.94750 0.64540 0.05200
C 	C 	0.19690 0.92010 0.70270 -0.04700
C 	C 	0.16060 0.77800 0.71710 0.00100
H 	H 	0.21320 0.97300 0.71240 0.04800
O 	O 	0.02745 0.43994 0.55077 -0.40000
O 	O 	0.10934 0.48071 0.49761 -0.40400
C 	C 	0.09060 0.45110 0.53153 0.34600
C 	C 	0.14910 0.42820 0.55100 -0.07200
C 	C 	0.13430 0.39790 0.58877 -0.02600
H 	H 	0.08550 0.38750 0.60140 0.05700
C 	C 	0.09600 0.29970 0.66330 -0.05200
C 	C 	0.24410 0.40600 0.67620 -0.00300
H 	H 	0.05250 0.27650 0.64540 0.05200
C 	C 	0.07990 0.27680 0.70270 -0.04700
C 	C 	0.22200 0.38260 0.71710 0.00100
H 	H 	0.02700 0.24020 0.71240 0.04800
O 	O 	0.56006 0.58751 0.55077 -0.40000
O 	O 	0.51929 0.62863 0.49761 -0.40400
C 	C 	0.54890 0.63950 0.53153 0.34600
C 	C 	0.57180 0.72090 0.55100 -0.07200
C 	C 	0.60210 0.73640 0.58877 -0.02600
H 	H 	0.61250 0.69800 0.60140 0.05700
C 	C 	0.70030 0.79630 0.66330 -0.05200
C 	C 	0.59400 0.83810 0.67620 -0.00300
H 	H 	0.72350 0.77600 0.64540 0.05200
C 	C 	0.72320 0.80310 0.70270 -0.04700
C 	C 	0.61740 0.83940 0.71710 0.00100
H 	H 	0.75980 0.78680 0.71240 0.04800
O 	O 	0.02745 0.58751 0.94923 -0.40000
O 	O 	0.10934 0.62863 0.00239 -0.40400
C 	C 	0.09060 0.63950 0.96847 0.34600
C 	C 	0.14910 0.72090 0.94900 -0.07200
C 	C 	0.13430 0.73640 0.91123 -0.02600
H 	H 	0.08550 0.69800 0.89860 0.05700
C 	C 	0.09600 0.79630 0.83670 -0.05200
C 	C 	0.24410 0.83810 0.82380 -0.00300
H 	H 	0.05250 0.77600 0.85460 0.05200
C 	C 	0.07990 0.80310 0.79730 -0.04700
C 	C 	0.22200 0.83940 0.78290 0.00100
H 	H 	0.02700 0.78680 0.78760 0.04800
O 	O 	0.56006 0.97255 0.94923 -0.40000
O 	O 	0.51929 0.89066 0.00239 -0.40400
C 	C 	0.54890 0.90940 0.96847 0.34600
C 	C 	0.57180 0.85090 0.94900 -0.07200
C 	C 	0.60210 0.86570 0.91123 -0.02600
H 	H 	0.61250 0.91450 0.89860 0.05700
C 	C 	0.70030 0.90400 0.83670 -0.05200
C 	C 	0.59400 0.75590 0.82380 -0.00300
H 	H 	0.72350 0.94750 0.85460 0.05200
C 	C 	0.72320 0.92010 0.79730 -0.04700
C 	C 	0.61740 0.77800 0.78290 0.00100
H 	H 	0.75980 0.97300 0.78760 0.04800
O 	O 	0.41249 0.43994 0.94923 -0.40000
O 	O 	0.37137 0.48071 0.00239 -0.40400
C 	C 	0.36050 0.45110 0.96847 0.34600
C 	C 	0.27910 0.42820 0.94900 -0.07200
C 	C 	0.26360 0.39790 0.91123 -0.02600
H 	H 	0.30200 0.38750 0.89860 0.05700
C 	C 	0.20370 0.29970 0.83670 -0.05200
C 	C 	0.16190 0.40600 0.82380 -0.00300
H 	H 	0.22400 0.27650 0.85460 0.05200
C 	C 	0.19690 0.27680 0.79730 -0.04700
C 	C 	0.16060 0.38260 0.78290 0.00100
H 	H 	0.21320 0.24020 0.78760 0.04800
O 	O 	0.97255 0.41249 0.44923 -0.40000
O 	O 	0.89066 0.37137 0.50239 -0.40400
C 	C 	0.90940 0.36050 0.46847 0.34600
C 	C 	0.85090 0.27910 0.44900 -0.07200
C 	C 	0.86570 0.26360 0.41123 -0.02600
H 	H 	0.91450 0.30200 0.39860 0.05700
C 	C 	0.90400 0.20370 0.33670 -0.05200
C 	C 	0.75590 0.16190 0.32380 -0.00300
H 	H 	0.94750 0.22400 0.35460 0.05200
C 	C 	0.92010 0.19690 0.29730 -0.04700
C 	C 	0.77800 0.16060 0.28290 0.00100
H 	H 	0.97300 0.21320 0.28760 0.04800
O 	O 	0.43994 0.02745 0.44923 -0.40000
O 	O 	0.48071 0.10934 0.50239 -0.40400
C 	C 	0.45110 0.09060 0.46847 0.34600
C 	C 	0.42820 0.14910 0.44900 -0.07200
C 	C 	0.39790 0.13430 0.41123 -0.02600
H 	H 	0.38750 0.08550 0.39860 0.05700
C 	C 	0.29970 0.09600 0.33670 -0.05200
C 	C 	0.40600 0.24410 0.32380 -0.00300
H 	H 	0.27650 0.05250 0.35460 0.05200
C 	C 	0.27680 0.07990 0.29730 -0.04700
C 	C 	0.38260 0.22200 0.28290 0.00100
H 	H 	0.24020 0.02700 0.28760 0.04800
O 	O 	0.58751 0.56006 0.44923 -0.40000
O 	O 	0.62863 0.51929 0.50239 -0.40400
C 	C 	0.63950 0.54890 0.46847 0.34600
C 	C 	0.72090 0.57180 0.44900 -0.07200
C 	C 	0.73640 0.60210 0.41123 -0.02600
H 	H 	0.69800 0.61250 0.39860 0.05700
C 	C 	0.79630 0.70030 0.33670 -0.05200
C 	C 	0.83810 0.59400 0.32380 -0.00300
H 	H 	0.77600 0.72350 0.35460 0.05200
C 	C 	0.80310 0.72320 0.29730 -0.04700
C 	C 	0.83940 0.61740 0.28290 0.00100
H 	H 	0.78680 0.75980 0.28760 0.04800
O 	O 	0.41249 0.97255 0.94923 -0.40000
O 	O 	0.37137 0.89066 0.00239 -0.40400
C 	C 	0.36050 0.90940 0.96847 0.34600
C 	C 	0.27910 0.85090 0.94900 -0.07200
C 	C 	0.26360 0.86570 0.91123 -0.02600
H 	H 	0.30200 0.91450 0.89860 0.05700
C 	C 	0.20370 0.90400 0.83670 -0.05200
C 	C 	0.16190 0.75590 0.82380 -0.00300
H 	H 	0.22400 0.94750 0.85460 0.05200
C 	C 	0.19690 0.92010 0.79730 -0.04700
C 	C 	0.16060 0.77800 0.78290 0.00100
H 	H 	0.21320 0.97300 0.78760 0.04800
O 	O 	0.02745 0.43994 0.94923 -0.40000
O 	O 	0.10934 0.48071 0.00239 -0.40400
C 	C 	0.09060 0.45110 0.96847 0.34600
C 	C 	0.14910 0.42820 0.94900 -0.07200
C 	C 	0.13430 0.39790 0.91123 -0.02600
H 	H 	0.08550 0.38750 0.89860 0.05700
C 	C 	0.09600 0.29970 0.83670 -0.05200
C 	C 	0.24410 0.40600 0.82380 -0.00300
H 	H 	0.05250 0.27650 0.85460 0.05200
C 	C 	0.07990 0.27680 0.79730 -0.04700
C 	C 	0.22200 0.38260 0.78290 0.00100
H 	H 	0.02700 0.24020 0.78760 0.04800
O 	O 	0.56006 0.58751 0.94923 -0.40000
O 	O 	0.51929 0.62863 0.00239 -0.40400
C 	C 	0.54890 0.63950 0.96847 0.34600
C 	C 	0.57180 0.72090 0.94900 -0.07200
C 	C 	0.60210 0.73640 0.91123 -0.02600
H 	H 	0.61250 0.69800 0.89860 0.05700
C 	C 	0.70030 0.79630 0.83670 -0.05200
C 	C 	0.59400 0.83810 0.82380 -0.00300
H 	H 	0.72350 0.77600 0.85460 0.05200
C 	C 	0.72320 0.80310 0.79730 -0.04700
C 	C 	0.61740 0.83940 0.78290 0.00100
H 	H 	0.75980 0.78680 0.78760 0.04800
O 	O 	0.58751 0.02745 0.44923 -0.40000
O 	O 	0.62863 0.10934 0.50239 -0.40400
C 	C 	0.63950 0.09060 0.46847 0.34600
C 	C 	0.72090 0.14910 0.44900 -0.07200
C 	C 	0.73640 0.13430 0.41123 -0.02600
H 	H 	0.69800 0.08550 0.39860 0.05700
C 	C 	0.79630 0.09600 0.33670 -0.05200
C 	C 	0.83810 0.24410 0.32380 -0.00300
H 	H 	0.77600 0.05250 0.35460 0.05200
C 	C 	0.80310 0.07990 0.29730 -0.04700
C 	C 	0.83940 0.22200 0.28290 0.00100
H 	H 	0.78680 0.02700 0.28760 0.04800
O 	O 	0.97255 0.56006 0.44923 -0.40000
O 	O 	0.89066 0.51929 0.50239 -0.40400
C 	C 	0.90940 0.54890 0.46847 0.34600
C 	C 	0.85090 0.57180 0.44900 -0.07200
C 	C 	0.86570 0.60210 0.41123 -0.02600
H 	H 	0.91450 0.61250 0.39860 0.05700
C 	C 	0.90400 0.70030 0.33670 -0.05200
C 	C 	0.75590 0.59400 0.32380 -0.00300
H 	H 	0.94750 0.72350 0.35460 0.05200
C 	C 	0.92010 0.72320 0.29730 -0.04700
C 	C 	0.77800 0.61740 0.28290 0.00100
H 	H 	0.97300 0.75980 0.28760 0.04800
O 	O 	0.43994 0.41249 0.44923 -0.40000
O 	O 	0.48071 0.37137 0.50239 -0.40400
C 	C 	0.45110 0.36050 0.46847 0.34600
C 	C 	0.42820 0.27910 0.44900 -0.07200
C 	C 	0.39790 0.26360 0.41123 -0.02600
H 	H 	0.38750 0.30200 0.39860 0.05700
C 	C 	0.29970 0.20370 0.33670 -0.05200
C 	C 	0.40600 0.16190 0.32380 -0.00300
H 	H 	0.27650 0.22400 0.35460 0.05200
C 	C 	0.27680 0.19690 0.29730 -0.04700
C 	C 	0.38260 0.16060 0.28290 0.00100
H 	H 	0.24020 0.21320 0.28760 0.04800
O 	O 	0.97255 0.41249 0.05077 -0.40000
O 	O 	0.89066 0.37137 0.99761 -0.40400
C 	C 	0.90940 0.36050 0.03153 0.34600
C 	C 	0.85090 0.27910 0.05100 -0.07200
C 	C 	0.86570 0.26360 0.08877 -0.02600
H 	H 	0.91450 0.30200 0.10140 0.05700
C 	C 	0.90400 0.20370 0.16330 -0.05200
C 	C 	0.75590 0.16190 0.17620 -0.00300
H 	H 	0.94750 0.22400 0.14540 0.05200
C 	C 	0.92010 0.19690 0.20270 -0.04700
C 	C 	0.77800 0.16060 0.21710 0.00100
H 	H 	0.97300 0.21320 0.21240 0.04800
O 	O 	0.43994 0.02745 0.05077 -0.40000
O 	O 	0.48071 0.10934 0.99761 -0.40400
C 	C 	0.45110 0.09060 0.03153 0.34600
C 	C 	0.42820 0.14910 0.05100 -0.07200
C 	C 	0.39790 0.13430 0.08877 -0.02600
H 	H 	0.38750 0.08550 0.10140 0.05700
C 	C 	0.29970 0.09600 0.16330 -0.05200
C 	C 	0.40600 0.24410 0.17620 -0.00300
H 	H 	0.27650 0.05250 0.14540 0.05200
C 	C 	0.27680 0.07990 0.20270 -0.04700
C 	C 	0.38260 0.22200 0.21710 0.00100
H 	H 	0.24020 0.02700 0.21240 0.04800
O 	O 	0.58751 0.56006 0.05077 -0.40000
O 	O 	0.62863 0.51929 0.99761 -0.40400
C 	C 	0.63950 0.54890 0.03153 0.34600
C 	C 	0.72090 0.57180 0.05100 -0.07200
C 	C 	0.73640 0.60210 0.08877 -0.02600
H 	H 	0.69800 0.61250 0.10140 0.05700
C 	C 	0.79630 0.70030 0.16330 -0.05200
C 	C 	0.83810 0.59400 0.17620 -0.00300
H 	H 	0.77600 0.72350 0.14540 0.05200
C 	C 	0.80310 0.72320 0.20270 -0.04700
C 	C 	0.83940 0.61740 0.21710 0.00100
H 	H 	0.78680 0.75980 0.21240 0.04800
O 	O 	0.02745 0.58751 0.55077 -0.40000
O 	O 	0.10934 0.62863 0.49761 -0.40400
C 	C 	0.09060 0.63950 0.53153 0.34600
C 	C 	0.14910 0.72090 0.55100 -0.07200
C 	C 	0.13430 0.73640 0.58877 -0.02600
H 	H 	0.08550 0.69800 0.60140 0.05700
C 	C 	0.09600 0.79630 0.66330 -0.05200
C 	C 	0.24410 0.83810 0.67620 -0.00300
H 	H 	0.05250 0.77600 0.64540 0.05200
C 	C 	0.07990 0.80310 0.70270 -0.04700
C 	C 	0.22200 0.83940 0.71710 0.00100
H 	H 	0.02700 0.78680 0.71240 0.04800
O 	O 	0.56006 0.97255 0.55077 -0.40000
O 	O 	0.51929 0.89066 0.49761 -0.40400
C 	C 	0.54890 0.90940 0.53153 0.34600
C 	C 	0.57180 0.85090 0.55100 -0.07200
C 	C 	0.60210 0.86570 0.58877 -0.02600
H 	H 	0.61250 0.91450 0.60140 0.05700
C 	C 	0.70030 0.90400 0.66330 -0.05200
C 	C 	0.59400 0.75590 0.67620 -0.00300
H 	H 	0.72350 0.94750 0.64540 0.05200
C 	C 	0.72320 0.92010 0.70270 -0.04700
C 	C 	0.61740 0.77800 0.71710 0.00100
H 	H 	0.75980 0.97300 0.71240 0.04800
O 	O 	0.41249 0.43994 0.55077 -0.40000
O 	O 	0.37137 0.48071 0.49761 -0.40400
C 	C 	0.36050 0.45110 0.53153 0.34600
C 	C 	0.27910 0.42820 0.55100 -0.07200
C 	C 	0.26360 0.39790 0.58877 -0.02600
H 	H 	0.30200 0.38750 0.60140 0.05700
C 	C 	0.20370 0.29970 0.66330 -0.05200
C 	C 	0.16190 0.40600 0.67620 -0.00300
H 	H 	0.22400 0.27650 0.64540 0.05200
C 	C 	0.19690 0.27680 0.70270 -0.04700
C 	C 	0.16060 0.38260 0.71710 0.00100
H 	H 	0.21320 0.24020 0.71240 0.04800
Cu	Cu	0.47568 0.95136 0.03105 0.90600
Cu	Cu	0.04864 0.52432 0.03105 0.90600
Cu	Cu	0.47568 0.52432 0.03105 0.90600
Cu	Cu	0.52432 0.04864 0.53105 0.90600
Cu	Cu	0.95136 0.47568 0.53105 0.90600
Cu	Cu	0.52432 0.47568 0.53105 0.90600
Cu	Cu	0.95136 0.47568 0.96895 0.90600
Cu	Cu	0.52432 0.04864 0.96895 0.90600
Cu	Cu	0.52432 0.47568 0.96895 0.90600
Cu	Cu	0.04864 0.52432 0.46895 0.90600
Cu	Cu	0.47568 0.95136 0.46895 0.90600
Cu	Cu	0.47568 0.52432 0.46895 0.90600
C 	C 	0.77847 0.22153 0.03237 0.01700
H 	H 	0.76840 0.23160 0.00700 0.05600
C 	C 	0.80850 0.19150 0.10784 0.00300
C 	C 	0.82070 0.17930 0.15062 0.02100
C 	C 	0.84050 0.15950 0.22820 0.01000
C 	C 	0.77847 0.55694 0.03237 0.01600
H 	H 	0.76840 0.53680 0.00700 0.05600
C 	C 	0.80850 0.61700 0.10784 0.00300
C 	C 	0.82070 0.64140 0.15062 0.02100
C 	C 	0.84050 0.68100 0.22820 0.01000
C 	C 	0.44306 0.22153 0.03237 0.01600
H 	H 	0.46320 0.23160 0.00700 0.05600
C 	C 	0.38300 0.19150 0.10784 0.00300
C 	C 	0.35860 0.17930 0.15062 0.02100
C 	C 	0.31900 0.15950 0.22820 0.01000
C 	C 	0.22153 0.77847 0.53237 0.01600
H 	H 	0.23160 0.76840 0.50700 0.05600
C 	C 	0.19150 0.80850 0.60784 0.00300
C 	C 	0.17930 0.82070 0.65062 0.02100
C 	C 	0.15950 0.84050 0.72820 0.01000
C 	C 	0.22153 0.44306 0.53237 0.01600
H 	H 	0.23160 0.46320 0.50700 0.05600
C 	C 	0.19150 0.38300 0.60784 0.00300
C 	C 	0.17930 0.35860 0.65062 0.02100
C 	C 	0.15950 0.31900 0.72820 0.01000
C 	C 	0.55694 0.77847 0.53237 0.01600
H 	H 	0.53680 0.76840 0.50700 0.05600
C 	C 	0.61700 0.80850 0.60784 0.00300
C 	C 	0.64140 0.82070 0.65062 0.02100
C 	C 	0.68100 0.84050 0.72820 0.01000
C 	C 	0.22153 0.77847 0.96763 0.01700
H 	H 	0.23160 0.76840 0.99300 0.05600
C 	C 	0.19150 0.80850 0.89216 0.00300
C 	C 	0.17930 0.82070 0.84938 0.02100
C 	C 	0.15950 0.84050 0.77180 0.01000
C 	C 	0.55694 0.77847 0.96763 0.01600
H 	H 	0.53680 0.76840 0.99300 0.05600
C 	C 	0.61700 0.80850 0.89216 0.00300
C 	C 	0.64140 0.82070 0.84938 0.02100
C 	C 	0.68100 0.84050 0.77180 0.01000
C 	C 	0.22153 0.44306 0.96763 0.01600
H 	H 	0.23160 0.46320 0.99300 0.05600
C 	C 	0.19150 0.38300 0.89216 0.00300
C 	C 	0.17930 0.35860 0.84938 0.02100
C 	C 	0.15950 0.31900 0.77180 0.01000
C 	C 	0.77847 0.22153 0.46763 0.01600
H 	H 	0.76840 0.23160 0.49300 0.05600
C 	C 	0.80850 0.19150 0.39216 0.00300
C 	C 	0.82070 0.17930 0.34938 0.02100
C 	C 	0.84050 0.15950 0.27180 0.01000
C 	C 	0.44306 0.22153 0.46763 0.01600
H 	H 	0.46320 0.23160 0.49300 0.05600
C 	C 	0.38300 0.19150 0.39216 0.00300
C 	C 	0.35860 0.17930 0.34938 0.02100
C 	C 	0.31900 0.15950 0.27180 0.01000
C 	C 	0.77847 0.55694 0.46763 0.01600
H 	H 	0.76840 0.53680 0.49300 0.05600
C 	C 	0.80850 0.61700 0.39216 0.00300
C 	C 	0.82070 0.64140 0.34938 0.02100
C 	C 	0.84050 0.68100 0.27180 0.01000
C 	C 	0.85080 0.28480 0.25000 -0.00100
C 	C 	0.93980 0.35970 0.25000 -0.01200
C 	C 	0.77820 0.29960 0.25000 -0.00000
C 	C 	0.71520 0.56600 0.25000 -0.00100
C 	C 	0.64030 0.58010 0.25000 -0.01200
C 	C 	0.70040 0.47860 0.25000 -0.00000
C 	C 	0.43400 0.14920 0.25000 -0.00100
C 	C 	0.41990 0.06020 0.25000 -0.01200
C 	C 	0.52140 0.22180 0.25000 -0.00000
C 	C 	0.14920 0.71520 0.75000 -0.00100
C 	C 	0.06020 0.64030 0.75000 -0.01200
C 	C 	0.22180 0.70040 0.75000 -0.00000
C 	C 	0.28480 0.43400 0.75000 -0.00100
C 	C 	0.35970 0.41990 0.75000 -0.01200
C 	C 	0.29960 0.52140 0.75000 -0.00000
C 	C 	0.56600 0.85080 0.75000 -0.00100
C 	C 	0.58010 0.93980 0.75000 -0.01200
C 	C 	0.47860 0.77820 0.75000 -0.00000
C 	C 	0.28480 0.85080 0.75000 -0.00100
C 	C 	0.35970 0.93980 0.75000 -0.01200
C 	C 	0.29960 0.77820 0.75000 -0.00000
C 	C 	0.56600 0.71520 0.75000 -0.00100
C 	C 	0.58010 0.64030 0.75000 -0.01200
C 	C 	0.47860 0.70040 0.75000 -0.00000
C 	C 	0.14920 0.43400 0.75000 -0.00100
C 	C 	0.06020 0.41990 0.75000 -0.01200
C 	C 	0.22180 0.52140 0.75000 -0.00000
C 	C 	0.71520 0.14920 0.25000 -0.00100
C 	C 	0.64030 0.06020 0.25000 -0.01200
C 	C 	0.70040 0.22180 0.25000 -0.00000
C 	C 	0.43400 0.28480 0.25000 -0.00100
C 	C 	0.41990 0.35970 0.25000 -0.01200
C 	C 	0.52140 0.29960 0.25000 -0.00000
C 	C 	0.85080 0.56600 0.25000 -0.00100
C 	C 	0.93980 0.58010 0.25000 -0.01200
C 	C 	0.77820 0.47860 0.25000 -0.00000
