data_crystal

_cell_length_a 7.11100
_cell_length_b 19.45490
_cell_length_c 19.45490
_cell_angle_alpha 88.08600
_cell_angle_beta  79.46980
_cell_angle_gamma 79.46970

_symmetry_space_group_name_	'P 1'
_symmetry_space_group_name_H-M	'P 1'

loop_
_symmetry_equiv_pos_as_xyz
  x,y,z

loop_
_atom_site_label
_atom_site_type_symbol
_atom_site_fract_x
_atom_site_fract_y
_atom_site_fract_z
_atom_site_charge
Cu	Cu	0.87500 0.05020 0.44980 0.84100
Cu	Cu	0.37500 0.94980 0.55020 0.84200
Cu	Cu	0.67520 0.44980 0.94980 0.84200
Cu	Cu	0.07480 0.55020 0.05020 0.84300
H 	H 	0.85050 0.20760 0.42580 -0.01700
H 	H 	0.61310 0.30960 0.44280 0.08000
H 	H 	0.21130 0.18880 0.49720 0.08800
H 	H 	0.45000 0.08980 0.47640 -0.03400
H 	H 	0.04950 0.28220 0.56080 0.03000
H 	H 	0.79690 0.37620 0.57400 0.06800
H 	H 	0.09360 0.47500 0.41600 0.06600
H 	H 	0.34590 0.38000 0.40080 0.03400
H 	H 	0.48390 0.79240 0.57420 -0.01500
H 	H 	0.36550 0.69040 0.55720 0.08000
H 	H 	0.89730 0.81120 0.50280 0.08400
H 	H 	0.01620 0.91020 0.52360 -0.03300
H 	H 	0.89250 0.71780 0.43920 0.03300
H 	H 	0.74710 0.62380 0.42600 0.06600
H 	H 	0.98460 0.52500 0.58400 0.06600
H 	H 	0.12670 0.62000 0.59920 0.03400
H 	H 	0.72370 0.42580 0.79240 -0.01600
H 	H 	0.94410 0.44280 0.69040 0.08200
H 	H 	0.29150 0.49720 0.81120 0.08800
H 	H 	0.07360 0.47640 0.91020 -0.03500
H 	H 	0.38970 0.56080 0.71780 0.03100
H 	H 	0.62910 0.57400 0.62380 0.06700
H 	H 	0.49040 0.41600 0.52500 0.06600
H 	H 	0.25330 0.40080 0.62000 0.03400
H 	H 	0.94190 0.57420 0.20760 -0.01500
H 	H 	0.07730 0.55720 0.30960 0.08200
H 	H 	0.59990 0.50280 0.18880 0.08700
H 	H 	0.46020 0.52360 0.08980 -0.03400
H 	H 	0.66830 0.43920 0.28220 0.03200
H 	H 	0.82690 0.42600 0.37620 0.06600
H 	H 	0.43140 0.58400 0.47500 0.06600
H 	H 	0.27410 0.59920 0.38000 0.03400
H 	H 	0.89950 0.07420 0.29240 -0.02000
H 	H 	0.13690 0.05720 0.19040 0.08300
H 	H 	0.53870 0.00280 0.31120 0.08800
H 	H 	0.30000 0.02360 0.41020 -0.03400
H 	H 	0.70050 0.93920 0.21780 0.03300
H 	H 	0.95310 0.92600 0.12380 0.06600
H 	H 	0.65640 0.08400 0.02500 0.06500
H 	H 	0.40410 0.09920 0.12000 0.03500
H 	H 	0.26610 0.92580 0.70760 -0.01500
H 	H 	0.38450 0.94280 0.80960 0.08100
H 	H 	0.85270 0.99720 0.68880 0.08600
H 	H 	0.73380 0.97640 0.58980 -0.03600
H 	H 	0.85750 0.06080 0.78220 0.03000
H 	H 	0.00290 0.07400 0.87620 0.07000
H 	H 	0.76540 0.91600 0.97500 0.06300
H 	H 	0.62330 0.90080 0.88000 0.03400
H 	H 	0.02630 0.70760 0.07420 -0.01500
H 	H 	0.80590 0.80960 0.05720 0.08100
H 	H 	0.45850 0.68880 0.00280 0.08800
H 	H 	0.67640 0.58980 0.02360 -0.03400
H 	H 	0.36030 0.78220 0.93920 0.03300
H 	H 	0.12090 0.87620 0.92600 0.06500
H 	H 	0.25960 0.97500 0.08400 0.06300
H 	H 	0.49670 0.88000 0.09920 0.03500
H 	H 	0.80810 0.29240 0.92580 -0.01600
H 	H 	0.67270 0.19040 0.94280 0.08000
H 	H 	0.15010 0.31120 0.99720 0.08700
H 	H 	0.28980 0.41020 0.97640 -0.03500
H 	H 	0.08170 0.21780 0.06080 0.03400
H 	H 	0.92310 0.12380 0.07400 0.06200
H 	H 	0.31860 0.02500 0.91600 0.06500
H 	H 	0.47590 0.12000 0.90080 0.03500
C 	C 	0.71840 0.20400 0.44240 0.08100
C 	C 	0.57690 0.26500 0.45100 -0.15600
C 	C 	0.38500 0.25920 0.47140 0.10400
C 	C 	0.34290 0.19390 0.48230 -0.16300
C 	C 	0.48520 0.13470 0.47230 0.08800
C 	C 	0.22250 0.32050 0.47930 -0.04700
C 	C 	0.05770 0.32130 0.53070 -0.00100
C 	C 	0.90750 0.37710 0.53850 -0.11000
C 	C 	0.91470 0.43530 0.49490 0.06400
C 	C 	0.08330 0.43490 0.44490 -0.09700
C 	C 	0.23450 0.37900 0.43600 -0.00700
C 	C 	0.36480 0.79600 0.55760 0.08000
C 	C 	0.29290 0.73500 0.54900 -0.15300
C 	C 	0.11560 0.74080 0.52860 0.09900
C 	C 	0.01910 0.80610 0.51770 -0.15500
C 	C 	0.09220 0.86530 0.52770 0.08400
C 	C 	0.02230 0.67950 0.52070 -0.04200
C 	C 	0.90970 0.67870 0.46930 -0.01000
C 	C 	0.82310 0.62290 0.46150 -0.10400
C 	C 	0.84490 0.56470 0.50510 0.06400
C 	C 	0.96310 0.56510 0.55510 -0.10000
C 	C 	0.04950 0.62100 0.56400 -0.00700
C 	C 	0.83920 0.44240 0.79600 0.08300
C 	C 	0.97210 0.45100 0.73500 -0.15900
C 	C 	0.14360 0.47140 0.74080 0.10700
C 	C 	0.17480 0.48230 0.80610 -0.16500
C 	C 	0.04250 0.47230 0.86530 0.09000
C 	C 	0.29820 0.47930 0.67950 -0.04700
C 	C 	0.41160 0.53070 0.67870 -0.00500
C 	C 	0.55400 0.53850 0.62290 -0.10600
C 	C 	0.59040 0.49490 0.56470 0.06500
C 	C 	0.47180 0.44490 0.56510 -0.09900
C 	C 	0.32950 0.43600 0.62100 -0.00700
C 	C 	0.07760 0.55760 0.20400 0.08200
C 	C 	0.15810 0.54900 0.26500 -0.15500
C 	C 	0.35580 0.52860 0.25920 0.10300
C 	C 	0.46320 0.51770 0.19390 -0.16300
C 	C 	0.38010 0.52770 0.13470 0.08800
C 	C 	0.45700 0.52070 0.32050 -0.04600
C 	C 	0.62100 0.46930 0.32130 -0.00600
C 	C 	0.71540 0.46150 0.37710 -0.10500
C 	C 	0.65000 0.50510 0.43530 0.06500
C 	C 	0.48180 0.55510 0.43490 -0.09800
C 	C 	0.38650 0.56400 0.37900 -0.00800
C 	C 	0.03160 0.05760 0.29600 0.09000
C 	C 	0.17310 0.04900 0.23500 -0.15800
C 	C 	0.36500 0.02860 0.24080 0.10400
C 	C 	0.40710 0.01770 0.30610 -0.16300
C 	C 	0.26480 0.02770 0.36530 0.08900
C 	C 	0.52750 0.02070 0.17950 -0.04200
C 	C 	0.69230 0.96930 0.17870 -0.01200
C 	C 	0.84250 0.96150 0.12290 -0.10300
C 	C 	0.83530 0.00510 0.06470 0.06100
C 	C 	0.66670 0.05510 0.06510 -0.09400
C 	C 	0.51550 0.06400 0.12100 -0.01100
C 	C 	0.38520 0.94240 0.70400 0.08100
C 	C 	0.45710 0.95100 0.76500 -0.15500
C 	C 	0.63440 0.97140 0.75920 0.10300
C 	C 	0.73090 0.98230 0.69390 -0.16300
C 	C 	0.65780 0.97230 0.63470 0.08700
C 	C 	0.72770 0.97930 0.82050 -0.04800
C 	C 	0.84030 0.03070 0.82130 -0.00300
C 	C 	0.92690 0.03850 0.87710 -0.10800
C 	C 	0.90510 0.99490 0.93530 0.05600
C 	C 	0.78690 0.94490 0.93490 -0.09500
C 	C 	0.70050 0.93600 0.87900 -0.01000
C 	C 	0.91080 0.70400 0.05760 0.08200
C 	C 	0.77790 0.76500 0.04900 -0.15400
C 	C 	0.60640 0.75920 0.02860 0.10100
C 	C 	0.57520 0.69390 0.01770 -0.16100
C 	C 	0.70750 0.63470 0.02770 0.08700
C 	C 	0.45180 0.82050 0.02070 -0.04100
C 	C 	0.33840 0.82130 0.96930 -0.01200
C 	C 	0.19600 0.87710 0.96150 -0.10100
C 	C 	0.15960 0.93530 0.00510 0.05900
C 	C 	0.27820 0.93490 0.05510 -0.09300
C 	C 	0.42050 0.87900 0.06400 -0.01200
C 	C 	0.67240 0.29600 0.94240 0.08000
C 	C 	0.59190 0.23500 0.95100 -0.15500
C 	C 	0.39420 0.24080 0.97140 0.10200
C 	C 	0.28680 0.30610 0.98230 -0.16200
C 	C 	0.36990 0.36530 0.97230 0.08700
C 	C 	0.29300 0.17950 0.97930 -0.04400
C 	C 	0.12900 0.17870 0.03070 -0.01000
C 	C 	0.03460 0.12290 0.03850 -0.09300
C 	C 	0.10000 0.06470 0.99490 0.05600
C 	C 	0.26820 0.06510 0.94490 -0.09300
C 	C 	0.36350 0.12100 0.93600 -0.01200
C 	C 	0.75000 0.50000 0.50000 -0.09000
C 	C 	-0.00000 0.00000 -0.00000 -0.07500
I 	I 	0.67807 0.94693 0.44693 -0.46400
I 	I 	0.07193 0.05307 0.55307 -0.45400
I 	I 	0.87500 0.44693 0.05307 -0.45800
I 	I 	0.37500 0.55307 0.94693 -0.46200
N 	N 	0.67160 0.14070 0.45690 -0.24200
N 	N 	0.26920 0.85930 0.54310 -0.24000
N 	N 	0.87150 0.45690 0.85930 -0.24300
N 	N 	0.18770 0.54310 0.14070 -0.24100
N 	N 	0.07840 0.04310 0.35930 -0.24100
N 	N 	0.48080 0.95690 0.64070 -0.24100
N 	N 	0.87850 0.64070 0.04310 -0.24100
N 	N 	0.56230 0.35930 0.95690 -0.24100
