data_crystal

_cell_length_a 11.77390
_cell_length_b 11.77390
_cell_length_c 11.77390
_cell_angle_alpha 90.00000
_cell_angle_beta  90.00000
_cell_angle_gamma 90.00000

_symmetry_space_group_name_	'P 1'
_symmetry_space_group_name_H-M	'P 1'

loop_
_symmetry_equiv_pos_as_xyz
  x,y,z

loop_
_atom_site_label
_atom_site_type_symbol
_atom_site_fract_x
_atom_site_fract_y
_atom_site_fract_z
_atom_site_charge
Zn	Zn	-0.00000 0.00000 -0.00000 0.98700
Zn	Zn	0.00000 0.50000 0.50000 1.08800
Zn	Zn	0.50000 0.00000 0.50000 1.08900
Zn	Zn	0.50000 0.50000 -0.00000 1.08900
Li	Li	0.25000 0.25000 0.25000 0.53600
Li	Li	0.75000 0.75000 0.25000 0.53900
Li	Li	0.75000 0.25000 0.75000 0.53900
Li	Li	0.25000 0.75000 0.75000 0.53900
C 	C 	0.15490 0.15490 0.15490 -0.26100
N 	N 	0.10130 0.10130 0.10130 -0.36700
C 	C 	0.15490 0.65490 0.65490 -0.14800
N 	N 	0.10130 0.60130 0.60130 -0.30200
C 	C 	0.65490 0.15490 0.65490 -0.14800
N 	N 	0.60130 0.10130 0.60130 -0.30200
C 	C 	0.65490 0.65490 0.15490 -0.14800
N 	N 	0.60130 0.60130 0.10130 -0.30200
C 	C 	0.84510 0.84510 0.15490 -0.10100
N 	N 	0.89870 0.89870 0.10130 -0.20900
C 	C 	0.84510 0.34510 0.65490 -0.09900
N 	N 	0.89870 0.39870 0.60130 -0.22500
C 	C 	0.34510 0.84510 0.65490 -0.09900
N 	N 	0.39870 0.89870 0.60130 -0.22500
C 	C 	0.34510 0.34510 0.15490 -0.21000
N 	N 	0.39870 0.39870 0.10130 -0.30800
C 	C 	0.84510 0.15490 0.84510 -0.10100
N 	N 	0.89870 0.10130 0.89870 -0.20900
C 	C 	0.84510 0.65490 0.34510 -0.09900
N 	N 	0.89870 0.60130 0.39870 -0.22500
C 	C 	0.34510 0.15490 0.34510 -0.21000
N 	N 	0.39870 0.10130 0.39870 -0.30800
C 	C 	0.34510 0.65490 0.84510 -0.09900
N 	N 	0.39870 0.60130 0.89870 -0.22500
C 	C 	0.15490 0.84510 0.84510 -0.10100
N 	N 	0.10130 0.89870 0.89870 -0.20900
C 	C 	0.15490 0.34510 0.34510 -0.21000
N 	N 	0.10130 0.39870 0.39870 -0.30800
C 	C 	0.65490 0.84510 0.34510 -0.09900
N 	N 	0.60130 0.89870 0.39870 -0.22500
C 	C 	0.65490 0.34510 0.84510 -0.09900
N 	N 	0.60130 0.39870 0.89870 -0.22500
