data_crystal

_cell_length_a 6.52280
_cell_length_b 6.52280
_cell_length_c 6.52280
_cell_angle_alpha 90.00000
_cell_angle_beta  90.00000
_cell_angle_gamma 90.00000

_symmetry_space_group_name_	'P 1'
_symmetry_space_group_name_H-M	'P 1'

loop_
_symmetry_equiv_pos_as_xyz
  x,y,z

loop_
_atom_site_label
_atom_site_type_symbol
_atom_site_fract_x
_atom_site_fract_y
_atom_site_fract_z
_atom_site_charge
Cd	Cd	-0.00000 0.00000 -0.00000 1.17600
N 	N 	-0.00000 0.34530 0.08500 -0.10700
N 	N 	0.00000 0.65470 0.08500 -0.10000
N 	N 	0.00000 0.34530 0.91500 0.00900
N 	N 	0.00000 0.65470 0.91500 0.01100
N 	N 	0.08500 -0.00000 0.34530 -0.10700
N 	N 	0.08500 0.00000 0.65470 -0.10000
N 	N 	0.91500 -0.00000 0.34530 0.00900
N 	N 	0.91500 0.00000 0.65470 0.01100
N 	N 	0.34530 0.08500 -0.00000 -0.10700
N 	N 	0.65470 0.08500 -0.00000 -0.10000
N 	N 	0.34530 0.91500 -0.00000 0.00900
N 	N 	0.65470 0.91500 -0.00000 0.01100
N 	N 	0.34530 0.00000 0.91500 0.00900
N 	N 	0.65470 0.00000 0.91500 0.01100
N 	N 	0.34530 -0.00000 0.08500 -0.10700
N 	N 	0.65470 -0.00000 0.08500 -0.10000
N 	N 	0.00000 0.08500 0.65470 -0.10000
N 	N 	-0.00000 0.08500 0.34530 -0.10700
N 	N 	0.00000 0.91500 0.65470 0.01100
N 	N 	0.00000 0.91500 0.34530 0.00900
N 	N 	0.08500 0.34530 -0.00000 -0.10700
N 	N 	0.08500 0.65470 -0.00000 -0.10000
N 	N 	0.91500 0.34530 -0.00000 0.00900
N 	N 	0.91500 0.65470 -0.00000 0.01100
N 	N 	-0.00000 0.50000 -0.00000 -0.01800
N 	N 	-0.00000 -0.00000 0.50000 -0.01800
N 	N 	0.50000 0.00000 -0.00000 -0.01800
