data_crystal

_cell_length_a 30.29220
_cell_length_b 30.29220
_cell_length_c 29.59700
_cell_angle_alpha 90.00000
_cell_angle_beta  90.00000
_cell_angle_gamma 90.00000

_symmetry_space_group_name_	'P 1'
_symmetry_space_group_name_H-M	'P 1'

loop_
_symmetry_equiv_pos_as_xyz
  x,y,z

loop_
_atom_site_label
_atom_site_type_symbol
_atom_site_fract_x
_atom_site_fract_y
_atom_site_fract_z
_atom_site_charge
O 	O 	0.18760 0.12410 0.16540 -0.39700
O 	O 	0.22590 0.16380 0.21930 -0.41000
O 	O 	0.26617 0.04480 0.04503 -0.44100
O 	O 	0.34249 0.04640 0.04678 -0.41300
O 	O 	0.14330 0.07966 0.23420 -0.40700
O 	O 	0.18310 0.11880 0.28510 -0.40100
C 	C 	0.22050 0.13930 0.18740 0.35400
C 	C 	0.30260 0.05310 0.05730 0.36400
C 	C 	0.26310 0.12900 0.15920 -0.09700
C 	C 	0.26450 0.10050 0.11820 0.08300
C 	C 	0.30360 0.09020 0.09620 -0.09400
C 	C 	0.34270 0.10880 0.11320 0.05300
C 	C 	0.34240 0.14190 0.14990 -0.03300
C 	C 	0.30240 0.14820 0.17050 0.06100
C 	C 	0.38540 0.16040 0.16520 -0.00100
C 	C 	0.46030 0.20960 0.18390 0.12800
C 	C 	0.16980 0.08320 0.26600 0.35100
C 	C 	0.18220 0.03790 0.28900 -0.10700
C 	C 	0.21240 0.04280 0.32650 0.05400
C 	C 	0.25100 0.96840 0.41880 0.02400
C 	C 	0.27840 0.96890 0.45680 -0.00700
C 	C 	0.31960 0.02960 0.42550 -0.01900
C 	C 	0.29300 0.02970 0.38800 0.01000
C 	C 	0.42680 0.13990 0.16680 0.00500
C 	C 	0.46460 0.16530 0.17640 -0.01300
C 	C 	0.42050 0.23090 0.18280 -0.02700
C 	C 	0.38140 0.20530 0.17300 0.01300
C 	C 	0.41000 0.17720 0.12980 0.00800
C 	C 	0.43540 0.19250 0.21910 -0.00100
C 	C 	0.39740 0.16780 0.20950 0.00600
C 	C 	0.44870 0.20260 0.13870 -0.03100
O 	O 	0.81240 0.87590 0.16540 -0.39100
O 	O 	0.77410 0.83620 0.21930 -0.40800
O 	O 	0.73383 0.95520 0.04503 -0.42700
O 	O 	0.65751 0.95360 0.04678 -0.40000
O 	O 	0.85670 0.92034 0.23420 -0.39500
O 	O 	0.81690 0.88120 0.28510 -0.39700
C 	C 	0.77950 0.86070 0.18740 0.35500
C 	C 	0.69740 0.94690 0.05730 0.36700
C 	C 	0.73690 0.87100 0.15920 -0.09500
C 	C 	0.73550 0.89950 0.11820 0.09000
C 	C 	0.69640 0.90980 0.09620 -0.09300
C 	C 	0.65730 0.89120 0.11320 0.05700
C 	C 	0.65760 0.85810 0.14990 -0.03200
C 	C 	0.69760 0.85180 0.17050 0.06200
C 	C 	0.61460 0.83960 0.16520 -0.00200
C 	C 	0.53970 0.79040 0.18390 0.12700
C 	C 	0.83020 0.91680 0.26600 0.34900
C 	C 	0.81780 0.96210 0.28900 -0.08800
C 	C 	0.78760 0.95720 0.32650 0.06700
C 	C 	0.74900 0.03160 0.41880 0.01200
C 	C 	0.72160 0.03110 0.45680 -0.02000
C 	C 	0.68040 0.97040 0.42550 -0.00200
C 	C 	0.70700 0.97030 0.38800 0.02600
C 	C 	0.57320 0.86010 0.16680 0.01000
C 	C 	0.53540 0.83470 0.17640 -0.01200
C 	C 	0.57950 0.76910 0.18280 -0.02600
C 	C 	0.61860 0.79470 0.17300 0.01300
C 	C 	0.59000 0.82280 0.12980 0.00900
C 	C 	0.56460 0.80750 0.21910 0.00100
C 	C 	0.60260 0.83220 0.20950 0.00900
C 	C 	0.55130 0.79740 0.13870 -0.03000
O 	O 	0.87590 0.18760 0.16540 -0.39200
O 	O 	0.83620 0.22590 0.21930 -0.40800
O 	O 	0.95520 0.26617 0.04503 -0.42800
O 	O 	0.95360 0.34249 0.04678 -0.40000
O 	O 	0.92034 0.14330 0.23420 -0.39800
O 	O 	0.88120 0.18310 0.28510 -0.39800
C 	C 	0.86070 0.22050 0.18740 0.35600
C 	C 	0.94690 0.30260 0.05730 0.36700
C 	C 	0.87100 0.26310 0.15920 -0.09500
C 	C 	0.89950 0.26450 0.11820 0.08900
C 	C 	0.90980 0.30360 0.09620 -0.09300
C 	C 	0.89120 0.34270 0.11320 0.05700
C 	C 	0.85810 0.34240 0.14990 -0.03200
C 	C 	0.85180 0.30240 0.17050 0.06200
C 	C 	0.83960 0.38540 0.16520 -0.00200
C 	C 	0.79040 0.46030 0.18390 0.12700
C 	C 	0.91680 0.16980 0.26600 0.34900
C 	C 	0.96210 0.18220 0.28900 -0.08900
C 	C 	0.95720 0.21240 0.32650 0.06600
C 	C 	0.03160 0.25100 0.41880 0.01000
C 	C 	0.03110 0.27840 0.45680 -0.02000
C 	C 	0.97040 0.31960 0.42550 -0.00200
C 	C 	0.97030 0.29300 0.38800 0.02600
C 	C 	0.86010 0.42680 0.16680 0.01000
C 	C 	0.83470 0.46460 0.17640 -0.01200
C 	C 	0.76910 0.42050 0.18280 -0.02600
C 	C 	0.79470 0.38140 0.17300 0.01300
C 	C 	0.82280 0.41000 0.12980 0.00900
C 	C 	0.80750 0.43540 0.21910 0.00100
C 	C 	0.83220 0.39740 0.20950 0.00900
C 	C 	0.79740 0.44870 0.13870 -0.03000
O 	O 	0.12410 0.81240 0.16540 -0.39400
O 	O 	0.16380 0.77410 0.21930 -0.40900
O 	O 	0.04480 0.73383 0.04503 -0.43900
O 	O 	0.04640 0.65751 0.04678 -0.41100
O 	O 	0.07966 0.85670 0.23420 -0.40300
O 	O 	0.11880 0.81690 0.28510 -0.39900
C 	C 	0.13930 0.77950 0.18740 0.35500
C 	C 	0.05310 0.69740 0.05730 0.36500
C 	C 	0.12900 0.73690 0.15920 -0.09600
C 	C 	0.10050 0.73550 0.11820 0.08500
C 	C 	0.09020 0.69640 0.09620 -0.09400
C 	C 	0.10880 0.65730 0.11320 0.05300
C 	C 	0.14190 0.65760 0.14990 -0.03300
C 	C 	0.14820 0.69760 0.17050 0.06100
C 	C 	0.16040 0.61460 0.16520 -0.00100
C 	C 	0.20960 0.53970 0.18390 0.12800
C 	C 	0.08320 0.83020 0.26600 0.35100
C 	C 	0.03790 0.81780 0.28900 -0.10600
C 	C 	0.04280 0.78760 0.32650 0.05500
C 	C 	0.96840 0.74900 0.41880 0.02600
C 	C 	0.96890 0.72160 0.45680 -0.00700
C 	C 	0.02960 0.68040 0.42550 -0.01900
C 	C 	0.02970 0.70700 0.38800 0.01000
C 	C 	0.13990 0.57320 0.16680 0.00500
C 	C 	0.16530 0.53540 0.17640 -0.01300
C 	C 	0.23090 0.57950 0.18280 -0.02600
C 	C 	0.20530 0.61860 0.17300 0.01300
C 	C 	0.17720 0.59000 0.12980 0.00800
C 	C 	0.19250 0.56460 0.21910 -0.00100
C 	C 	0.16780 0.60260 0.20950 0.00600
C 	C 	0.20260 0.55130 0.13870 -0.03100
O 	O 	0.81240 0.12410 0.83460 -0.38800
O 	O 	0.77410 0.16380 0.78070 -0.40800
O 	O 	0.73383 0.04480 0.95497 -0.41000
O 	O 	0.65751 0.04640 0.95322 -0.38400
O 	O 	0.85670 0.07966 0.76580 -0.40100
O 	O 	0.81690 0.11880 0.71490 -0.39900
C 	C 	0.77950 0.13930 0.81260 0.35500
C 	C 	0.69740 0.05310 0.94270 0.36400
C 	C 	0.73690 0.12900 0.84080 -0.09500
C 	C 	0.73550 0.10050 0.88180 0.09200
C 	C 	0.69640 0.09020 0.90380 -0.08900
C 	C 	0.65730 0.10880 0.88680 0.06100
C 	C 	0.65760 0.14190 0.85010 -0.03000
C 	C 	0.69760 0.14820 0.82950 0.06300
C 	C 	0.61460 0.16040 0.83480 -0.00500
C 	C 	0.53970 0.20960 0.81610 0.12500
C 	C 	0.83020 0.08320 0.73400 0.35100
C 	C 	0.81780 0.03790 0.71100 -0.10600
C 	C 	0.78760 0.04280 0.67350 0.05500
C 	C 	0.74900 0.96840 0.58120 0.02500
C 	C 	0.72160 0.96890 0.54320 -0.00700
C 	C 	0.68040 0.02960 0.57450 -0.01900
C 	C 	0.70700 0.02970 0.61200 0.01000
C 	C 	0.57320 0.13990 0.83320 0.00900
C 	C 	0.53540 0.16530 0.82360 -0.01200
C 	C 	0.57950 0.23090 0.81720 -0.02100
C 	C 	0.61860 0.20530 0.82700 0.01700
C 	C 	0.59000 0.17720 0.87020 0.01900
C 	C 	0.56460 0.19250 0.78090 -0.00000
C 	C 	0.60260 0.16780 0.79050 0.00700
C 	C 	0.55130 0.20260 0.86130 -0.02100
O 	O 	0.18760 0.87590 0.83460 -0.38700
O 	O 	0.22590 0.83620 0.78070 -0.40700
O 	O 	0.26617 0.95520 0.95497 -0.40000
O 	O 	0.34249 0.95360 0.95322 -0.37300
O 	O 	0.14330 0.92034 0.76580 -0.39600
O 	O 	0.18310 0.88120 0.71490 -0.39800
C 	C 	0.22050 0.86070 0.81260 0.35600
C 	C 	0.30260 0.94690 0.94270 0.36500
C 	C 	0.26310 0.87100 0.84080 -0.09400
C 	C 	0.26450 0.89950 0.88180 0.09600
C 	C 	0.30360 0.90980 0.90380 -0.08800
C 	C 	0.34270 0.89120 0.88680 0.06500
C 	C 	0.34240 0.85810 0.85010 -0.02900
C 	C 	0.30240 0.85180 0.82950 0.06400
C 	C 	0.38540 0.83960 0.83480 -0.00600
C 	C 	0.46030 0.79040 0.81610 0.12400
C 	C 	0.16980 0.91680 0.73400 0.34900
C 	C 	0.18220 0.96210 0.71100 -0.08900
C 	C 	0.21240 0.95720 0.67350 0.06600
C 	C 	0.25100 0.03160 0.58120 0.01000
C 	C 	0.27840 0.03110 0.54320 -0.02000
C 	C 	0.31960 0.97040 0.57450 -0.00200
C 	C 	0.29300 0.97030 0.61200 0.02500
C 	C 	0.42680 0.86010 0.83320 0.01300
C 	C 	0.46460 0.83470 0.82360 -0.01100
C 	C 	0.42050 0.76910 0.81720 -0.02100
C 	C 	0.38140 0.79470 0.82700 0.01700
C 	C 	0.41000 0.82280 0.87020 0.01900
C 	C 	0.43540 0.80750 0.78090 0.00100
C 	C 	0.39740 0.83220 0.79050 0.00900
C 	C 	0.44870 0.79740 0.86130 -0.02100
O 	O 	0.12410 0.18760 0.83460 -0.39000
O 	O 	0.16380 0.22590 0.78070 -0.40800
O 	O 	0.04480 0.26617 0.95497 -0.41100
O 	O 	0.04640 0.34249 0.95322 -0.38400
O 	O 	0.07966 0.14330 0.76580 -0.40400
O 	O 	0.11880 0.18310 0.71490 -0.40000
C 	C 	0.13930 0.22050 0.81260 0.35500
C 	C 	0.05310 0.30260 0.94270 0.36400
C 	C 	0.12900 0.26310 0.84080 -0.09500
C 	C 	0.10050 0.26450 0.88180 0.09100
C 	C 	0.09020 0.30360 0.90380 -0.08900
C 	C 	0.10880 0.34270 0.88680 0.06100
C 	C 	0.14190 0.34240 0.85010 -0.03000
C 	C 	0.14820 0.30240 0.82950 0.06300
C 	C 	0.16040 0.38540 0.83480 -0.00500
C 	C 	0.20960 0.46030 0.81610 0.12500
C 	C 	0.08320 0.16980 0.73400 0.35100
C 	C 	0.03790 0.18220 0.71100 -0.10700
C 	C 	0.04280 0.21240 0.67350 0.05400
C 	C 	0.96840 0.25100 0.58120 0.02400
C 	C 	0.96890 0.27840 0.54320 -0.00700
C 	C 	0.02960 0.31960 0.57450 -0.01900
C 	C 	0.02970 0.29300 0.61200 0.01000
C 	C 	0.13990 0.42680 0.83320 0.00900
C 	C 	0.16530 0.46460 0.82360 -0.01200
C 	C 	0.23090 0.42050 0.81720 -0.02100
C 	C 	0.20530 0.38140 0.82700 0.01700
C 	C 	0.17720 0.41000 0.87020 0.01900
C 	C 	0.19250 0.43540 0.78090 -0.00000
C 	C 	0.16780 0.39740 0.79050 0.00700
C 	C 	0.20260 0.44870 0.86130 -0.02100
O 	O 	0.87590 0.81240 0.83460 -0.38500
O 	O 	0.83620 0.77410 0.78070 -0.40700
O 	O 	0.95520 0.73383 0.95497 -0.39900
O 	O 	0.95360 0.65751 0.95322 -0.37300
O 	O 	0.92034 0.85670 0.76580 -0.39300
O 	O 	0.88120 0.81690 0.71490 -0.39700
C 	C 	0.86070 0.77950 0.81260 0.35500
C 	C 	0.94690 0.69740 0.94270 0.36500
C 	C 	0.87100 0.73690 0.84080 -0.09400
C 	C 	0.89950 0.73550 0.88180 0.09700
C 	C 	0.90980 0.69640 0.90380 -0.08800
C 	C 	0.89120 0.65730 0.88680 0.06500
C 	C 	0.85810 0.65760 0.85010 -0.02900
C 	C 	0.85180 0.69760 0.82950 0.06400
C 	C 	0.83960 0.61460 0.83480 -0.00600
C 	C 	0.79040 0.53970 0.81610 0.12400
C 	C 	0.91680 0.83020 0.73400 0.34900
C 	C 	0.96210 0.81780 0.71100 -0.08900
C 	C 	0.95720 0.78760 0.67350 0.06700
C 	C 	0.03160 0.74900 0.58120 0.01100
C 	C 	0.03110 0.72160 0.54320 -0.02000
C 	C 	0.97040 0.68040 0.57450 -0.00200
C 	C 	0.97030 0.70700 0.61200 0.02500
C 	C 	0.86010 0.57320 0.83320 0.01300
C 	C 	0.83470 0.53540 0.82360 -0.01100
C 	C 	0.76910 0.57950 0.81720 -0.02100
C 	C 	0.79470 0.61860 0.82700 0.01700
C 	C 	0.82280 0.59000 0.87020 0.01900
C 	C 	0.80750 0.56460 0.78090 0.00100
C 	C 	0.83220 0.60260 0.79050 0.00900
C 	C 	0.79740 0.55130 0.86130 -0.02100
O 	O 	0.81240 0.87590 0.83460 -0.38500
O 	O 	0.77410 0.83620 0.78070 -0.40700
O 	O 	0.73383 0.95520 0.95497 -0.39900
O 	O 	0.65751 0.95360 0.95322 -0.37300
O 	O 	0.85670 0.92034 0.76580 -0.39300
O 	O 	0.81690 0.88120 0.71490 -0.39700
C 	C 	0.77950 0.86070 0.81260 0.35500
C 	C 	0.69740 0.94690 0.94270 0.36500
C 	C 	0.73690 0.87100 0.84080 -0.09400
C 	C 	0.73550 0.89950 0.88180 0.09700
C 	C 	0.69640 0.90980 0.90380 -0.08800
C 	C 	0.65730 0.89120 0.88680 0.06500
C 	C 	0.65760 0.85810 0.85010 -0.02900
C 	C 	0.69760 0.85180 0.82950 0.06400
C 	C 	0.61460 0.83960 0.83480 -0.00600
C 	C 	0.53970 0.79040 0.81610 0.12400
C 	C 	0.83020 0.91680 0.73400 0.34900
C 	C 	0.81780 0.96210 0.71100 -0.08900
C 	C 	0.78760 0.95720 0.67350 0.06700
C 	C 	0.74900 0.03160 0.58120 0.01100
C 	C 	0.72160 0.03110 0.54320 -0.02000
C 	C 	0.68040 0.97040 0.57450 -0.00200
C 	C 	0.70700 0.97030 0.61200 0.02500
C 	C 	0.57320 0.86010 0.83320 0.01300
C 	C 	0.53540 0.83470 0.82360 -0.01100
C 	C 	0.57950 0.76910 0.81720 -0.02100
C 	C 	0.61860 0.79470 0.82700 0.01700
C 	C 	0.59000 0.82280 0.87020 0.01900
C 	C 	0.56460 0.80750 0.78090 0.00100
C 	C 	0.60260 0.83220 0.79050 0.00900
C 	C 	0.55130 0.79740 0.86130 -0.02100
O 	O 	0.18760 0.12410 0.83460 -0.39000
O 	O 	0.22590 0.16380 0.78070 -0.40800
O 	O 	0.26617 0.04480 0.95497 -0.41100
O 	O 	0.34249 0.04640 0.95322 -0.38400
O 	O 	0.14330 0.07966 0.76580 -0.40400
O 	O 	0.18310 0.11880 0.71490 -0.40000
C 	C 	0.22050 0.13930 0.81260 0.35500
C 	C 	0.30260 0.05310 0.94270 0.36400
C 	C 	0.26310 0.12900 0.84080 -0.09500
C 	C 	0.26450 0.10050 0.88180 0.09100
C 	C 	0.30360 0.09020 0.90380 -0.08900
C 	C 	0.34270 0.10880 0.88680 0.06100
C 	C 	0.34240 0.14190 0.85010 -0.03000
C 	C 	0.30240 0.14820 0.82950 0.06300
C 	C 	0.38540 0.16040 0.83480 -0.00500
C 	C 	0.46030 0.20960 0.81610 0.12500
C 	C 	0.16980 0.08320 0.73400 0.35100
C 	C 	0.18220 0.03790 0.71100 -0.10700
C 	C 	0.21240 0.04280 0.67350 0.05400
C 	C 	0.25100 0.96840 0.58120 0.02400
C 	C 	0.27840 0.96890 0.54320 -0.00700
C 	C 	0.31960 0.02960 0.57450 -0.01900
C 	C 	0.29300 0.02970 0.61200 0.01000
C 	C 	0.42680 0.13990 0.83320 0.00900
C 	C 	0.46460 0.16530 0.82360 -0.01200
C 	C 	0.42050 0.23090 0.81720 -0.02100
C 	C 	0.38140 0.20530 0.82700 0.01700
C 	C 	0.41000 0.17720 0.87020 0.01900
C 	C 	0.43540 0.19250 0.78090 -0.00000
C 	C 	0.39740 0.16780 0.79050 0.00700
C 	C 	0.44870 0.20260 0.86130 -0.02100
O 	O 	0.12410 0.81240 0.83460 -0.38800
O 	O 	0.16380 0.77410 0.78070 -0.40800
O 	O 	0.04480 0.73383 0.95497 -0.41000
O 	O 	0.04640 0.65751 0.95322 -0.38400
O 	O 	0.07966 0.85670 0.76580 -0.40100
O 	O 	0.11880 0.81690 0.71490 -0.39900
C 	C 	0.13930 0.77950 0.81260 0.35500
C 	C 	0.05310 0.69740 0.94270 0.36400
C 	C 	0.12900 0.73690 0.84080 -0.09500
C 	C 	0.10050 0.73550 0.88180 0.09200
C 	C 	0.09020 0.69640 0.90380 -0.08900
C 	C 	0.10880 0.65730 0.88680 0.06100
C 	C 	0.14190 0.65760 0.85010 -0.03000
C 	C 	0.14820 0.69760 0.82950 0.06300
C 	C 	0.16040 0.61460 0.83480 -0.00500
C 	C 	0.20960 0.53970 0.81610 0.12500
C 	C 	0.08320 0.83020 0.73400 0.35100
C 	C 	0.03790 0.81780 0.71100 -0.10600
C 	C 	0.04280 0.78760 0.67350 0.05500
C 	C 	0.96840 0.74900 0.58120 0.02500
C 	C 	0.96890 0.72160 0.54320 -0.00700
C 	C 	0.02960 0.68040 0.57450 -0.01900
C 	C 	0.02970 0.70700 0.61200 0.01000
C 	C 	0.13990 0.57320 0.83320 0.00900
C 	C 	0.16530 0.53540 0.82360 -0.01200
C 	C 	0.23090 0.57950 0.81720 -0.02100
C 	C 	0.20530 0.61860 0.82700 0.01700
C 	C 	0.17720 0.59000 0.87020 0.01900
C 	C 	0.19250 0.56460 0.78090 -0.00000
C 	C 	0.16780 0.60260 0.79050 0.00700
C 	C 	0.20260 0.55130 0.86130 -0.02100
O 	O 	0.87590 0.18760 0.83460 -0.38700
O 	O 	0.83620 0.22590 0.78070 -0.40700
O 	O 	0.95520 0.26617 0.95497 -0.40000
O 	O 	0.95360 0.34249 0.95322 -0.37300
O 	O 	0.92034 0.14330 0.76580 -0.39600
O 	O 	0.88120 0.18310 0.71490 -0.39800
C 	C 	0.86070 0.22050 0.81260 0.35600
C 	C 	0.94690 0.30260 0.94270 0.36500
C 	C 	0.87100 0.26310 0.84080 -0.09400
C 	C 	0.89950 0.26450 0.88180 0.09600
C 	C 	0.90980 0.30360 0.90380 -0.08800
C 	C 	0.89120 0.34270 0.88680 0.06500
C 	C 	0.85810 0.34240 0.85010 -0.02900
C 	C 	0.85180 0.30240 0.82950 0.06400
C 	C 	0.83960 0.38540 0.83480 -0.00600
C 	C 	0.79040 0.46030 0.81610 0.12400
C 	C 	0.91680 0.16980 0.73400 0.34900
C 	C 	0.96210 0.18220 0.71100 -0.08900
C 	C 	0.95720 0.21240 0.67350 0.06600
C 	C 	0.03160 0.25100 0.58120 0.01000
C 	C 	0.03110 0.27840 0.54320 -0.02000
C 	C 	0.97040 0.31960 0.57450 -0.00200
C 	C 	0.97030 0.29300 0.61200 0.02500
C 	C 	0.86010 0.42680 0.83320 0.01300
C 	C 	0.83470 0.46460 0.82360 -0.01100
C 	C 	0.76910 0.42050 0.81720 -0.02100
C 	C 	0.79470 0.38140 0.82700 0.01700
C 	C 	0.82280 0.41000 0.87020 0.01900
C 	C 	0.80750 0.43540 0.78090 0.00100
C 	C 	0.83220 0.39740 0.79050 0.00900
C 	C 	0.79740 0.44870 0.86130 -0.02100
O 	O 	0.18760 0.87590 0.16540 -0.39200
O 	O 	0.22590 0.83620 0.21930 -0.40800
O 	O 	0.26617 0.95520 0.04503 -0.42800
O 	O 	0.34249 0.95360 0.04678 -0.40000
O 	O 	0.14330 0.92034 0.23420 -0.39800
O 	O 	0.18310 0.88120 0.28510 -0.39800
C 	C 	0.22050 0.86070 0.18740 0.35600
C 	C 	0.30260 0.94690 0.05730 0.36700
C 	C 	0.26310 0.87100 0.15920 -0.09500
C 	C 	0.26450 0.89950 0.11820 0.08900
C 	C 	0.30360 0.90980 0.09620 -0.09300
C 	C 	0.34270 0.89120 0.11320 0.05700
C 	C 	0.34240 0.85810 0.14990 -0.03200
C 	C 	0.30240 0.85180 0.17050 0.06200
C 	C 	0.38540 0.83960 0.16520 -0.00200
C 	C 	0.46030 0.79040 0.18390 0.12700
C 	C 	0.16980 0.91680 0.26600 0.34900
C 	C 	0.18220 0.96210 0.28900 -0.08900
C 	C 	0.21240 0.95720 0.32650 0.06600
C 	C 	0.25100 0.03160 0.41880 0.01000
C 	C 	0.27840 0.03110 0.45680 -0.02000
C 	C 	0.31960 0.97040 0.42550 -0.00200
C 	C 	0.29300 0.97030 0.38800 0.02600
C 	C 	0.42680 0.86010 0.16680 0.01000
C 	C 	0.46460 0.83470 0.17640 -0.01200
C 	C 	0.42050 0.76910 0.18280 -0.02600
C 	C 	0.38140 0.79470 0.17300 0.01300
C 	C 	0.41000 0.82280 0.12980 0.00900
C 	C 	0.43540 0.80750 0.21910 0.00100
C 	C 	0.39740 0.83220 0.20950 0.00900
C 	C 	0.44870 0.79740 0.13870 -0.03000
O 	O 	0.81240 0.12410 0.16540 -0.39400
O 	O 	0.77410 0.16380 0.21930 -0.40900
O 	O 	0.73383 0.04480 0.04503 -0.43900
O 	O 	0.65751 0.04640 0.04678 -0.41100
O 	O 	0.85670 0.07966 0.23420 -0.40300
O 	O 	0.81690 0.11880 0.28510 -0.39900
C 	C 	0.77950 0.13930 0.18740 0.35500
C 	C 	0.69740 0.05310 0.05730 0.36500
C 	C 	0.73690 0.12900 0.15920 -0.09600
C 	C 	0.73550 0.10050 0.11820 0.08500
C 	C 	0.69640 0.09020 0.09620 -0.09400
C 	C 	0.65730 0.10880 0.11320 0.05300
C 	C 	0.65760 0.14190 0.14990 -0.03300
C 	C 	0.69760 0.14820 0.17050 0.06100
C 	C 	0.61460 0.16040 0.16520 -0.00100
C 	C 	0.53970 0.20960 0.18390 0.12800
C 	C 	0.83020 0.08320 0.26600 0.35100
C 	C 	0.81780 0.03790 0.28900 -0.10600
C 	C 	0.78760 0.04280 0.32650 0.05500
C 	C 	0.74900 0.96840 0.41880 0.02600
C 	C 	0.72160 0.96890 0.45680 -0.00700
C 	C 	0.68040 0.02960 0.42550 -0.01900
C 	C 	0.70700 0.02970 0.38800 0.01000
C 	C 	0.57320 0.13990 0.16680 0.00500
C 	C 	0.53540 0.16530 0.17640 -0.01300
C 	C 	0.57950 0.23090 0.18280 -0.02600
C 	C 	0.61860 0.20530 0.17300 0.01300
C 	C 	0.59000 0.17720 0.12980 0.00800
C 	C 	0.56460 0.19250 0.21910 -0.00100
C 	C 	0.60260 0.16780 0.20950 0.00600
C 	C 	0.55130 0.20260 0.13870 -0.03100
O 	O 	0.87590 0.81240 0.16540 -0.39100
O 	O 	0.83620 0.77410 0.21930 -0.40800
O 	O 	0.95520 0.73383 0.04503 -0.42700
O 	O 	0.95360 0.65751 0.04678 -0.40000
O 	O 	0.92034 0.85670 0.23420 -0.39500
O 	O 	0.88120 0.81690 0.28510 -0.39700
C 	C 	0.86070 0.77950 0.18740 0.35500
C 	C 	0.94690 0.69740 0.05730 0.36700
C 	C 	0.87100 0.73690 0.15920 -0.09500
C 	C 	0.89950 0.73550 0.11820 0.09000
C 	C 	0.90980 0.69640 0.09620 -0.09300
C 	C 	0.89120 0.65730 0.11320 0.05700
C 	C 	0.85810 0.65760 0.14990 -0.03200
C 	C 	0.85180 0.69760 0.17050 0.06200
C 	C 	0.83960 0.61460 0.16520 -0.00200
C 	C 	0.79040 0.53970 0.18390 0.12700
C 	C 	0.91680 0.83020 0.26600 0.34900
C 	C 	0.96210 0.81780 0.28900 -0.08800
C 	C 	0.95720 0.78760 0.32650 0.06700
C 	C 	0.03160 0.74900 0.41880 0.01200
C 	C 	0.03110 0.72160 0.45680 -0.02000
C 	C 	0.97040 0.68040 0.42550 -0.00200
C 	C 	0.97030 0.70700 0.38800 0.02600
C 	C 	0.86010 0.57320 0.16680 0.01000
C 	C 	0.83470 0.53540 0.17640 -0.01200
C 	C 	0.76910 0.57950 0.18280 -0.02600
C 	C 	0.79470 0.61860 0.17300 0.01300
C 	C 	0.82280 0.59000 0.12980 0.00900
C 	C 	0.80750 0.56460 0.21910 0.00100
C 	C 	0.83220 0.60260 0.20950 0.00900
C 	C 	0.79740 0.55130 0.13870 -0.03000
O 	O 	0.12410 0.18760 0.16540 -0.39600
O 	O 	0.16380 0.22590 0.21930 -0.40900
O 	O 	0.04480 0.26617 0.04503 -0.44000
O 	O 	0.04640 0.34249 0.04678 -0.41200
O 	O 	0.07966 0.14330 0.23420 -0.40600
O 	O 	0.11880 0.18310 0.28510 -0.40000
C 	C 	0.13930 0.22050 0.18740 0.35500
C 	C 	0.05310 0.30260 0.05730 0.36500
C 	C 	0.12900 0.26310 0.15920 -0.09600
C 	C 	0.10050 0.26450 0.11820 0.08400
C 	C 	0.09020 0.30360 0.09620 -0.09400
C 	C 	0.10880 0.34270 0.11320 0.05300
C 	C 	0.14190 0.34240 0.14990 -0.03300
C 	C 	0.14820 0.30240 0.17050 0.06100
C 	C 	0.16040 0.38540 0.16520 -0.00100
C 	C 	0.20960 0.46030 0.18390 0.12800
C 	C 	0.08320 0.16980 0.26600 0.35100
C 	C 	0.03790 0.18220 0.28900 -0.10700
C 	C 	0.04280 0.21240 0.32650 0.05400
C 	C 	0.96840 0.25100 0.41880 0.02400
C 	C 	0.96890 0.27840 0.45680 -0.00700
C 	C 	0.02960 0.31960 0.42550 -0.01900
C 	C 	0.02970 0.29300 0.38800 0.01000
C 	C 	0.13990 0.42680 0.16680 0.00500
C 	C 	0.16530 0.46460 0.17640 -0.01300
C 	C 	0.23090 0.42050 0.18280 -0.02700
C 	C 	0.20530 0.38140 0.17300 0.01300
C 	C 	0.17720 0.41000 0.12980 0.00800
C 	C 	0.19250 0.43540 0.21910 -0.00100
C 	C 	0.16780 0.39740 0.20950 0.00600
C 	C 	0.20260 0.44870 0.13870 -0.03100
Cu	Cu	0.13000 0.13000 0.19565 0.90100
Cu	Cu	0.17510 0.17510 0.25716 0.91300
Cu	Cu	0.87000 0.87000 0.19565 0.90400
Cu	Cu	0.82490 0.82490 0.25716 0.91400
Cu	Cu	0.87000 0.13000 0.19565 0.90300
Cu	Cu	0.82490 0.17510 0.25716 0.91300
Cu	Cu	0.13000 0.87000 0.19565 0.90300
Cu	Cu	0.17510 0.82490 0.25716 0.91300
Cu	Cu	0.87000 0.13000 0.80435 0.90500
Cu	Cu	0.82490 0.17510 0.74284 0.91300
Cu	Cu	0.13000 0.87000 0.80435 0.90500
Cu	Cu	0.17510 0.82490 0.74284 0.91300
Cu	Cu	0.13000 0.13000 0.80435 0.90300
Cu	Cu	0.17510 0.17510 0.74284 0.91300
Cu	Cu	0.87000 0.87000 0.80435 0.90600
Cu	Cu	0.82490 0.82490 0.74284 0.91400
Cu	Cu	0.26058 0.00000 -0.00000 0.89100
Cu	Cu	0.34824 0.00000 -0.00000 0.87000
Cu	Cu	0.73942 0.00000 -0.00000 0.89100
Cu	Cu	0.65176 0.00000 -0.00000 0.87000
Cu	Cu	0.00000 0.26058 -0.00000 0.89100
Cu	Cu	-0.00000 0.34824 -0.00000 0.87000
Cu	Cu	0.00000 0.73942 -0.00000 0.89100
Cu	Cu	-0.00000 0.65176 -0.00000 0.87000
O 	O 	0.33770 -0.00000 0.50000 -0.19600
O 	O 	0.66230 -0.00000 0.50000 -0.19600
O 	O 	-0.00000 0.33770 0.50000 -0.19600
O 	O 	-0.00000 0.66230 0.50000 -0.19600
C 	C 	0.16860 -0.00000 0.27070 0.08300
C 	C 	0.22640 0.00000 0.34450 -0.03400
C 	C 	0.25870 -0.00000 0.38340 -0.02900
C 	C 	0.31240 0.00000 0.45960 0.10300
C 	C 	0.83140 -0.00000 0.27070 0.08600
C 	C 	0.77360 0.00000 0.34450 -0.03400
C 	C 	0.74130 -0.00000 0.38340 -0.03000
C 	C 	0.68760 0.00000 0.45960 0.10300
C 	C 	-0.00000 0.16860 0.27070 0.08300
C 	C 	-0.00000 0.22640 0.34450 -0.03400
C 	C 	-0.00000 0.25870 0.38340 -0.02900
C 	C 	0.00000 0.31240 0.45960 0.10300
C 	C 	-0.00000 0.83140 0.27070 0.08600
C 	C 	-0.00000 0.77360 0.34450 -0.03400
C 	C 	0.00000 0.74130 0.38340 -0.03000
C 	C 	0.00000 0.68760 0.45960 0.10300
C 	C 	0.83140 -0.00000 0.72930 0.08800
C 	C 	0.77360 0.00000 0.65550 -0.03400
C 	C 	0.74130 -0.00000 0.61660 -0.02900
C 	C 	0.68760 -0.00000 0.54040 0.10300
C 	C 	0.16860 -0.00000 0.72930 0.08500
C 	C 	0.22640 0.00000 0.65550 -0.03400
C 	C 	0.25870 -0.00000 0.61660 -0.02900
C 	C 	0.31240 -0.00000 0.54040 0.10400
C 	C 	0.00000 0.16860 0.72930 0.08500
C 	C 	-0.00000 0.22640 0.65550 -0.03400
C 	C 	-0.00000 0.25870 0.61660 -0.02900
C 	C 	0.00000 0.31240 0.54040 0.10400
C 	C 	0.00000 0.83140 0.72930 0.08800
C 	C 	0.00000 0.77360 0.65550 -0.03400
C 	C 	-0.00000 0.74130 0.61660 -0.02900
C 	C 	0.00000 0.68760 0.54040 0.10300
O 	O 	0.50000 0.21610 0.20780 -0.20500
O 	O 	0.50000 0.78390 0.20780 -0.20300
O 	O 	0.78390 0.50000 0.20780 -0.20300
O 	O 	0.21610 0.50000 0.20780 -0.20500
O 	O 	0.50000 0.21610 0.79220 -0.20100
O 	O 	0.50000 0.78390 0.79220 -0.20000
O 	O 	0.21610 0.50000 0.79220 -0.20100
O 	O 	0.78390 0.50000 0.79220 -0.20000
