data_crystal

_cell_length_a 19.80100
_cell_length_b 20.16200
_cell_length_c 27.22500
_cell_angle_alpha 97.54400
_cell_angle_beta  100.60900
_cell_angle_gamma 111.62700

_symmetry_space_group_name_	'P 1'
_symmetry_space_group_name_H-M	'P 1'

loop_
_symmetry_equiv_pos_as_xyz
  x,y,z

loop_
_atom_site_label
_atom_site_type_symbol
_atom_site_fract_x
_atom_site_fract_y
_atom_site_fract_z
_atom_site_charge
Zn	Zn	0.55489 0.26488 0.88037 1.20600
Zn	Zn	0.06265 0.66882 0.19364 1.20300
Zn	Zn	0.47331 0.96388 0.67530 1.19400
Zn	Zn	0.16166 0.76243 0.57125 1.21000
Zn	Zn	0.04032 0.89018 0.34986 1.19300
Zn	Zn	0.70354 0.36791 0.09631 1.19500
Zn	Zn	0.45359 0.11128 0.66828 1.19600
Zn	Zn	0.86140 0.35883 0.10011 1.19300
Zn	Zn	0.93285 0.78222 0.40667 1.19400
O 	O 	0.55130 0.33820 0.83862 -0.43500
O 	O 	0.63880 0.30790 0.81466 -0.34300
O 	O 	0.46100 0.84990 0.68650 -0.38900
O 	O 	0.54360 0.91920 0.65320 -0.42900
O 	O 	0.07270 0.75020 0.59760 -0.48600
O 	O 	0.03520 0.63590 0.56350 -0.30700
O 	O 	0.14550 0.94290 0.30174 -0.34100
O 	O 	0.05780 0.97500 0.32014 -0.46800
O 	O 	0.08830 0.58230 0.24680 -0.35500
O 	O 	0.12680 0.61480 0.17880 -0.42400
O 	O 	0.58720 0.39610 0.07230 -0.33600
O 	O 	0.61380 0.32400 0.12013 -0.45400
O 	O 	0.47590 0.26050 0.91745 -0.43500
O 	O 	0.50760 0.17410 0.94289 -0.33800
O 	O 	0.99020 0.38400 0.08519 -0.33900
O 	O 	0.92090 0.30460 0.12292 -0.44700
O 	O 	0.84390 0.76140 0.43270 -0.45400
O 	O 	0.88490 0.67870 0.45450 -0.33400
O 	O 	0.26640 0.75860 0.52860 -0.35300
O 	O 	0.21210 0.69380 0.57760 -0.49500
O 	O 	0.94890 0.87150 0.37746 -0.53900
O 	O 	0.15940 0.77650 0.19288 -0.37500
O 	O 	0.04240 0.75000 0.15580 -0.41000
O 	O 	0.77110 0.32340 0.12821 -0.53300
O 	O 	0.50620 0.05205 0.64476 -0.53300
N 	N 	0.23920 0.85370 0.62290 -0.24500
N 	N 	0.72490 0.56680 0.67073 -0.14400
N 	N 	0.63230 0.60440 0.69062 -0.14300
N 	N 	0.72040 0.67550 0.65008 -0.14100
N 	N 	0.19280 0.28730 0.21863 -0.14100
N 	N 	0.28050 0.24230 0.19466 -0.14100
N 	N 	0.27510 0.34990 0.17164 -0.14200
N 	N 	0.20590 0.18150 0.06096 -0.14100
N 	N 	0.13550 0.09890 0.10526 -0.14400
N 	N 	0.23880 0.08430 0.08074 -0.14400
N 	N 	0.53970 0.62070 0.53961 -0.14200
N 	N 	0.47160 0.53060 0.58106 -0.14200
N 	N 	0.58020 0.52720 0.55728 -0.13900
N 	N 	0.12880 0.79820 0.50880 -0.25000
N 	N 	0.03780 0.80730 0.44855 -0.29800
N 	N 	0.12040 0.90190 0.41270 -0.29400
N 	N 	0.25090 0.94440 0.45370 -0.15200
N 	N 	0.29510 0.89860 0.51820 -0.29500
H 	H 	0.34070 0.92940 0.51910 0.14400
H 	H 	0.28860 0.86870 0.53950 0.13700
N 	N 	0.01790 0.78960 0.30998 -0.30200
N 	N 	0.03400 0.70350 0.25736 -0.24900
N 	N 	0.92080 0.70860 0.34401 -0.29500
N 	N 	0.88500 0.58240 0.30900 -0.15100
N 	N 	0.94720 0.53970 0.25810 -0.30000
H 	H 	0.92090 0.49510 0.26090 0.14800
H 	H 	0.98060 0.54710 0.23980 0.14400
N 	N 	0.96320 0.58620 0.15052 -0.24300
N 	N 	0.88790 0.46590 0.12178 -0.30400
N 	N 	0.76800 0.47500 0.12350 -0.29800
N 	N 	0.77920 0.59740 0.15170 -0.15000
N 	N 	0.89120 0.69680 0.17080 -0.30200
H 	H 	0.86710 0.72480 0.17650 0.14900
H 	H 	0.94000 0.71650 0.17440 0.14200
N 	N 	0.69940 0.33840 0.02235 -0.30000
N 	N 	0.64830 0.30300 0.93714 -0.25500
N 	N 	0.81390 0.31850 0.02331 -0.29300
N 	N 	0.82190 0.27150 0.94020 -0.15300
N 	N 	0.73710 0.25640 0.86610 -0.31100
H 	H 	0.76540 0.24290 0.84910 0.17600
H 	H 	0.69530 0.25770 0.84940 0.15700
N 	N 	0.52030 0.17180 0.82739 -0.25300
N 	N 	0.48180 0.11640 0.74353 -0.30300
N 	N 	0.51610 0.01430 0.75061 -0.29400
N 	N 	0.57780 0.01730 0.83620 -0.15200
N 	N 	0.59140 0.10330 0.90550 -0.29900
H 	H 	0.61270 0.08160 0.92530 0.15100
H 	H 	0.58560 0.14240 0.91900 0.14300
N 	N 	0.11770 0.91530 0.60220 -0.29800
H 	H 	0.08580 0.93610 0.59720 0.14500
H 	H 	0.10100 0.86770 0.59980 0.13500
N 	N 	0.21800 0.02900 0.61720 -0.15100
N 	N 	0.34470 0.04500 0.64352 -0.30700
N 	N 	0.36140 0.93290 0.65136 -0.30200
C 	C 	0.59940 0.34280 0.81250 0.31900
C 	C 	0.60900 0.39560 0.77680 -0.07900
C 	C 	0.57790 0.44620 0.77850 0.01300
H 	H 	0.54510 0.44550 0.80010 0.04300
C 	C 	0.59400 0.49780 0.74920 -0.07100
H 	H 	0.57210 0.53250 0.75050 0.06600
C 	C 	0.64260 0.49970 0.71750 0.02000
C 	C 	0.67130 0.44650 0.71390 -0.07000
H 	H 	0.70270 0.44570 0.69150 0.06700
C 	C 	0.65360 0.39480 0.74340 0.01300
H 	H 	0.67250 0.35780 0.74060 0.04600
C 	C 	0.66760 0.56030 0.69140 0.12200
C 	C 	0.66090 0.66160 0.66960 0.11500
C 	C 	0.75160 0.62720 0.65280 0.11100
C 	C 	0.62290 0.71280 0.66770 0.03600
C 	C 	0.56390 0.70250 0.69020 -0.09000
H 	H 	0.54700 0.66220 0.70600 0.07300
C 	C 	0.55210 0.80900 0.66760 -0.10400
C 	C 	0.61020 0.81800 0.64490 0.02800
H 	H 	0.62670 0.85840 0.62910 0.04000
C 	C 	0.64570 0.77000 0.64430 -0.08800
H 	H 	0.68530 0.77700 0.62770 0.07100
C 	C 	0.51660 0.86250 0.66880 0.33300
C 	C 	0.82030 0.64190 0.63520 0.03200
C 	C 	0.86020 0.71060 0.62670 -0.09400
H 	H 	0.84180 0.74780 0.63060 0.07100
C 	C 	0.92770 0.72440 0.61240 0.04000
H 	H 	0.95520 0.77180 0.60750 0.02500
C 	C 	0.95510 0.67210 0.60540 -0.11200
C 	C 	0.91430 0.60380 0.61360 0.03700
H 	H 	0.93230 0.56630 0.60910 0.03600
C 	C 	0.84840 0.58960 0.62810 -0.09500
H 	H 	0.82150 0.54230 0.63330 0.07300
C 	C 	0.02710 0.68800 0.58880 0.37400
C 	C 	0.11370 0.98450 0.30090 0.33500
C 	C 	0.14050 0.05110 0.27880 -0.10000
C 	C 	0.10560 0.09940 0.27860 0.02700
H 	H 	0.06280 0.09050 0.29200 0.03500
C 	C 	0.13360 0.16030 0.25880 -0.09200
H 	H 	0.11050 0.19400 0.25930 0.07100
C 	C 	0.19410 0.17330 0.23840 0.03600
C 	C 	0.22890 0.12570 0.23960 -0.08700
H 	H 	0.27230 0.13520 0.22680 0.07300
C 	C 	0.20160 0.06460 0.25900 0.02800
H 	H 	0.22530 0.03140 0.25870 0.04100
C 	C 	0.22390 0.23810 0.21570 0.11100
C 	C 	0.22000 0.34230 0.19580 0.11900
C 	C 	0.30590 0.30060 0.17450 0.11300
C 	C 	0.19060 0.39790 0.19630 0.01200
C 	C 	0.14380 0.40270 0.22760 -0.06000
H 	H 	0.12680 0.36550 0.24610 0.06400
C 	C 	0.12150 0.45950 0.23270 -0.00300
H 	H 	0.09170 0.46280 0.25580 0.04400
C 	C 	0.14230 0.51150 0.20440 -0.06200
C 	C 	0.18570 0.50620 0.17080 0.00200
H 	H 	0.19810 0.54110 0.15010 0.05300
C 	C 	0.21160 0.45030 0.16700 -0.06000
H 	H 	0.24280 0.44800 0.14470 0.06100
C 	C 	0.11800 0.57640 0.21220 0.30600
C 	C 	0.37150 0.31160 0.15290 0.02400
C 	C 	0.39670 0.36730 0.12720 -0.07900
H 	H 	0.37030 0.39780 0.12210 0.06500
C 	C 	0.45870 0.37860 0.10940 0.01400
H 	H 	0.47450 0.41580 0.09080 0.04300
C 	C 	0.49920 0.33600 0.11820 -0.08000
C 	C 	0.47430 0.28100 0.14280 0.01700
H 	H 	0.50120 0.25110 0.14820 0.04400
C 	C 	0.41060 0.26800 0.16010 -0.07900
H 	H 	0.39360 0.22890 0.17700 0.06800
C 	C 	0.57180 0.35260 0.10190 0.31300
C 	C 	0.46930 0.21060 0.94270 0.32800
C 	C 	0.41270 0.19580 0.97350 -0.09800
C 	C 	0.37130 0.23630 0.97830 0.03000
H 	H 	0.37850 0.27600 0.96160 0.04000
C 	C 	0.31870 0.22000 0.00720 -0.08800
H 	H 	0.29050 0.24890 0.01010 0.07000
C 	C 	0.30690 0.16310 0.03170 0.03500
C 	C 	0.34840 0.12330 0.02730 -0.09100
H 	H 	0.34140 0.08390 0.04420 0.07000
C 	C 	0.40070 0.13920 0.99880 0.02800
H 	H 	0.42910 0.11040 0.99650 0.03700
C 	C 	0.24690 0.14100 0.05940 0.10900
C 	C 	0.15180 0.15760 0.08580 0.11800
C 	C 	0.18090 0.06500 0.10240 0.11100
C 	C 	0.10700 0.20100 0.09040 0.02000
C 	C 	0.12030 0.26320 0.06920 -0.07200
H 	H 	0.15870 0.27760 0.05160 0.06500
C 	C 	0.07830 0.30280 0.07380 0.01300
H 	H 	0.08660 0.34360 0.05820 0.04200
C 	C 	0.02400 0.28510 0.10080 -0.07900
C 	C 	0.01040 0.22360 0.12290 0.01100
H 	H 	0.97280 0.21020 0.14120 0.04300
C 	C 	0.05220 0.18360 0.11740 -0.07000
H 	H 	0.04350 0.14240 0.13270 0.06500
C 	C 	0.97650 0.32800 0.10380 0.30700
C 	C 	0.16600 0.99760 0.12240 0.03400
C 	C 	0.09610 0.96080 0.12900 -0.09000
H 	H 	0.05910 0.98030 0.12320 0.07100
C 	C 	0.07960 0.89480 0.14430 0.03200
H 	H 	0.03070 0.86920 0.14840 0.03200
C 	C 	0.13120 0.86610 0.15360 -0.09400
C 	C 	0.20280 0.90520 0.14930 0.03100
H 	H 	0.24110 0.88800 0.15800 0.03300
C 	C 	0.21820 0.96920 0.13260 -0.09100
H 	H 	0.26690 0.99440 0.12800 0.07100
C 	C 	0.11040 0.79350 0.16850 0.31700
C 	C 	0.83860 0.70670 0.45290 0.30700
C 	C 	0.77110 0.67440 0.47490 -0.08100
C 	C 	0.72090 0.70520 0.47430 0.01200
H 	H 	0.72760 0.74610 0.45900 0.04300
C 	C 	0.65980 0.67880 0.49530 -0.07700
H 	H 	0.62550 0.70170 0.49510 0.06700
C 	C 	0.65060 0.61820 0.51650 0.02600
C 	C 	0.70150 0.58650 0.51600 -0.07400
H 	H 	0.69570 0.54510 0.53060 0.07000
C 	C 	0.76130 0.61490 0.49420 0.01300
H 	H 	0.79530 0.59200 0.49300 0.04800
C 	C 	0.58620 0.58760 0.53940 0.11700
C 	C 	0.48200 0.58910 0.56030 0.10600
C 	C 	0.52040 0.50170 0.57780 0.11400
C 	C 	0.50890 0.43450 0.59880 0.03700
C 	C 	0.45690 0.41310 0.62690 -0.09500
H 	H 	0.42930 0.44160 0.63340 0.07300
C 	C 	0.44460 0.35170 0.64530 0.03700
H 	H 	0.40900 0.33790 0.66520 0.03500
C 	C 	0.48280 0.30940 0.63570 -0.10300
C 	C 	0.53530 0.32880 0.60850 0.02400
H 	H 	0.56220 0.29940 0.60210 0.04100
C 	C 	0.54920 0.39370 0.58980 -0.08700
H 	H 	0.58620 0.40880 0.57110 0.07200
C 	C 	0.42520 0.62170 0.56020 0.04600
C 	C 	0.43380 0.68400 0.54190 -0.11100
H 	H 	0.47680 0.70750 0.52980 0.07700
C 	C 	0.38130 0.71150 0.54110 0.05800
H 	H 	0.38810 0.75440 0.52810 0.02600
C 	C 	0.31980 0.68080 0.55780 -0.12300
C 	C 	0.31300 0.62220 0.57870 0.04500
H 	H 	0.27150 0.60210 0.59290 0.03600
C 	C 	0.36490 0.59000 0.58020 -0.10200
H 	H 	0.35880 0.54810 0.59440 0.07600
C 	C 	0.25820 0.71110 0.55750 0.39800
C 	C 	0.05680 0.77610 0.48650 0.09100
H 	H 	0.01960 0.73940 0.49690 -0.01400
C 	C 	0.16200 0.85070 0.48260 -0.03400
C 	C 	0.10670 0.85680 0.44690 0.09400
C 	C 	0.19390 0.94320 0.42070 0.10800
H 	H 	0.20600 0.97660 0.39890 -0.00600
C 	C 	0.23660 0.89720 0.48500 0.15200
C 	C 	0.05260 0.77320 0.27640 0.10200
H 	H 	0.08980 0.81050 0.26630 -0.01700
C 	C 	0.97020 0.72260 0.31300 0.10200
C 	C 	0.97960 0.66990 0.28220 -0.04000
C 	C 	0.93660 0.59560 0.28120 0.15300
C 	C 	0.87990 0.63690 0.33720 0.11000
H 	H 	0.84200 0.62400 0.35540 -0.00700
C 	C 	0.95720 0.51910 0.13540 0.09300
H 	H 	0.00010 0.50880 0.13420 -0.01500
C 	C 	0.84380 0.50310 0.13090 0.09900
C 	C 	0.88910 0.57640 0.14740 -0.04200
C 	C 	0.85400 0.62500 0.15670 0.15100
C 	C 	0.74190 0.52660 0.13590 0.10200
H 	H 	0.68940 0.50900 0.13280 -0.00400
C 	C 	0.64200 0.32820 0.98300 0.08500
H 	H 	0.60000 0.33830 0.98750 -0.01600
C 	C 	0.71590 0.29580 0.94750 -0.04300
C 	C 	0.74670 0.31760 0.99950 0.10100
C 	C 	0.84560 0.29250 0.98990 0.10600
H 	H 	0.89120 0.28890 0.00460 -0.00500
C 	C 	0.75760 0.27460 0.91680 0.15500
C 	C 	0.48890 0.17090 0.77990 0.09800
H 	H 	0.47200 0.20770 0.77220 -0.02100
C 	C 	0.51130 0.07750 0.77100 0.10900
C 	C 	0.53440 0.10980 0.82140 -0.04200
C 	C 	0.56780 0.07710 0.85510 0.14900
C 	C 	0.55060 0.98990 0.78600 0.10700
H 	H 	0.55670 0.94660 0.77370 -0.00900
C 	C 	0.31070 0.86350 0.63980 0.08500
H 	H 	0.32470 0.82380 0.64350 -0.01300
C 	C 	0.32000 0.97280 0.64000 0.10300
C 	C 	0.29050 0.06710 0.63030 0.11400
H 	H 	0.30630 0.11770 0.63030 -0.01100
C 	C 	0.19160 0.95580 0.61340 0.14100
C 	C 	0.24550 0.92430 0.62390 -0.04600
C 	C 	0.52960 0.75100 0.68960 0.03200
H 	H 	0.48890 0.74330 0.70510 0.03700
O 	O 	0.49950 0.19990 0.64150 -0.46500
O 	O 	0.42420 0.22440 0.68220 -0.34400
C 	C 	0.46960 0.23900 0.65360 0.34800
Zn	Zn	0.44511 0.73512 0.11963 1.20700
Zn	Zn	0.93735 0.33118 0.80636 1.20400
Zn	Zn	0.52669 0.03612 0.32470 1.19500
Zn	Zn	0.83834 0.23757 0.42875 1.21100
Zn	Zn	0.95968 0.10982 0.65014 1.19400
Zn	Zn	0.29646 0.63209 0.90369 1.19600
Zn	Zn	0.54641 0.88872 0.33172 1.19700
Zn	Zn	0.13860 0.64117 0.89989 1.19400
Zn	Zn	0.06715 0.21778 0.59333 1.19500
O 	O 	0.44870 0.66180 0.16138 -0.43400
O 	O 	0.36120 0.69210 0.18534 -0.34200
O 	O 	0.53900 0.15010 0.31350 -0.38800
O 	O 	0.45640 0.08080 0.34680 -0.42800
O 	O 	0.92730 0.24980 0.40240 -0.48500
O 	O 	0.96480 0.36410 0.43650 -0.30600
O 	O 	0.85450 0.05710 0.69826 -0.34000
O 	O 	0.94220 0.02500 0.67986 -0.46800
O 	O 	0.91170 0.41770 0.75320 -0.35500
O 	O 	0.87320 0.38520 0.82120 -0.42400
O 	O 	0.41280 0.60390 0.92770 -0.33600
O 	O 	0.38620 0.67600 0.87987 -0.45400
O 	O 	0.52410 0.73950 0.08255 -0.43500
O 	O 	0.49240 0.82590 0.05711 -0.33800
O 	O 	0.00980 0.61600 0.91481 -0.33900
O 	O 	0.07910 0.69540 0.87708 -0.44700
O 	O 	0.15610 0.23860 0.56730 -0.45400
O 	O 	0.11510 0.32130 0.54550 -0.33400
O 	O 	0.73360 0.24140 0.47140 -0.35300
O 	O 	0.78790 0.30620 0.42240 -0.49500
O 	O 	0.05110 0.12850 0.62254 -0.53900
O 	O 	0.84060 0.22350 0.80712 -0.37500
O 	O 	0.95760 0.25000 0.84420 -0.41000
O 	O 	0.22890 0.67660 0.87179 -0.53300
O 	O 	0.49380 0.94795 0.35524 -0.53300
N 	N 	0.76080 0.14630 0.37710 -0.24500
N 	N 	0.27510 0.43320 0.32927 -0.14400
N 	N 	0.36770 0.39560 0.30938 -0.14300
N 	N 	0.27960 0.32450 0.34992 -0.14100
N 	N 	0.80720 0.71270 0.78137 -0.14100
N 	N 	0.71950 0.75770 0.80534 -0.14100
N 	N 	0.72490 0.65010 0.82836 -0.14200
N 	N 	0.79410 0.81850 0.93904 -0.14100
N 	N 	0.86450 0.90110 0.89474 -0.14400
N 	N 	0.76120 0.91570 0.91926 -0.14400
N 	N 	0.46030 0.37930 0.46039 -0.14200
N 	N 	0.52840 0.46940 0.41894 -0.14200
N 	N 	0.41980 0.47280 0.44272 -0.13900
N 	N 	0.87120 0.20180 0.49120 -0.25000
N 	N 	0.96220 0.19270 0.55145 -0.29800
N 	N 	0.87960 0.09810 0.58730 -0.29400
N 	N 	0.74910 0.05560 0.54630 -0.15200
N 	N 	0.70490 0.10140 0.48180 -0.29500
H 	H 	0.65930 0.07060 0.48090 0.14400
H 	H 	0.71140 0.13130 0.46050 0.13700
N 	N 	0.98210 0.21040 0.69002 -0.30200
N 	N 	0.96600 0.29650 0.74264 -0.24900
N 	N 	0.07920 0.29140 0.65599 -0.29500
N 	N 	0.11500 0.41760 0.69100 -0.15100
N 	N 	0.05280 0.46030 0.74190 -0.30000
H 	H 	0.07910 0.50490 0.73910 0.14800
H 	H 	0.01940 0.45290 0.76020 0.14400
N 	N 	0.03680 0.41380 0.84948 -0.24300
N 	N 	0.11210 0.53410 0.87822 -0.30400
N 	N 	0.23200 0.52500 0.87650 -0.29800
N 	N 	0.22080 0.40260 0.84830 -0.15000
N 	N 	0.10880 0.30320 0.82920 -0.30200
H 	H 	0.13290 0.27520 0.82350 0.14900
H 	H 	0.06000 0.28350 0.82560 0.14200
N 	N 	0.30060 0.66160 0.97765 -0.30000
N 	N 	0.35170 0.69700 0.06286 -0.25500
N 	N 	0.18610 0.68150 0.97669 -0.29300
N 	N 	0.17810 0.72850 0.05980 -0.15300
N 	N 	0.26290 0.74360 0.13390 -0.31100
H 	H 	0.23460 0.75710 0.15090 0.17600
H 	H 	0.30470 0.74230 0.15060 0.15700
N 	N 	0.47970 0.82820 0.17261 -0.25300
N 	N 	0.51820 0.88360 0.25647 -0.30300
N 	N 	0.48390 0.98570 0.24939 -0.29400
N 	N 	0.42220 0.98270 0.16380 -0.15200
N 	N 	0.40860 0.89670 0.09450 -0.29900
H 	H 	0.38730 0.91840 0.07470 0.15100
H 	H 	0.41440 0.85760 0.08100 0.14300
N 	N 	0.88230 0.08470 0.39780 -0.29800
H 	H 	0.91420 0.06390 0.40280 0.14500
H 	H 	0.89900 0.13230 0.40020 0.13500
N 	N 	0.78200 0.97100 0.38280 -0.15100
N 	N 	0.65530 0.95500 0.35648 -0.30700
N 	N 	0.63860 0.06710 0.34864 -0.30200
C 	C 	0.40060 0.65720 0.18750 0.31900
C 	C 	0.39100 0.60440 0.22320 -0.07900
C 	C 	0.42210 0.55380 0.22150 0.01300
H 	H 	0.45490 0.55450 0.19990 0.04300
C 	C 	0.40600 0.50220 0.25080 -0.07100
H 	H 	0.42790 0.46750 0.24950 0.06600
C 	C 	0.35740 0.50030 0.28250 0.02000
C 	C 	0.32870 0.55350 0.28610 -0.07000
H 	H 	0.29730 0.55430 0.30850 0.06700
C 	C 	0.34640 0.60520 0.25660 0.01300
H 	H 	0.32750 0.64220 0.25940 0.04600
C 	C 	0.33240 0.43970 0.30860 0.12200
C 	C 	0.33910 0.33840 0.33040 0.11500
C 	C 	0.24840 0.37280 0.34720 0.11100
C 	C 	0.37710 0.28720 0.33230 0.03600
C 	C 	0.43610 0.29750 0.30980 -0.09000
H 	H 	0.45300 0.33780 0.29400 0.07300
C 	C 	0.44790 0.19100 0.33240 -0.10400
C 	C 	0.38980 0.18200 0.35510 0.02800
H 	H 	0.37330 0.14160 0.37090 0.04000
C 	C 	0.35430 0.23000 0.35570 -0.08800
H 	H 	0.31470 0.22300 0.37230 0.07100
C 	C 	0.48340 0.13750 0.33120 0.33300
C 	C 	0.17970 0.35810 0.36480 0.03200
C 	C 	0.13980 0.28940 0.37330 -0.09400
H 	H 	0.15820 0.25220 0.36940 0.07100
C 	C 	0.07230 0.27560 0.38760 0.04000
H 	H 	0.04480 0.22820 0.39250 0.02500
C 	C 	0.04490 0.32790 0.39460 -0.11200
C 	C 	0.08570 0.39620 0.38640 0.03700
H 	H 	0.06770 0.43370 0.39090 0.03600
C 	C 	0.15160 0.41040 0.37190 -0.09500
H 	H 	0.17850 0.45770 0.36670 0.07300
C 	C 	0.97290 0.31200 0.41120 0.37400
C 	C 	0.88630 0.01550 0.69910 0.33500
C 	C 	0.85950 0.94890 0.72120 -0.10000
C 	C 	0.89440 0.90060 0.72140 0.02700
H 	H 	0.93720 0.90950 0.70800 0.03500
C 	C 	0.86640 0.83970 0.74120 -0.09200
H 	H 	0.88950 0.80600 0.74070 0.07100
C 	C 	0.80590 0.82670 0.76160 0.03600
C 	C 	0.77110 0.87430 0.76040 -0.08700
H 	H 	0.72770 0.86480 0.77320 0.07300
C 	C 	0.79840 0.93540 0.74100 0.02800
H 	H 	0.77470 0.96860 0.74130 0.04100
C 	C 	0.77610 0.76190 0.78430 0.11100
C 	C 	0.78000 0.65770 0.80420 0.11900
C 	C 	0.69410 0.69940 0.82550 0.11300
C 	C 	0.80940 0.60210 0.80370 0.01200
C 	C 	0.85620 0.59730 0.77240 -0.06000
H 	H 	0.87320 0.63450 0.75390 0.06400
C 	C 	0.87850 0.54050 0.76730 -0.00300
H 	H 	0.90830 0.53720 0.74420 0.04400
C 	C 	0.85770 0.48850 0.79560 -0.06200
C 	C 	0.81430 0.49380 0.82920 0.00200
H 	H 	0.80190 0.45890 0.84990 0.05300
C 	C 	0.78840 0.54970 0.83300 -0.06000
H 	H 	0.75720 0.55200 0.85530 0.06100
C 	C 	0.88200 0.42360 0.78780 0.30600
C 	C 	0.62850 0.68840 0.84710 0.02400
C 	C 	0.60330 0.63270 0.87280 -0.07900
H 	H 	0.62970 0.60220 0.87790 0.06500
C 	C 	0.54130 0.62140 0.89060 0.01400
H 	H 	0.52550 0.58420 0.90920 0.04300
C 	C 	0.50080 0.66400 0.88180 -0.08000
C 	C 	0.52570 0.71900 0.85720 0.01700
H 	H 	0.49880 0.74890 0.85180 0.04400
C 	C 	0.58940 0.73200 0.83990 -0.07900
H 	H 	0.60640 0.77110 0.82300 0.06800
C 	C 	0.42820 0.64740 0.89810 0.31300
C 	C 	0.53070 0.78940 0.05730 0.32800
C 	C 	0.58730 0.80420 0.02650 -0.09800
C 	C 	0.62870 0.76370 0.02170 0.03000
H 	H 	0.62150 0.72400 0.03840 0.04000
C 	C 	0.68130 0.78000 0.99280 -0.08800
H 	H 	0.70950 0.75110 0.98990 0.07000
C 	C 	0.69310 0.83690 0.96830 0.03500
C 	C 	0.65160 0.87670 0.97270 -0.09100
H 	H 	0.65860 0.91610 0.95580 0.07000
C 	C 	0.59930 0.86080 0.00120 0.02800
H 	H 	0.57090 0.88960 0.00350 0.03700
C 	C 	0.75310 0.85900 0.94060 0.10900
C 	C 	0.84820 0.84240 0.91420 0.11800
C 	C 	0.81910 0.93500 0.89760 0.11100
C 	C 	0.89300 0.79900 0.90960 0.02000
C 	C 	0.87970 0.73680 0.93080 -0.07200
H 	H 	0.84130 0.72240 0.94840 0.06500
C 	C 	0.92170 0.69720 0.92620 0.01300
H 	H 	0.91340 0.65640 0.94180 0.04200
C 	C 	0.97600 0.71490 0.89920 -0.07900
C 	C 	0.98960 0.77640 0.87710 0.01100
H 	H 	0.02720 0.78980 0.85880 0.04300
C 	C 	0.94780 0.81640 0.88260 -0.07000
H 	H 	0.95650 0.85760 0.86730 0.06500
C 	C 	0.02350 0.67200 0.89620 0.30700
C 	C 	0.83400 0.00240 0.87760 0.03400
C 	C 	0.90390 0.03920 0.87100 -0.09000
H 	H 	0.94090 0.01970 0.87680 0.07100
C 	C 	0.92040 0.10520 0.85570 0.03200
H 	H 	0.96930 0.13080 0.85160 0.03200
C 	C 	0.86880 0.13390 0.84640 -0.09400
C 	C 	0.79720 0.09480 0.85070 0.03100
H 	H 	0.75890 0.11200 0.84200 0.03300
C 	C 	0.78180 0.03080 0.86740 -0.09100
H 	H 	0.73310 0.00560 0.87200 0.07100
C 	C 	0.88960 0.20650 0.83150 0.31700
C 	C 	0.16140 0.29330 0.54710 0.30700
C 	C 	0.22890 0.32560 0.52510 -0.08100
C 	C 	0.27910 0.29480 0.52570 0.01200
H 	H 	0.27240 0.25390 0.54100 0.04300
C 	C 	0.34020 0.32120 0.50470 -0.07700
H 	H 	0.37450 0.29830 0.50490 0.06700
C 	C 	0.34940 0.38180 0.48350 0.02600
C 	C 	0.29850 0.41350 0.48400 -0.07400
H 	H 	0.30430 0.45490 0.46940 0.07000
C 	C 	0.23870 0.38510 0.50580 0.01300
H 	H 	0.20470 0.40800 0.50700 0.04800
C 	C 	0.41380 0.41240 0.46060 0.11700
C 	C 	0.51800 0.41090 0.43970 0.10600
C 	C 	0.47960 0.49830 0.42220 0.11400
C 	C 	0.49110 0.56550 0.40120 0.03700
C 	C 	0.54310 0.58690 0.37310 -0.09500
H 	H 	0.57070 0.55840 0.36660 0.07300
C 	C 	0.55540 0.64830 0.35470 0.03700
H 	H 	0.59100 0.66210 0.33480 0.03500
C 	C 	0.51720 0.69060 0.36430 -0.10300
C 	C 	0.46470 0.67120 0.39150 0.02400
H 	H 	0.43780 0.70060 0.39790 0.04100
C 	C 	0.45080 0.60630 0.41020 -0.08700
H 	H 	0.41380 0.59120 0.42890 0.07200
C 	C 	0.57480 0.37830 0.43980 0.04600
C 	C 	0.56620 0.31600 0.45810 -0.11100
H 	H 	0.52320 0.29250 0.47020 0.07700
C 	C 	0.61870 0.28850 0.45890 0.05800
H 	H 	0.61190 0.24560 0.47190 0.02600
C 	C 	0.68020 0.31920 0.44220 -0.12300
C 	C 	0.68700 0.37780 0.42130 0.04500
H 	H 	0.72850 0.39790 0.40710 0.03600
C 	C 	0.63510 0.41000 0.41980 -0.10200
H 	H 	0.64120 0.45190 0.40560 0.07600
C 	C 	0.74180 0.28890 0.44250 0.39800
C 	C 	0.94320 0.22390 0.51350 0.09100
H 	H 	0.98040 0.26060 0.50310 -0.01400
C 	C 	0.83800 0.14930 0.51740 -0.03400
C 	C 	0.89330 0.14320 0.55310 0.09400
C 	C 	0.80610 0.05680 0.57930 0.10800
H 	H 	0.79400 0.02340 0.60110 -0.00600
C 	C 	0.76340 0.10280 0.51500 0.15200
C 	C 	0.94740 0.22680 0.72360 0.10200
H 	H 	0.91020 0.18950 0.73370 -0.01700
C 	C 	0.02980 0.27740 0.68700 0.10200
C 	C 	0.02040 0.33010 0.71780 -0.04000
C 	C 	0.06340 0.40440 0.71880 0.15300
C 	C 	0.12010 0.36310 0.66280 0.11000
H 	H 	0.15800 0.37600 0.64460 -0.00700
C 	C 	0.04280 0.48090 0.86460 0.09300
H 	H 	0.99990 0.49120 0.86580 -0.01500
C 	C 	0.15620 0.49690 0.86910 0.09900
C 	C 	0.11090 0.42360 0.85260 -0.04200
C 	C 	0.14600 0.37500 0.84330 0.15100
C 	C 	0.25810 0.47340 0.86410 0.10200
H 	H 	0.31060 0.49100 0.86720 -0.00400
C 	C 	0.35800 0.67180 0.01700 0.08500
H 	H 	0.40000 0.66170 0.01250 -0.01600
C 	C 	0.28410 0.70420 0.05250 -0.04300
C 	C 	0.25330 0.68240 0.00050 0.10100
C 	C 	0.15440 0.70750 0.01010 0.10600
H 	H 	0.10880 0.71110 0.99540 -0.00500
C 	C 	0.24240 0.72540 0.08320 0.15500
C 	C 	0.51110 0.82910 0.22010 0.09800
H 	H 	0.52800 0.79230 0.22780 -0.02100
C 	C 	0.48870 0.92250 0.22900 0.10900
C 	C 	0.46560 0.89020 0.17860 -0.04200
C 	C 	0.43220 0.92290 0.14490 0.14900
C 	C 	0.44940 0.01010 0.21400 0.10700
H 	H 	0.44330 0.05340 0.22630 -0.00900
C 	C 	0.68930 0.13650 0.36020 0.08500
H 	H 	0.67530 0.17620 0.35650 -0.01300
C 	C 	0.68000 0.02720 0.36000 0.10300
C 	C 	0.70950 0.93290 0.36970 0.11400
H 	H 	0.69370 0.88230 0.36970 -0.01100
C 	C 	0.80840 0.04420 0.38660 0.14100
C 	C 	0.75450 0.07570 0.37610 -0.04600
C 	C 	0.47040 0.24900 0.31040 0.03200
H 	H 	0.51110 0.25670 0.29490 0.03700
O 	O 	0.50050 0.80010 0.35850 -0.46500
O 	O 	0.57580 0.77560 0.31780 -0.34400
C 	C 	0.53040 0.76100 0.34640 0.34800
