data_crystal

_cell_length_a 10.57800
_cell_length_b 10.57800
_cell_length_c 10.57800
_cell_angle_alpha 90.00000
_cell_angle_beta  90.00000
_cell_angle_gamma 90.00000

_symmetry_space_group_name_	'P 1'
_symmetry_space_group_name_H-M	'P 1'

loop_
_symmetry_equiv_pos_as_xyz
  x,y,z

loop_
_atom_site_label
_atom_site_type_symbol
_atom_site_fract_x
_atom_site_fract_y
_atom_site_fract_z
_atom_site_charge
N 	N 	0.84990 0.95090 0.76180 -0.16000
C 	C 	0.76860 0.86630 0.68350 -0.00700
C 	C 	0.97140 0.88480 0.78590 0.01600
H 	H 	0.81100 0.84600 0.60500 0.01200
H 	H 	0.69000 0.90900 0.67500 0.01400
H 	H 	0.01600 0.87700 0.70000 -0.00900
H 	H 	0.02800 0.94000 0.84200 0.00100
N 	N 	0.65010 0.04910 0.26180 -0.15800
C 	C 	0.73140 0.13370 0.18350 -0.00700
C 	C 	0.52860 0.11520 0.28590 0.01000
H 	H 	0.68900 0.15400 0.10500 0.01200
H 	H 	0.81000 0.09100 0.17500 0.01400
H 	H 	0.48400 0.12300 0.20000 -0.00600
H 	H 	0.47200 0.06000 0.34200 0.00400
N 	N 	0.15010 0.45090 0.73820 -0.15800
C 	C 	0.23140 0.36630 0.81650 -0.00600
C 	C 	0.02860 0.38480 0.71410 0.01100
H 	H 	0.18900 0.34600 0.89500 0.01100
H 	H 	0.31000 0.40900 0.82500 0.01300
H 	H 	0.98400 0.37700 0.80000 -0.00700
H 	H 	0.97200 0.44000 0.65800 0.00300
N 	N 	0.34990 0.54910 0.23820 -0.15800
C 	C 	0.26860 0.63370 0.31650 -0.00600
C 	C 	0.47140 0.61520 0.21410 0.01100
H 	H 	0.31100 0.65400 0.39500 0.01200
H 	H 	0.19000 0.59100 0.32500 0.01400
H 	H 	0.51600 0.62300 0.30000 -0.00700
H 	H 	0.52800 0.56000 0.15800 0.00300
N 	N 	0.76180 0.84990 0.95090 -0.15900
C 	C 	0.68350 0.76860 0.86630 -0.00600
C 	C 	0.78590 0.97140 0.88480 0.01600
H 	H 	0.60500 0.81100 0.84600 0.01200
H 	H 	0.67500 0.69000 0.90900 0.01400
H 	H 	0.70000 0.01600 0.87700 -0.00900
H 	H 	0.84200 0.02800 0.94000 0.00100
N 	N 	0.26180 0.65010 0.04910 -0.15800
C 	C 	0.18350 0.73140 0.13370 -0.00700
C 	C 	0.28590 0.52860 0.11520 0.01000
H 	H 	0.10500 0.68900 0.15400 0.01200
H 	H 	0.17500 0.81000 0.09100 0.01400
H 	H 	0.20000 0.48400 0.12300 -0.00600
H 	H 	0.34200 0.47200 0.06000 0.00400
N 	N 	0.73820 0.15010 0.45090 -0.15800
C 	C 	0.81650 0.23140 0.36630 -0.00600
C 	C 	0.71410 0.02860 0.38480 0.01100
H 	H 	0.89500 0.18900 0.34600 0.01100
H 	H 	0.82500 0.31000 0.40900 0.01300
H 	H 	0.80000 0.98400 0.37700 -0.00700
H 	H 	0.65800 0.97200 0.44000 0.00300
N 	N 	0.23820 0.34990 0.54910 -0.15800
C 	C 	0.31650 0.26860 0.63370 -0.00600
C 	C 	0.21410 0.47140 0.61520 0.01100
H 	H 	0.39500 0.31100 0.65400 0.01200
H 	H 	0.32500 0.19000 0.59100 0.01400
H 	H 	0.30000 0.51600 0.62300 -0.00700
H 	H 	0.15800 0.52800 0.56000 0.00300
N 	N 	0.95090 0.76180 0.84990 -0.15900
C 	C 	0.86630 0.68350 0.76860 -0.00600
C 	C 	0.88480 0.78590 0.97140 0.01600
H 	H 	0.84600 0.60500 0.81100 0.01200
H 	H 	0.90900 0.67500 0.69000 0.01400
H 	H 	0.87700 0.70000 0.01600 -0.00900
H 	H 	0.94000 0.84200 0.02800 0.00100
N 	N 	0.04910 0.26180 0.65010 -0.15800
C 	C 	0.13370 0.18350 0.73140 -0.00700
C 	C 	0.11520 0.28590 0.52860 0.01000
H 	H 	0.15400 0.10500 0.68900 0.01200
H 	H 	0.09100 0.17500 0.81000 0.01400
H 	H 	0.12300 0.20000 0.48400 -0.00600
H 	H 	0.06000 0.34200 0.47200 0.00400
N 	N 	0.45090 0.73820 0.15010 -0.15800
C 	C 	0.36630 0.81650 0.23140 -0.00600
C 	C 	0.38480 0.71410 0.02860 0.01100
H 	H 	0.34600 0.89500 0.18900 0.01100
H 	H 	0.40900 0.82500 0.31000 0.01300
H 	H 	0.37700 0.80000 0.98400 -0.00700
H 	H 	0.44000 0.65800 0.97200 0.00300
N 	N 	0.54910 0.23820 0.34990 -0.15800
C 	C 	0.63370 0.31650 0.26860 -0.00600
C 	C 	0.61520 0.21410 0.47140 0.01100
H 	H 	0.65400 0.39500 0.31100 0.01200
H 	H 	0.59100 0.32500 0.19000 0.01400
H 	H 	0.62300 0.30000 0.51600 -0.00700
H 	H 	0.56000 0.15800 0.52800 0.00300
Ag	Ag	0.87008 0.12992 0.62992 0.50400
Ag	Ag	0.62992 0.87008 0.12992 0.50400
Ag	Ag	0.12992 0.62992 0.87008 0.50400
Ag	Ag	0.37008 0.37008 0.37008 0.50400
N 	N 	0.74530 0.74530 0.74530 -0.10900
N 	N 	0.75470 0.25470 0.24530 -0.10900
N 	N 	0.25470 0.24530 0.75470 -0.10900
N 	N 	0.24530 0.75470 0.25470 -0.10900
