data_crystal

_cell_length_a 10.85120
_cell_length_b 11.01400
_cell_length_c 17.23700
_cell_angle_alpha 106.17100
_cell_angle_beta  90.00000
_cell_angle_gamma 90.00000

_symmetry_space_group_name_	'P 1'
_symmetry_space_group_name_H-M	'P 1'

loop_
_symmetry_equiv_pos_as_xyz
  x,y,z

loop_
_atom_site_label
_atom_site_type_symbol
_atom_site_fract_x
_atom_site_fract_y
_atom_site_fract_z
_atom_site_charge
Cd	Cd	0.31450 0.87870 0.68443 1.20600
Cd	Cd	0.68550 0.12130 0.31557 1.20600
Cd	Cd	0.81450 0.62130 0.81557 1.20600
Cd	Cd	0.18550 0.37870 0.18443 1.20600
H 	H 	0.80370 0.29240 0.79440 -0.00500
H 	H 	0.24110 0.39610 0.64950 0.06700
H 	H 	0.16620 0.44800 0.00180 0.00000
H 	H 	0.33380 0.94800 0.50180 0.00000
H 	H 	0.84720 0.39520 0.55100 0.05000
H 	H 	0.70890 0.14310 0.94390 0.08400
H 	H 	0.59010 0.71530 0.68310 0.00100
H 	H 	0.75890 0.60390 0.35050 0.06800
H 	H 	0.59100 0.26840 0.50900 -0.00200
H 	H 	0.12930 0.00710 0.08670 0.05000
H 	H 	0.20890 0.35690 0.55610 0.08300
H 	H 	0.69630 0.79240 0.29440 -0.00400
H 	H 	0.90900 0.76840 0.00900 -0.00000
H 	H 	0.15280 0.60480 0.44900 0.05000
H 	H 	0.25890 0.89610 0.14950 0.06800
H 	H 	0.04820 0.91090 0.11810 0.04400
H 	H 	0.62930 0.49290 0.41330 0.05100
H 	H 	0.54820 0.58910 0.38190 0.04400
H 	H 	0.87070 0.99290 0.91330 0.05000
H 	H 	0.30370 0.20760 0.70560 -0.00400
H 	H 	0.40990 0.28470 0.31690 0.00100
H 	H 	0.45180 0.41090 0.61810 0.04400
H 	H 	0.40900 0.73160 0.49100 -0.00200
H 	H 	0.90990 0.21530 0.18310 0.00000
H 	H 	0.34720 0.10480 0.94900 0.04900
H 	H 	0.79110 0.64310 0.44390 0.08300
H 	H 	0.74110 0.10390 0.85050 0.06800
H 	H 	0.95180 0.08910 0.88190 0.04400
H 	H 	0.29110 0.85690 0.05610 0.08400
H 	H 	0.09100 0.23160 0.99100 -0.00000
H 	H 	0.83380 0.55200 0.99820 0.00100
H 	H 	0.37070 0.50710 0.58670 0.05100
H 	H 	0.19630 0.70760 0.20560 -0.00400
H 	H 	0.65280 0.89520 0.05100 0.04900
H 	H 	0.09010 0.78470 0.81690 0.00000
H 	H 	0.66620 0.05200 0.49820 0.00100
C 	C 	0.93270 0.40190 0.44810 -0.03900
C 	C 	0.09110 0.56250 0.46970 -0.01000
C 	C 	0.69230 0.83540 0.34970 0.08600
C 	C 	0.30770 0.16460 0.65030 0.08600
C 	C 	0.52530 0.03500 0.08290 -0.04100
C 	C 	0.03250 0.21190 0.02590 0.09500
C 	C 	0.56180 0.07240 0.17040 0.29400
C 	C 	0.43240 0.29820 0.37130 0.09500
C 	C 	0.40890 0.06250 0.96970 -0.00600
C 	C 	0.22770 0.85230 0.09570 -0.07500
C 	C 	0.93240 0.20180 0.12870 0.09500
C 	C 	0.88810 0.08270 0.92090 -0.02800
C 	C 	0.27230 0.35230 0.59570 -0.07400
C 	C 	0.67660 0.97310 0.46010 0.09600
C 	C 	0.80770 0.33540 0.84970 0.08600
C 	C 	0.46750 0.71190 0.52590 0.09700
C 	C 	0.47470 0.96500 0.91710 -0.04100
C 	C 	0.56760 0.70180 0.62870 0.09500
C 	C 	0.96750 0.78810 0.97410 0.09500
C 	C 	0.97470 0.53500 0.58290 -0.03900
C 	C 	0.85270 0.30210 0.39380 0.29600
C 	C 	0.38810 0.41730 0.57910 -0.03000
C 	C 	0.17660 0.52690 0.03990 0.09500
C 	C 	0.06760 0.79820 0.87130 0.09500
C 	C 	0.72770 0.64770 0.40430 -0.07400
C 	C 	0.61190 0.58270 0.42090 -0.03000
C 	C 	0.19230 0.66460 0.15030 0.08600
C 	C 	0.02530 0.46500 0.41710 -0.03900
C 	C 	0.32340 0.02690 0.53990 0.09600
C 	C 	0.93820 0.57240 0.67040 0.29500
C 	C 	0.64730 0.80210 0.89380 0.29600
C 	C 	0.59110 0.93750 0.03030 -0.00600
C 	C 	0.43820 0.92760 0.82960 0.29400
C 	C 	0.11190 0.91730 0.07910 -0.02800
C 	C 	0.06180 0.42760 0.32960 0.29500
C 	C 	0.82340 0.47310 0.96010 0.09500
C 	C 	0.06730 0.59810 0.55190 -0.03900
C 	C 	0.90890 0.43750 0.53030 -0.01000
C 	C 	0.53250 0.28810 0.47410 0.09700
C 	C 	0.77230 0.14770 0.90430 -0.07500
C 	C 	0.56730 0.90190 0.94810 -0.04100
C 	C 	0.14730 0.69790 0.60620 0.29600
C 	C 	0.35270 0.19790 0.10620 0.29600
C 	C 	0.43270 0.09810 0.05190 -0.04100
N 	N 	0.36690 0.36890 0.43130 -0.09300
N 	N 	0.80570 0.36880 0.98100 -0.08600
N 	N 	0.63310 0.63110 0.56870 -0.09300
N 	N 	0.06530 0.86240 0.99740 -0.08800
N 	N 	0.19430 0.63120 0.01900 -0.08600
N 	N 	0.82550 0.45900 0.87940 -0.23600
N 	N 	0.86690 0.13110 0.06870 -0.09300
N 	N 	0.30570 0.13120 0.51900 -0.08600
N 	N 	0.03490 0.25380 0.10590 -0.23400
N 	N 	0.70370 0.78130 0.40890 -0.08300
N 	N 	0.29630 0.21870 0.59110 -0.08300
N 	N 	0.20370 0.71870 0.09110 -0.08300
N 	N 	0.79630 0.28130 0.90890 -0.08300
N 	N 	0.96510 0.74620 0.89410 -0.23400
N 	N 	0.69430 0.86880 0.48100 -0.08600
N 	N 	0.53490 0.24620 0.39410 -0.23400
N 	N 	0.56530 0.63760 0.50260 -0.08700
N 	N 	0.17450 0.54100 0.12060 -0.23600
N 	N 	0.93470 0.13760 0.00260 -0.08800
N 	N 	0.43470 0.36240 0.49740 -0.08700
N 	N 	0.13310 0.86890 0.93130 -0.09300
N 	N 	0.67450 0.95900 0.37940 -0.23500
N 	N 	0.46510 0.75380 0.60590 -0.23400
N 	N 	0.32550 0.04100 0.62060 -0.23500
O 	O 	0.10550 0.32030 0.29859 -0.36000
O 	O 	0.31950 0.18740 0.17270 -0.34900
O 	O 	0.39450 0.82030 0.79859 -0.36000
O 	O 	0.81980 0.21160 0.42120 -0.38000
O 	O 	0.89450 0.67970 0.70141 -0.36000
O 	O 	0.55570 0.98950 0.20840 -0.36000
O 	O 	0.31980 0.28840 0.07880 -0.38000
O 	O 	0.68020 0.71160 0.92120 -0.38000
O 	O 	0.60550 0.17970 0.20141 -0.36000
O 	O 	0.94430 0.48950 0.70840 -0.36100
O 	O 	0.81950 0.31260 0.32730 -0.34900
O 	O 	0.68050 0.81260 0.82730 -0.34900
O 	O 	0.18020 0.78840 0.57880 -0.38000
O 	O 	0.44430 0.01050 0.79160 -0.36000
O 	O 	0.18050 0.68740 0.67270 -0.34900
O 	O 	0.05570 0.51050 0.29160 -0.36100
