data_crystal

_cell_length_a 8.79820
_cell_length_b 11.88760
_cell_length_c 12.64460
_cell_angle_alpha 95.21900
_cell_angle_beta  106.75200
_cell_angle_gamma 96.98000

_symmetry_space_group_name_	'P 1'
_symmetry_space_group_name_H-M	'P 1'

loop_
_symmetry_equiv_pos_as_xyz
  x,y,z

loop_
_atom_site_label
_atom_site_type_symbol
_atom_site_fract_x
_atom_site_fract_y
_atom_site_fract_z
_atom_site_charge
U 	U 	0.15561 0.09440 0.24609 -0.00700
C 	C 	0.12050 0.27930 0.65690 0.35400
C 	C 	0.09100 0.39150 0.65890 -0.38000
H 	H 	0.07010 0.42550 0.59210 0.17300
C 	C 	0.09140 0.45480 0.75730 0.35900
C 	C 	0.12250 0.40480 0.85520 -0.38700
H 	H 	0.12380 0.44760 0.92270 0.18900
C 	C 	0.15200 0.29190 0.85460 0.35300
C 	C 	0.14990 0.22950 0.75560 -0.37600
H 	H 	0.16850 0.15250 0.75490 0.18000
C 	C 	0.12420 0.21230 0.55050 -0.43500
H 	H 	0.05840 0.24400 0.48590 0.17200
H 	H 	0.07610 0.13170 0.54670 0.16500
C 	C 	0.05500 0.57540 0.75770 -0.43900
H 	H 	0.09240 0.61060 0.69980 0.16900
H 	H 	0.11700 0.61980 0.83070 0.18700
C 	C 	0.17230 0.23540 0.95930 -0.43700
H 	H 	0.22530 0.29290 0.02560 0.18400
H 	H 	0.24140 0.17550 0.95930 0.17900
O 	O 	0.40470 0.34080 0.56520 -0.18500
O 	O 	0.32290 0.15170 0.43400 -0.20000
O 	O 	0.42070 0.15880 0.64160 -0.33100
H 	H 	0.40700 0.07850 0.62500 0.19300
O 	O 	0.82430 0.70810 0.71960 -0.19700
O 	O 	0.74540 0.50220 0.63100 -0.19900
O 	O 	0.80750 0.54850 0.83840 -0.35200
H 	H 	0.70200 0.51100 0.82600 0.19600
O 	O 	0.86960 0.26860 0.95210 -0.34000
H 	H 	0.81700 0.27800 0.87790 0.20100
O 	O 	0.90900 0.07780 0.87010 -0.20300
O 	O 	0.99290 0.13930 0.07980 -0.18300
P 	P 	0.32400 0.21704 0.54220 0.46200
P 	P 	0.84662 0.58652 0.73305 0.46600
P 	P 	0.97965 0.17263 0.96548 0.46600
U 	U 	0.84439 0.90560 0.75391 -0.00600
C 	C 	0.87950 0.72070 0.34310 0.35500
C 	C 	0.90900 0.60850 0.34110 -0.37900
H 	H 	0.92990 0.57450 0.40790 0.17300
C 	C 	0.90860 0.54520 0.24270 0.35900
C 	C 	0.87750 0.59520 0.14480 -0.38700
H 	H 	0.87620 0.55240 0.07730 0.18900
C 	C 	0.84800 0.70810 0.14540 0.35300
C 	C 	0.85010 0.77050 0.24440 -0.37600
H 	H 	0.83150 0.84750 0.24510 0.18000
C 	C 	0.87580 0.78770 0.44950 -0.43500
H 	H 	0.94160 0.75600 0.51410 0.17200
H 	H 	0.92390 0.86830 0.45330 0.16500
C 	C 	0.94500 0.42460 0.24230 -0.43900
H 	H 	0.90760 0.38940 0.30020 0.16900
H 	H 	0.88300 0.38020 0.16930 0.18700
C 	C 	0.82770 0.76460 0.04070 -0.43700
H 	H 	0.77470 0.70710 0.97440 0.18400
H 	H 	0.75860 0.82450 0.04070 0.17900
O 	O 	0.59530 0.65920 0.43480 -0.18500
O 	O 	0.67710 0.84830 0.56600 -0.20000
O 	O 	0.57930 0.84120 0.35840 -0.33100
H 	H 	0.59300 0.92150 0.37500 0.19300
O 	O 	0.17570 0.29190 0.28040 -0.19700
O 	O 	0.25460 0.49780 0.36900 -0.19900
O 	O 	0.19250 0.45150 0.16160 -0.35200
H 	H 	0.29800 0.48900 0.17400 0.19600
O 	O 	0.13040 0.73140 0.04790 -0.34000
H 	H 	0.18300 0.72200 0.12210 0.20100
O 	O 	0.09100 0.92220 0.12990 -0.20300
O 	O 	0.00710 0.86070 0.92020 -0.18300
P 	P 	0.67600 0.78296 0.45780 0.46200
P 	P 	0.15338 0.41348 0.26695 0.46600
P 	P 	0.02035 0.82737 0.03452 0.46600
U 	U 	0.50000 0.50000 0.50000 0.00300
