data_crystal

_cell_length_a 25.82970
_cell_length_b 8.75600
_cell_length_c 17.74320
_cell_angle_alpha 90.00000
_cell_angle_beta  99.95100
_cell_angle_gamma 90.00000

_symmetry_space_group_name_	'P 1'
_symmetry_space_group_name_H-M	'P 1'

loop_
_symmetry_equiv_pos_as_xyz
  x,y,z

loop_
_atom_site_label
_atom_site_type_symbol
_atom_site_fract_x
_atom_site_fract_y
_atom_site_fract_z
_atom_site_charge
U 	U 	0.43326 0.59178 0.35847 0.01800
U 	U 	0.25451 0.34909 0.40032 0.07000
C 	C 	0.37456 0.51510 0.10950 -0.20100
H 	H 	0.36580 0.61440 0.13080 0.14500
H 	H 	0.37830 0.53340 0.05560 0.14600
C 	C 	0.31550 0.37310 0.18670 -0.17900
H 	H 	0.34620 0.32100 0.21710 0.11900
H 	H 	0.28570 0.30010 0.18010 0.12500
C 	C 	0.33065 0.26420 0.06500 -0.20800
H 	H 	0.30140 0.19720 0.07370 0.14400
H 	H 	0.36390 0.21120 0.08570 0.12300
F 	F 	0.23279 0.13210 0.46641 -0.31000
N 	N 	0.32812 0.41010 0.10900 -0.09700
H 	H 	0.30020 0.46600 0.08000 0.18300
O 	O 	0.43693 0.45680 0.24630 -0.18300
O 	O 	0.47483 0.57970 0.13850 -0.16200
O 	O 	0.45060 0.30050 0.13150 -0.30700
H 	H 	0.43700 0.22830 0.16400 0.18200
O 	O 	0.34733 0.59360 0.29260 -0.17000
O 	O 	0.25783 0.47160 0.28612 -0.17300
O 	O 	0.27386 0.65550 0.18543 -0.15900
O 	O 	0.28498 0.40470 0.93880 -0.17100
O 	O 	0.30686 0.13000 0.93120 -0.41300
H 	H 	0.33600 0.06200 0.93800 0.17500
O 	O 	0.38037 0.32320 0.94560 -0.18900
P 	P 	0.43900 0.45588 0.16175 0.43500
P 	P 	0.29844 0.53666 0.24144 0.41100
P 	P 	0.32701 0.28900 0.96306 0.45800
H 	H 	0.31600 0.08800 0.88600 0.18400
U 	U 	0.93326 0.09178 0.35847 0.01900
U 	U 	0.75451 0.84909 0.40032 0.07100
C 	C 	0.87456 0.01510 0.10950 -0.19900
H 	H 	0.86580 0.11440 0.13080 0.14500
H 	H 	0.87830 0.03340 0.05560 0.14600
C 	C 	0.81550 0.87310 0.18670 -0.17900
H 	H 	0.84620 0.82100 0.21710 0.11900
H 	H 	0.78570 0.80010 0.18010 0.12500
C 	C 	0.83065 0.76420 0.06500 -0.20800
H 	H 	0.80140 0.69720 0.07370 0.14400
H 	H 	0.86390 0.71120 0.08570 0.12300
F 	F 	0.73279 0.63210 0.46641 -0.31000
N 	N 	0.82812 0.91010 0.10900 -0.09700
H 	H 	0.80020 0.96600 0.08000 0.18300
O 	O 	0.93693 0.95680 0.24630 -0.18300
O 	O 	0.97483 0.07970 0.13850 -0.16100
O 	O 	0.95060 0.80050 0.13150 -0.30700
H 	H 	0.93700 0.72830 0.16400 0.18200
O 	O 	0.84733 0.09360 0.29260 -0.17000
O 	O 	0.75783 0.97160 0.28612 -0.17300
O 	O 	0.77386 0.15550 0.18543 -0.15900
O 	O 	0.78498 0.90470 0.93880 -0.17000
O 	O 	0.80686 0.63000 0.93120 -0.41300
H 	H 	0.83600 0.56200 0.93800 0.17500
O 	O 	0.88037 0.82320 0.94560 -0.18900
P 	P 	0.93900 0.95588 0.16175 0.43500
P 	P 	0.79844 0.03666 0.24144 0.41200
P 	P 	0.82701 0.78900 0.96306 0.45800
H 	H 	0.81600 0.58800 0.88600 0.18400
U 	U 	0.56674 0.59178 0.14153 0.01900
U 	U 	0.74549 0.34909 0.09968 0.07100
C 	C 	0.62544 0.51510 0.39050 -0.20000
H 	H 	0.63420 0.61440 0.36920 0.14600
H 	H 	0.62170 0.53340 0.44440 0.14600
C 	C 	0.68450 0.37310 0.31330 -0.17900
H 	H 	0.65380 0.32100 0.28290 0.11900
H 	H 	0.71430 0.30010 0.31990 0.12500
C 	C 	0.66935 0.26420 0.43500 -0.20800
H 	H 	0.69860 0.19720 0.42630 0.14400
H 	H 	0.63610 0.21120 0.41430 0.12300
F 	F 	0.76721 0.13210 0.03359 -0.31000
N 	N 	0.67188 0.41010 0.39100 -0.09700
H 	H 	0.69980 0.46600 0.42000 0.18300
O 	O 	0.56307 0.45680 0.25370 -0.18300
O 	O 	0.52517 0.57970 0.36150 -0.16200
O 	O 	0.54940 0.30050 0.36850 -0.30700
H 	H 	0.56300 0.22830 0.33600 0.18200
O 	O 	0.65267 0.59360 0.20740 -0.17000
O 	O 	0.74217 0.47160 0.21388 -0.17300
O 	O 	0.72614 0.65550 0.31457 -0.15900
O 	O 	0.71502 0.40470 0.56120 -0.17100
O 	O 	0.69314 0.13000 0.56880 -0.41300
H 	H 	0.66400 0.06200 0.56200 0.17500
O 	O 	0.61963 0.32320 0.55440 -0.18900
P 	P 	0.56100 0.45588 0.33825 0.43500
P 	P 	0.70156 0.53666 0.25856 0.41100
P 	P 	0.67299 0.28900 0.53694 0.45800
H 	H 	0.68400 0.08800 0.61400 0.18400
U 	U 	0.06674 0.09178 0.14153 0.01900
U 	U 	0.24549 0.84909 0.09968 0.07000
C 	C 	0.12544 0.01510 0.39050 -0.20000
H 	H 	0.13420 0.11440 0.36920 0.14600
H 	H 	0.12170 0.03340 0.44440 0.14600
C 	C 	0.18450 0.87310 0.31330 -0.17900
H 	H 	0.15380 0.82100 0.28290 0.11900
H 	H 	0.21430 0.80010 0.31990 0.12500
C 	C 	0.16935 0.76420 0.43500 -0.20800
H 	H 	0.19860 0.69720 0.42630 0.14400
H 	H 	0.13610 0.71120 0.41430 0.12300
F 	F 	0.26721 0.63210 0.03359 -0.31100
N 	N 	0.17188 0.91010 0.39100 -0.09700
H 	H 	0.19980 0.96600 0.42000 0.18300
O 	O 	0.06307 0.95680 0.25370 -0.18400
O 	O 	0.02517 0.07970 0.36150 -0.16100
O 	O 	0.04940 0.80050 0.36850 -0.30700
H 	H 	0.06300 0.72830 0.33600 0.18200
O 	O 	0.15267 0.09360 0.20740 -0.17000
O 	O 	0.24217 0.97160 0.21388 -0.17300
O 	O 	0.22614 0.15550 0.31457 -0.15900
O 	O 	0.21502 0.90470 0.56120 -0.17100
O 	O 	0.19314 0.63000 0.56880 -0.41300
H 	H 	0.16400 0.56200 0.56200 0.17500
O 	O 	0.11963 0.82320 0.55440 -0.18900
P 	P 	0.06100 0.95588 0.33825 0.43500
P 	P 	0.20156 0.03666 0.25856 0.41200
P 	P 	0.17299 0.78900 0.53694 0.45800
H 	H 	0.18400 0.58800 0.61400 0.18400
U 	U 	0.56674 0.40822 0.64153 0.01900
U 	U 	0.74549 0.65091 0.59968 0.07100
C 	C 	0.62544 0.48490 0.89050 -0.20000
H 	H 	0.63420 0.38560 0.86920 0.14600
H 	H 	0.62170 0.46660 0.94440 0.14600
C 	C 	0.68450 0.62690 0.81330 -0.17900
H 	H 	0.65380 0.67900 0.78290 0.11900
H 	H 	0.71430 0.69990 0.81990 0.12500
C 	C 	0.66935 0.73580 0.93500 -0.20800
H 	H 	0.69860 0.80280 0.92630 0.14400
H 	H 	0.63610 0.78880 0.91430 0.12300
F 	F 	0.76721 0.86790 0.53359 -0.31000
N 	N 	0.67188 0.58990 0.89100 -0.09700
H 	H 	0.69980 0.53400 0.92000 0.18300
O 	O 	0.56307 0.54320 0.75370 -0.18300
O 	O 	0.52517 0.42030 0.86150 -0.16200
O 	O 	0.54940 0.69950 0.86850 -0.30700
H 	H 	0.56300 0.77170 0.83600 0.18200
O 	O 	0.65267 0.40640 0.70740 -0.17000
O 	O 	0.74217 0.52840 0.71388 -0.17300
O 	O 	0.72614 0.34450 0.81457 -0.15900
O 	O 	0.71502 0.59530 0.06120 -0.17100
O 	O 	0.69314 0.87000 0.06880 -0.41300
H 	H 	0.66400 0.93800 0.06200 0.17500
O 	O 	0.61963 0.67680 0.05440 -0.18900
P 	P 	0.56100 0.54412 0.83825 0.43500
P 	P 	0.70156 0.46334 0.75856 0.41100
P 	P 	0.67299 0.71100 0.03694 0.45800
H 	H 	0.68400 0.91200 0.11400 0.18400
U 	U 	0.06674 0.90822 0.64153 0.01900
U 	U 	0.24549 0.15091 0.59968 0.07100
C 	C 	0.12544 0.98490 0.89050 -0.19900
H 	H 	0.13420 0.88560 0.86920 0.14500
H 	H 	0.12170 0.96660 0.94440 0.14600
C 	C 	0.18450 0.12690 0.81330 -0.17900
H 	H 	0.15380 0.17900 0.78290 0.11900
H 	H 	0.21430 0.19990 0.81990 0.12500
C 	C 	0.16935 0.23580 0.93500 -0.20800
H 	H 	0.19860 0.30280 0.92630 0.14400
H 	H 	0.13610 0.28880 0.91430 0.12300
F 	F 	0.26721 0.36790 0.53359 -0.31000
N 	N 	0.17188 0.08990 0.89100 -0.09700
H 	H 	0.19980 0.03400 0.92000 0.18300
O 	O 	0.06307 0.04320 0.75370 -0.18300
O 	O 	0.02517 0.92030 0.86150 -0.16100
O 	O 	0.04940 0.19950 0.86850 -0.30700
H 	H 	0.06300 0.27170 0.83600 0.18200
O 	O 	0.15267 0.90640 0.70740 -0.17000
O 	O 	0.24217 0.02840 0.71388 -0.17300
O 	O 	0.22614 0.84450 0.81457 -0.15900
O 	O 	0.21502 0.09530 0.06120 -0.17000
O 	O 	0.19314 0.37000 0.06880 -0.41300
H 	H 	0.16400 0.43800 0.06200 0.17500
O 	O 	0.11963 0.17680 0.05440 -0.18900
P 	P 	0.06100 0.04412 0.83825 0.43500
P 	P 	0.20156 0.96334 0.75856 0.41200
P 	P 	0.17299 0.21100 0.03694 0.45800
H 	H 	0.18400 0.41200 0.11400 0.18400
U 	U 	0.43326 0.40822 0.85847 0.01900
U 	U 	0.25451 0.65091 0.90032 0.07100
C 	C 	0.37456 0.48490 0.60950 -0.20000
H 	H 	0.36580 0.38560 0.63080 0.14600
H 	H 	0.37830 0.46660 0.55560 0.14600
C 	C 	0.31550 0.62690 0.68670 -0.17900
H 	H 	0.34620 0.67900 0.71710 0.11900
H 	H 	0.28570 0.69990 0.68010 0.12500
C 	C 	0.33065 0.73580 0.56500 -0.20800
H 	H 	0.30140 0.80280 0.57370 0.14400
H 	H 	0.36390 0.78880 0.58570 0.12300
F 	F 	0.23279 0.86790 0.96641 -0.31000
N 	N 	0.32812 0.58990 0.60900 -0.09700
H 	H 	0.30020 0.53400 0.58000 0.18300
O 	O 	0.43693 0.54320 0.74630 -0.18300
O 	O 	0.47483 0.42030 0.63850 -0.16200
O 	O 	0.45060 0.69950 0.63150 -0.30700
H 	H 	0.43700 0.77170 0.66400 0.18200
O 	O 	0.34733 0.40640 0.79260 -0.17000
O 	O 	0.25783 0.52840 0.78612 -0.17300
O 	O 	0.27386 0.34450 0.68543 -0.15900
O 	O 	0.28498 0.59530 0.43880 -0.17100
O 	O 	0.30686 0.87000 0.43120 -0.41300
H 	H 	0.33600 0.93800 0.43800 0.17500
O 	O 	0.38037 0.67680 0.44560 -0.18900
P 	P 	0.43900 0.54412 0.66175 0.43500
P 	P 	0.29844 0.46334 0.74144 0.41100
P 	P 	0.32701 0.71100 0.46306 0.45800
H 	H 	0.31600 0.91200 0.38600 0.18400
U 	U 	0.93326 0.90822 0.85847 0.01900
U 	U 	0.75451 0.15091 0.90032 0.07000
C 	C 	0.87456 0.98490 0.60950 -0.20000
H 	H 	0.86580 0.88560 0.63080 0.14600
H 	H 	0.87830 0.96660 0.55560 0.14600
C 	C 	0.81550 0.12690 0.68670 -0.17900
H 	H 	0.84620 0.17900 0.71710 0.11900
H 	H 	0.78570 0.19990 0.68010 0.12500
C 	C 	0.83065 0.23580 0.56500 -0.20800
H 	H 	0.80140 0.30280 0.57370 0.14400
H 	H 	0.86390 0.28880 0.58570 0.12300
F 	F 	0.73279 0.36790 0.96641 -0.31100
N 	N 	0.82812 0.08990 0.60900 -0.09700
H 	H 	0.80020 0.03400 0.58000 0.18300
O 	O 	0.93693 0.04320 0.74630 -0.18400
O 	O 	0.97483 0.92030 0.63850 -0.16100
O 	O 	0.95060 0.19950 0.63150 -0.30700
H 	H 	0.93700 0.27170 0.66400 0.18200
O 	O 	0.84733 0.90640 0.79260 -0.17000
O 	O 	0.75783 0.02840 0.78612 -0.17300
O 	O 	0.77386 0.84450 0.68543 -0.15900
O 	O 	0.78498 0.09530 0.43880 -0.17100
O 	O 	0.80686 0.37000 0.43120 -0.41300
H 	H 	0.83600 0.43800 0.43800 0.17500
O 	O 	0.88037 0.17680 0.44560 -0.18900
P 	P 	0.93900 0.04412 0.66175 0.43500
P 	P 	0.79844 0.96334 0.74144 0.41200
P 	P 	0.82701 0.21100 0.46306 0.45800
H 	H 	0.81600 0.41200 0.38600 0.18400
