data_crystal

_cell_length_a 16.86100
_cell_length_b 24.43100
_cell_length_c 26.72300
_cell_angle_alpha 90.00000
_cell_angle_beta  90.00000
_cell_angle_gamma 90.00000

_symmetry_space_group_name_	'P 1'
_symmetry_space_group_name_H-M	'P 1'

loop_
_symmetry_equiv_pos_as_xyz
  x,y,z

loop_
_atom_site_label
_atom_site_type_symbol
_atom_site_fract_x
_atom_site_fract_y
_atom_site_fract_z
_atom_site_charge
Ag	Ag	0.32376 0.47119 0.46985 0.47400
Ag	Ag	0.46852 0.31308 0.44930 0.57200
Ag	Ag	0.45057 0.40470 0.38494 0.50200
Ag	Ag	0.04632 0.39233 0.39154 0.51700
Ag	Ag	0.49165 0.42136 0.48859 0.44300
Ag	Ag	0.02865 0.30072 0.46609 0.58300
Ag	Ag	0.98880 0.40942 0.49546 0.48800
Ag	Ag	0.12831 0.47403 0.45809 0.45700
Br	Br	0.16484 0.28225 0.56301 -0.10400
Br	Br	0.34978 0.28691 0.55508 -0.13400
C 	C 	0.10520 0.38220 0.46380 -0.43000
C 	C 	0.17090 0.36920 0.47750 0.14800
C 	C 	0.24720 0.35000 0.49430 -0.17800
C 	C 	0.31720 0.37280 0.47090 0.11700
C 	C 	0.37990 0.38600 0.45210 -0.40600
C 	C 	0.25290 0.31240 0.53110 0.24100
O 	O 	0.55430 0.29610 0.51850 -0.25100
O 	O 	0.58530 0.38250 0.53970 -0.23400
C 	C 	0.59240 0.33140 0.54080 0.14700
C 	C 	0.66280 0.31160 0.57320 0.91400
F 	F 	0.67010 0.25890 0.57390 -0.48700
F 	F 	0.65610 0.32790 0.61840 -0.42800
F 	F 	0.72950 0.33120 0.55650 -0.44300
O 	O 	0.55840 0.29520 0.38300 -0.16100
O 	O 	0.52490 0.35630 0.32450 -0.16500
C 	C 	0.56080 0.31490 0.34170 0.16600
C 	C 	0.62200 0.28690 0.30570 0.91600
F 	F 	0.61390 0.30110 0.25930 -0.41800
F 	F 	0.61740 0.23430 0.30840 -0.39000
F 	F 	0.69340 0.29980 0.31930 -0.39000
O 	O 	0.27130 0.53490 0.52020 -0.27400
O 	O 	0.14060 0.54710 0.51310 -0.32600
C 	C 	0.20800 0.55800 0.52870 0.16900
C 	C 	0.21460 0.60580 0.56750 0.90300
F 	F 	0.27740 0.63520 0.56090 -0.46100
F 	F 	0.15420 0.63730 0.56720 -0.51900
F 	F 	0.22170 0.58660 0.61280 -0.46200
O 	O 	0.95530 0.28450 0.54260 -0.24600
O 	O 	0.92140 0.37000 0.56380 -0.20000
C 	C 	0.92520 0.32010 0.57040 0.16500
C 	C 	0.89360 0.29980 0.62200 0.89900
F 	F 	0.83940 0.33210 0.63950 -0.39700
F 	F 	0.86350 0.25110 0.61930 -0.46200
F 	F 	0.95070 0.29790 0.65410 -0.42000
O 	O 	0.97840 0.26610 0.39050 -0.15000
O 	O 	0.99180 0.33440 0.33610 -0.15800
C 	C 	0.97340 0.28760 0.34870 0.14600
C 	C 	0.93060 0.25300 0.30930 0.92700
F 	F 	0.94810 0.20210 0.31460 -0.41800
F 	F 	0.94330 0.26640 0.26400 -0.40500
F 	F 	0.85400 0.25560 0.31620 -0.38000
Ag	Ag	0.82376 0.02881 0.53015 0.47400
Ag	Ag	0.96852 0.18692 0.55070 0.57100
Ag	Ag	0.95057 0.09530 0.61506 0.50200
Ag	Ag	0.54632 0.10767 0.60846 0.51600
Ag	Ag	0.99165 0.07864 0.51141 0.44300
Ag	Ag	0.52865 0.19928 0.53391 0.58300
Ag	Ag	0.48880 0.09058 0.50454 0.48800
Ag	Ag	0.62831 0.02597 0.54191 0.45800
Br	Br	0.66484 0.21775 0.43699 -0.10400
Br	Br	0.84978 0.21309 0.44492 -0.13400
C 	C 	0.60520 0.11780 0.53620 -0.43100
C 	C 	0.67090 0.13080 0.52250 0.14900
C 	C 	0.74720 0.15000 0.50570 -0.17800
C 	C 	0.81720 0.12720 0.52910 0.11700
C 	C 	0.87990 0.11400 0.54790 -0.40600
C 	C 	0.75290 0.18760 0.46890 0.24100
O 	O 	0.05430 0.20390 0.48150 -0.25100
O 	O 	0.08530 0.11750 0.46030 -0.23400
C 	C 	0.09240 0.16860 0.45920 0.14700
C 	C 	0.16280 0.18840 0.42680 0.91400
F 	F 	0.17010 0.24110 0.42610 -0.48700
F 	F 	0.15610 0.17210 0.38160 -0.42800
F 	F 	0.22950 0.16880 0.44350 -0.44300
O 	O 	0.05840 0.20480 0.61700 -0.16100
O 	O 	0.02490 0.14370 0.67550 -0.16400
C 	C 	0.06080 0.18510 0.65830 0.16600
C 	C 	0.12200 0.21310 0.69430 0.91600
F 	F 	0.11390 0.19890 0.74070 -0.41800
F 	F 	0.11740 0.26570 0.69160 -0.39000
F 	F 	0.19340 0.20020 0.68070 -0.39000
O 	O 	0.77130 0.96510 0.47980 -0.27400
O 	O 	0.64060 0.95290 0.48690 -0.32500
C 	C 	0.70800 0.94200 0.47130 0.16900
C 	C 	0.71460 0.89420 0.43250 0.90300
F 	F 	0.77740 0.86480 0.43910 -0.46000
F 	F 	0.65420 0.86270 0.43280 -0.51900
F 	F 	0.72170 0.91340 0.38720 -0.46200
O 	O 	0.45530 0.21550 0.45740 -0.24600
O 	O 	0.42140 0.13000 0.43620 -0.20000
C 	C 	0.42520 0.17990 0.42960 0.16500
C 	C 	0.39360 0.20020 0.37800 0.89900
F 	F 	0.33940 0.16790 0.36050 -0.39700
F 	F 	0.36350 0.24890 0.38070 -0.46200
F 	F 	0.45070 0.20210 0.34590 -0.42000
O 	O 	0.47840 0.23390 0.60950 -0.15000
O 	O 	0.49180 0.16560 0.66390 -0.15800
C 	C 	0.47340 0.21240 0.65130 0.14600
C 	C 	0.43060 0.24700 0.69070 0.92700
F 	F 	0.44810 0.29790 0.68540 -0.41800
F 	F 	0.44330 0.23360 0.73600 -0.40500
F 	F 	0.35400 0.24440 0.68380 -0.38000
Ag	Ag	0.82376 0.47119 0.03015 0.47300
Ag	Ag	0.96852 0.31308 0.05070 0.57100
Ag	Ag	0.95057 0.40470 0.11506 0.50100
Ag	Ag	0.54632 0.39233 0.10846 0.51600
Ag	Ag	0.99165 0.42136 0.01141 0.44300
Ag	Ag	0.52865 0.30072 0.03391 0.58300
Ag	Ag	0.48880 0.40942 0.00454 0.48800
Ag	Ag	0.62831 0.47403 0.04191 0.45700
Br	Br	0.66484 0.28225 0.93699 -0.10400
Br	Br	0.84978 0.28691 0.94492 -0.13300
C 	C 	0.60520 0.38220 0.03620 -0.43100
C 	C 	0.67090 0.36920 0.02250 0.14900
C 	C 	0.74720 0.35000 0.00570 -0.17800
C 	C 	0.81720 0.37280 0.02910 0.11700
C 	C 	0.87990 0.38600 0.04790 -0.40600
C 	C 	0.75290 0.31240 0.96890 0.24200
O 	O 	0.05430 0.29610 0.98150 -0.25100
O 	O 	0.08530 0.38250 0.96030 -0.23500
C 	C 	0.09240 0.33140 0.95920 0.14700
C 	C 	0.16280 0.31160 0.92680 0.91400
F 	F 	0.17010 0.25890 0.92610 -0.48700
F 	F 	0.15610 0.32790 0.88160 -0.42800
F 	F 	0.22950 0.33120 0.94350 -0.44300
O 	O 	0.05840 0.29520 0.11700 -0.16000
O 	O 	0.02490 0.35630 0.17550 -0.16400
C 	C 	0.06080 0.31490 0.15830 0.16600
C 	C 	0.12200 0.28690 0.19430 0.91600
F 	F 	0.11390 0.30110 0.24070 -0.41700
F 	F 	0.11740 0.23430 0.19160 -0.39000
F 	F 	0.19340 0.29980 0.18070 -0.39000
O 	O 	0.77130 0.53490 0.97980 -0.27300
O 	O 	0.64060 0.54710 0.98690 -0.32500
C 	C 	0.70800 0.55800 0.97130 0.16900
C 	C 	0.71460 0.60580 0.93250 0.90300
F 	F 	0.77740 0.63520 0.93910 -0.46000
F 	F 	0.65420 0.63730 0.93280 -0.51900
F 	F 	0.72170 0.58660 0.88720 -0.46200
O 	O 	0.45530 0.28450 0.95740 -0.24600
O 	O 	0.42140 0.37000 0.93620 -0.20000
C 	C 	0.42520 0.32010 0.92960 0.16500
C 	C 	0.39360 0.29980 0.87800 0.89900
F 	F 	0.33940 0.33210 0.86050 -0.39700
F 	F 	0.36350 0.25110 0.88070 -0.46200
F 	F 	0.45070 0.29790 0.84590 -0.42000
O 	O 	0.47840 0.26610 0.10950 -0.15000
O 	O 	0.49180 0.33440 0.16390 -0.15800
C 	C 	0.47340 0.28760 0.15130 0.14600
C 	C 	0.43060 0.25300 0.19070 0.92700
F 	F 	0.44810 0.20210 0.18540 -0.41800
F 	F 	0.44330 0.26640 0.23600 -0.40500
F 	F 	0.35400 0.25560 0.18380 -0.38000
Ag	Ag	0.32376 0.02881 0.96985 0.47300
Ag	Ag	0.46852 0.18692 0.94930 0.57100
Ag	Ag	0.45057 0.09530 0.88494 0.50200
Ag	Ag	0.04632 0.10767 0.89154 0.51600
Ag	Ag	0.49165 0.07864 0.98859 0.44300
Ag	Ag	0.02865 0.19928 0.96609 0.58300
Ag	Ag	0.98880 0.09058 0.99546 0.48900
Ag	Ag	0.12831 0.02597 0.95809 0.45700
Br	Br	0.16484 0.21775 0.06301 -0.10200
Br	Br	0.34978 0.21309 0.05508 -0.13300
C 	C 	0.10520 0.11780 0.96380 -0.43100
C 	C 	0.17090 0.13080 0.97750 0.14900
C 	C 	0.24720 0.15000 0.99430 -0.18000
C 	C 	0.31720 0.12720 0.97090 0.11800
C 	C 	0.37990 0.11400 0.95210 -0.40600
C 	C 	0.25290 0.18760 0.03110 0.24400
O 	O 	0.55430 0.20390 0.01850 -0.25000
O 	O 	0.58530 0.11750 0.03970 -0.23300
C 	C 	0.59240 0.16860 0.04080 0.14700
C 	C 	0.66280 0.18840 0.07320 0.91400
F 	F 	0.67010 0.24110 0.07390 -0.48700
F 	F 	0.65610 0.17210 0.11840 -0.42800
F 	F 	0.72950 0.16880 0.05650 -0.44300
O 	O 	0.55840 0.20480 0.88300 -0.16100
O 	O 	0.52490 0.14370 0.82450 -0.16500
C 	C 	0.56080 0.18510 0.84170 0.16600
C 	C 	0.62200 0.21310 0.80570 0.91600
F 	F 	0.61390 0.19890 0.75930 -0.41800
F 	F 	0.61740 0.26570 0.80840 -0.39000
F 	F 	0.69340 0.20020 0.81930 -0.39000
O 	O 	0.27130 0.96510 0.02020 -0.27400
O 	O 	0.14060 0.95290 0.01310 -0.32500
C 	C 	0.20800 0.94200 0.02870 0.16900
C 	C 	0.21460 0.89420 0.06750 0.90300
F 	F 	0.27740 0.86480 0.06090 -0.46000
F 	F 	0.15420 0.86270 0.06720 -0.51900
F 	F 	0.22170 0.91340 0.11280 -0.46200
O 	O 	0.95530 0.21550 0.04260 -0.24600
O 	O 	0.92140 0.13000 0.06380 -0.20000
C 	C 	0.92520 0.17990 0.07040 0.16400
C 	C 	0.89360 0.20020 0.12200 0.89900
F 	F 	0.83940 0.16790 0.13950 -0.39700
F 	F 	0.86350 0.24890 0.11930 -0.46200
F 	F 	0.95070 0.20210 0.15410 -0.42000
O 	O 	0.97840 0.23390 0.89050 -0.14900
O 	O 	0.99180 0.16560 0.83610 -0.15700
C 	C 	0.97340 0.21240 0.84870 0.14600
C 	C 	0.93060 0.24700 0.80930 0.92700
F 	F 	0.94810 0.29790 0.81460 -0.41700
F 	F 	0.94330 0.23360 0.76400 -0.40500
F 	F 	0.85400 0.24440 0.81620 -0.38000
Ag	Ag	0.17624 0.52881 0.96985 0.47300
Ag	Ag	0.03148 0.68692 0.94930 0.57100
Ag	Ag	0.04943 0.59530 0.88494 0.50100
Ag	Ag	0.45368 0.60767 0.89154 0.51600
Ag	Ag	0.00835 0.57864 0.98859 0.44300
Ag	Ag	0.47135 0.69928 0.96609 0.58300
Ag	Ag	0.51120 0.59058 0.99546 0.48800
Ag	Ag	0.37169 0.52597 0.95809 0.45700
Br	Br	0.33516 0.71775 0.06301 -0.10400
Br	Br	0.15022 0.71309 0.05508 -0.13300
C 	C 	0.39480 0.61780 0.96380 -0.43100
C 	C 	0.32910 0.63080 0.97750 0.14900
C 	C 	0.25280 0.65000 0.99430 -0.17800
C 	C 	0.18280 0.62720 0.97090 0.11700
C 	C 	0.12010 0.61400 0.95210 -0.40600
C 	C 	0.24710 0.68760 0.03110 0.24200
O 	O 	0.94570 0.70390 0.01850 -0.25100
O 	O 	0.91470 0.61750 0.03970 -0.23500
C 	C 	0.90760 0.66860 0.04080 0.14700
C 	C 	0.83720 0.68840 0.07320 0.91400
F 	F 	0.82990 0.74110 0.07390 -0.48700
F 	F 	0.84390 0.67210 0.11840 -0.42800
F 	F 	0.77050 0.66880 0.05650 -0.44300
O 	O 	0.94160 0.70480 0.88300 -0.16000
O 	O 	0.97510 0.64370 0.82450 -0.16400
C 	C 	0.93920 0.68510 0.84170 0.16600
C 	C 	0.87800 0.71310 0.80570 0.91600
F 	F 	0.88610 0.69890 0.75930 -0.41700
F 	F 	0.88260 0.76570 0.80840 -0.39000
F 	F 	0.80660 0.70020 0.81930 -0.39000
O 	O 	0.22870 0.46510 0.02020 -0.27300
O 	O 	0.35940 0.45290 0.01310 -0.32500
C 	C 	0.29200 0.44200 0.02870 0.16900
C 	C 	0.28540 0.39420 0.06750 0.90300
F 	F 	0.22260 0.36480 0.06090 -0.46000
F 	F 	0.34580 0.36270 0.06720 -0.51900
F 	F 	0.27830 0.41340 0.11280 -0.46200
O 	O 	0.54470 0.71550 0.04260 -0.24600
O 	O 	0.57860 0.63000 0.06380 -0.20000
C 	C 	0.57480 0.67990 0.07040 0.16500
C 	C 	0.60640 0.70020 0.12200 0.89900
F 	F 	0.66060 0.66790 0.13950 -0.39700
F 	F 	0.63650 0.74890 0.11930 -0.46200
F 	F 	0.54930 0.70210 0.15410 -0.42000
O 	O 	0.52160 0.73390 0.89050 -0.15000
O 	O 	0.50820 0.66560 0.83610 -0.15800
C 	C 	0.52660 0.71240 0.84870 0.14600
C 	C 	0.56940 0.74700 0.80930 0.92700
F 	F 	0.55190 0.79790 0.81460 -0.41800
F 	F 	0.55670 0.73360 0.76400 -0.40500
F 	F 	0.64600 0.74440 0.81620 -0.38000
Ag	Ag	0.67624 0.97119 0.03015 0.47300
Ag	Ag	0.53148 0.81308 0.05070 0.57100
Ag	Ag	0.54943 0.90470 0.11506 0.50200
Ag	Ag	0.95368 0.89233 0.10846 0.51600
Ag	Ag	0.50835 0.92136 0.01141 0.44300
Ag	Ag	0.97135 0.80072 0.03391 0.58300
Ag	Ag	0.01120 0.90942 0.00454 0.48900
Ag	Ag	0.87169 0.97403 0.04191 0.45700
Br	Br	0.83516 0.78225 0.93699 -0.10200
Br	Br	0.65022 0.78691 0.94492 -0.13300
C 	C 	0.89480 0.88220 0.03620 -0.43100
C 	C 	0.82910 0.86920 0.02250 0.14900
C 	C 	0.75280 0.85000 0.00570 -0.18000
C 	C 	0.68280 0.87280 0.02910 0.11800
C 	C 	0.62010 0.88600 0.04790 -0.40600
C 	C 	0.74710 0.81240 0.96890 0.24400
O 	O 	0.44570 0.79610 0.98150 -0.25000
O 	O 	0.41470 0.88250 0.96030 -0.23300
C 	C 	0.40760 0.83140 0.95920 0.14700
C 	C 	0.33720 0.81160 0.92680 0.91400
F 	F 	0.32990 0.75890 0.92610 -0.48700
F 	F 	0.34390 0.82790 0.88160 -0.42800
F 	F 	0.27050 0.83120 0.94350 -0.44300
O 	O 	0.44160 0.79520 0.11700 -0.16100
O 	O 	0.47510 0.85630 0.17550 -0.16500
C 	C 	0.43920 0.81490 0.15830 0.16600
C 	C 	0.37800 0.78690 0.19430 0.91600
F 	F 	0.38610 0.80110 0.24070 -0.41800
F 	F 	0.38260 0.73430 0.19160 -0.39000
F 	F 	0.30660 0.79980 0.18070 -0.39000
O 	O 	0.72870 0.03490 0.97980 -0.27400
O 	O 	0.85940 0.04710 0.98690 -0.32500
C 	C 	0.79200 0.05800 0.97130 0.16900
C 	C 	0.78540 0.10580 0.93250 0.90300
F 	F 	0.72260 0.13520 0.93910 -0.46000
F 	F 	0.84580 0.13730 0.93280 -0.51900
F 	F 	0.77830 0.08660 0.88720 -0.46200
O 	O 	0.04470 0.78450 0.95740 -0.24600
O 	O 	0.07860 0.87000 0.93620 -0.20000
C 	C 	0.07480 0.82010 0.92960 0.16400
C 	C 	0.10640 0.79980 0.87800 0.89900
F 	F 	0.16060 0.83210 0.86050 -0.39700
F 	F 	0.13650 0.75110 0.88070 -0.46200
F 	F 	0.04930 0.79790 0.84590 -0.42000
O 	O 	0.02160 0.76610 0.10950 -0.14900
O 	O 	0.00820 0.83440 0.16390 -0.15700
C 	C 	0.02660 0.78760 0.15130 0.14600
C 	C 	0.06940 0.75300 0.19070 0.92700
F 	F 	0.05190 0.70210 0.18540 -0.41700
F 	F 	0.05670 0.76640 0.23600 -0.40500
F 	F 	0.14600 0.75560 0.18380 -0.38000
Ag	Ag	0.67624 0.52881 0.53015 0.47300
Ag	Ag	0.53148 0.68692 0.55070 0.57100
Ag	Ag	0.54943 0.59530 0.61506 0.50100
Ag	Ag	0.95368 0.60767 0.60846 0.51600
Ag	Ag	0.50835 0.57864 0.51141 0.44300
Ag	Ag	0.97135 0.69928 0.53391 0.58300
Ag	Ag	0.01120 0.59058 0.50454 0.48800
Ag	Ag	0.87169 0.52597 0.54191 0.45700
Br	Br	0.83516 0.71775 0.43699 -0.10400
Br	Br	0.65022 0.71309 0.44492 -0.13400
C 	C 	0.89480 0.61780 0.53620 -0.43000
C 	C 	0.82910 0.63080 0.52250 0.14800
C 	C 	0.75280 0.65000 0.50570 -0.17800
C 	C 	0.68280 0.62720 0.52910 0.11700
C 	C 	0.62010 0.61400 0.54790 -0.40600
C 	C 	0.74710 0.68760 0.46890 0.24100
O 	O 	0.44570 0.70390 0.48150 -0.25100
O 	O 	0.41470 0.61750 0.46030 -0.23400
C 	C 	0.40760 0.66860 0.45920 0.14700
C 	C 	0.33720 0.68840 0.42680 0.91400
F 	F 	0.32990 0.74110 0.42610 -0.48700
F 	F 	0.34390 0.67210 0.38160 -0.42800
F 	F 	0.27050 0.66880 0.44350 -0.44300
O 	O 	0.44160 0.70480 0.61700 -0.16100
O 	O 	0.47510 0.64370 0.67550 -0.16500
C 	C 	0.43920 0.68510 0.65830 0.16600
C 	C 	0.37800 0.71310 0.69430 0.91600
F 	F 	0.38610 0.69890 0.74070 -0.41800
F 	F 	0.38260 0.76570 0.69160 -0.39000
F 	F 	0.30660 0.70020 0.68070 -0.39000
O 	O 	0.72870 0.46510 0.47980 -0.27400
O 	O 	0.85940 0.45290 0.48690 -0.32600
C 	C 	0.79200 0.44200 0.47130 0.16900
C 	C 	0.78540 0.39420 0.43250 0.90300
F 	F 	0.72260 0.36480 0.43910 -0.46100
F 	F 	0.84580 0.36270 0.43280 -0.51900
F 	F 	0.77830 0.41340 0.38720 -0.46200
O 	O 	0.04470 0.71550 0.45740 -0.24600
O 	O 	0.07860 0.63000 0.43620 -0.20000
C 	C 	0.07480 0.67990 0.42960 0.16500
C 	C 	0.10640 0.70020 0.37800 0.89900
F 	F 	0.16060 0.66790 0.36050 -0.39700
F 	F 	0.13650 0.74890 0.38070 -0.46200
F 	F 	0.04930 0.70210 0.34590 -0.42000
O 	O 	0.02160 0.73390 0.60950 -0.15000
O 	O 	0.00820 0.66560 0.66390 -0.15800
C 	C 	0.02660 0.71240 0.65130 0.14600
C 	C 	0.06940 0.74700 0.69070 0.92700
F 	F 	0.05190 0.79790 0.68540 -0.41800
F 	F 	0.05670 0.73360 0.73600 -0.40500
F 	F 	0.14600 0.74440 0.68380 -0.38000
Ag	Ag	0.17624 0.97119 0.46985 0.47400
Ag	Ag	0.03148 0.81308 0.44930 0.57100
Ag	Ag	0.04943 0.90470 0.38494 0.50200
Ag	Ag	0.45368 0.89233 0.39154 0.51600
Ag	Ag	0.00835 0.92136 0.48859 0.44300
Ag	Ag	0.47135 0.80072 0.46609 0.58300
Ag	Ag	0.51120 0.90942 0.49546 0.48800
Ag	Ag	0.37169 0.97403 0.45809 0.45800
Br	Br	0.33516 0.78225 0.56301 -0.10400
Br	Br	0.15022 0.78691 0.55508 -0.13400
C 	C 	0.39480 0.88220 0.46380 -0.43100
C 	C 	0.32910 0.86920 0.47750 0.14900
C 	C 	0.25280 0.85000 0.49430 -0.17800
C 	C 	0.18280 0.87280 0.47090 0.11700
C 	C 	0.12010 0.88600 0.45210 -0.40600
C 	C 	0.24710 0.81240 0.53110 0.24100
O 	O 	0.94570 0.79610 0.51850 -0.25100
O 	O 	0.91470 0.88250 0.53970 -0.23400
C 	C 	0.90760 0.83140 0.54080 0.14700
C 	C 	0.83720 0.81160 0.57320 0.91400
F 	F 	0.82990 0.75890 0.57390 -0.48700
F 	F 	0.84390 0.82790 0.61840 -0.42800
F 	F 	0.77050 0.83120 0.55650 -0.44300
O 	O 	0.94160 0.79520 0.38300 -0.16100
O 	O 	0.97510 0.85630 0.32450 -0.16400
C 	C 	0.93920 0.81490 0.34170 0.16600
C 	C 	0.87800 0.78690 0.30570 0.91600
F 	F 	0.88610 0.80110 0.25930 -0.41800
F 	F 	0.88260 0.73430 0.30840 -0.39000
F 	F 	0.80660 0.79980 0.31930 -0.39000
O 	O 	0.22870 0.03490 0.52020 -0.27400
O 	O 	0.35940 0.04710 0.51310 -0.32500
C 	C 	0.29200 0.05800 0.52870 0.16900
C 	C 	0.28540 0.10580 0.56750 0.90300
F 	F 	0.22260 0.13520 0.56090 -0.46000
F 	F 	0.34580 0.13730 0.56720 -0.51900
F 	F 	0.27830 0.08660 0.61280 -0.46200
O 	O 	0.54470 0.78450 0.54260 -0.24600
O 	O 	0.57860 0.87000 0.56380 -0.20000
C 	C 	0.57480 0.82010 0.57040 0.16500
C 	C 	0.60640 0.79980 0.62200 0.89900
F 	F 	0.66060 0.83210 0.63950 -0.39700
F 	F 	0.63650 0.75110 0.61930 -0.46200
F 	F 	0.54930 0.79790 0.65410 -0.42000
O 	O 	0.52160 0.76610 0.39050 -0.15000
O 	O 	0.50820 0.83440 0.33610 -0.15800
C 	C 	0.52660 0.78760 0.34870 0.14600
C 	C 	0.56940 0.75300 0.30930 0.92700
F 	F 	0.55190 0.70210 0.31460 -0.41800
F 	F 	0.55670 0.76640 0.26400 -0.40500
F 	F 	0.64600 0.75560 0.31620 -0.38000
