data_crystal

_cell_length_a 20.79700
_cell_length_b 20.79700
_cell_length_c 16.01200
_cell_angle_alpha 90.00000
_cell_angle_beta  90.00000
_cell_angle_gamma 90.00000

_symmetry_space_group_name_	'P 1'
_symmetry_space_group_name_H-M	'P 1'

loop_
_symmetry_equiv_pos_as_xyz
  x,y,z

loop_
_atom_site_label
_atom_site_type_symbol
_atom_site_fract_x
_atom_site_fract_y
_atom_site_fract_z
_atom_site_charge
C 	C 	0.39640 0.63750 0.48890 0.26200
C 	C 	0.35800 0.61990 0.56140 -0.01200
C 	C 	0.31970 0.65610 0.61390 -0.04000
C 	C 	0.30800 0.72540 0.61650 0.32700
C 	C 	0.31740 0.55750 0.65570 0.12300
C 	C 	0.30100 0.50020 0.70410 -0.06600
C 	C 	0.23570 0.48420 0.71740 -0.00800
H 	H 	0.20430 0.51140 0.69620 0.03000
C 	C 	0.21660 0.43060 0.76000 -0.10100
H 	H 	0.17310 0.42280 0.76860 0.07400
C 	C 	0.26130 0.38850 0.79010 0.05000
C 	C 	0.32690 0.40170 0.78010 0.01200
C 	C 	0.34730 0.46020 0.73500 -0.06600
H 	H 	0.39070 0.46950 0.72780 0.04100
C 	C 	0.37210 0.36100 0.81050 -0.06200
H 	H 	0.41570 0.37040 0.80800 0.05200
C 	C 	0.34930 0.30450 0.84570 -0.04200
H 	H 	0.37910 0.27270 0.85850 0.04600
C 	C 	0.28550 0.29220 0.86300 -0.00400
H 	H 	0.27420 0.25740 0.89650 0.04000
C 	C 	0.24040 0.33020 0.83160 -0.09600
H 	H 	0.19700 0.31990 0.83600 0.08100
N 	N 	0.35700 0.55820 0.58880 -0.25400
N 	N 	0.29420 0.61630 0.67290 -0.24800
O 	O 	0.42580 0.59390 0.45120 -0.36200
O 	O 	0.39730 0.69700 0.46400 -0.19500
O 	O 	0.33020 0.76110 0.56010 -0.24700
O 	O 	0.27420 0.74520 0.67680 -0.52200
Zn	Zn	0.41530 0.50012 0.51899 1.19300
C 	C 	0.89640 0.13750 0.98890 0.26200
C 	C 	0.85800 0.11990 0.06140 -0.01400
C 	C 	0.81970 0.15610 0.11390 -0.04000
C 	C 	0.80800 0.22540 0.11650 0.32600
C 	C 	0.81740 0.05750 0.15570 0.12500
C 	C 	0.80100 0.00020 0.20410 -0.07500
C 	C 	0.73570 0.98420 0.21740 0.00200
H 	H 	0.70430 0.01140 0.19620 0.02500
C 	C 	0.71660 0.93060 0.26000 -0.10900
H 	H 	0.67310 0.92280 0.26860 0.07700
C 	C 	0.76130 0.88850 0.29010 0.05600
C 	C 	0.82690 0.90170 0.28010 0.00600
C 	C 	0.84730 0.96020 0.23500 -0.05800
H 	H 	0.89070 0.96950 0.22780 0.03900
C 	C 	0.87210 0.86100 0.31050 -0.05600
H 	H 	0.91570 0.87040 0.30800 0.05100
C 	C 	0.84930 0.80450 0.34570 -0.04700
H 	H 	0.87910 0.77270 0.35850 0.04800
C 	C 	0.78550 0.79220 0.36300 0.00100
H 	H 	0.77420 0.75740 0.39650 0.03800
C 	C 	0.74040 0.83020 0.33160 -0.10100
H 	H 	0.69700 0.81990 0.33600 0.08300
N 	N 	0.85700 0.05820 0.08880 -0.25400
N 	N 	0.79420 0.11630 0.17290 -0.24800
O 	O 	0.92580 0.09390 0.95120 -0.36300
O 	O 	0.89730 0.19700 0.96400 -0.19500
O 	O 	0.83020 0.26110 0.06010 -0.24700
O 	O 	0.77420 0.24520 0.17680 -0.52200
Zn	Zn	0.91530 0.00012 0.01899 1.19300
C 	C 	0.10360 0.36250 0.98890 0.26200
C 	C 	0.14200 0.38010 0.06140 -0.01300
C 	C 	0.18030 0.34390 0.11390 -0.04000
C 	C 	0.19200 0.27460 0.11650 0.32600
C 	C 	0.18260 0.44250 0.15570 0.12200
C 	C 	0.19900 0.49980 0.20410 -0.06700
C 	C 	0.26430 0.51580 0.21740 -0.00900
H 	H 	0.29570 0.48860 0.19620 0.02900
C 	C 	0.28340 0.56940 0.26000 -0.10100
H 	H 	0.32690 0.57720 0.26860 0.07400
C 	C 	0.23870 0.61150 0.29010 0.05000
C 	C 	0.17310 0.59830 0.28010 0.01200
C 	C 	0.15270 0.53980 0.23500 -0.06600
H 	H 	0.10930 0.53050 0.22780 0.04100
C 	C 	0.12790 0.63900 0.31050 -0.06200
H 	H 	0.08430 0.62960 0.30800 0.05200
C 	C 	0.15070 0.69550 0.34570 -0.04300
H 	H 	0.12090 0.72730 0.35850 0.04600
C 	C 	0.21450 0.70780 0.36300 -0.00400
H 	H 	0.22580 0.74260 0.39650 0.04000
C 	C 	0.25960 0.66980 0.33160 -0.09600
H 	H 	0.30300 0.68010 0.33600 0.08100
N 	N 	0.14300 0.44180 0.08880 -0.25400
N 	N 	0.20580 0.38370 0.17290 -0.24800
O 	O 	0.07420 0.40610 0.95120 -0.36200
O 	O 	0.10270 0.30300 0.96400 -0.19400
O 	O 	0.16980 0.23890 0.06010 -0.24700
O 	O 	0.22580 0.25480 0.17680 -0.52200
Zn	Zn	0.08470 0.49988 0.01899 1.19300
C 	C 	0.60360 0.86250 0.48890 0.26100
C 	C 	0.64200 0.88010 0.56140 -0.01300
C 	C 	0.68030 0.84390 0.61390 -0.04100
C 	C 	0.69200 0.77460 0.61650 0.32600
C 	C 	0.68260 0.94250 0.65570 0.12100
C 	C 	0.69900 0.99980 0.70410 -0.06200
C 	C 	0.76430 0.01580 0.71740 -0.01500
H 	H 	0.79570 0.98860 0.69620 0.03200
C 	C 	0.78340 0.06940 0.76000 -0.09700
H 	H 	0.82690 0.07720 0.76860 0.07200
C 	C 	0.73870 0.11150 0.79010 0.04700
C 	C 	0.67310 0.09830 0.78010 0.01500
C 	C 	0.65270 0.03980 0.73500 -0.06900
H 	H 	0.60930 0.03050 0.72780 0.04200
C 	C 	0.62790 0.13900 0.81050 -0.06400
H 	H 	0.58430 0.12960 0.80800 0.05300
C 	C 	0.65070 0.19550 0.84570 -0.04000
H 	H 	0.62090 0.22730 0.85850 0.04500
C 	C 	0.71450 0.20780 0.86300 -0.00700
H 	H 	0.72580 0.24260 0.89650 0.04100
C 	C 	0.75960 0.16980 0.83160 -0.09300
H 	H 	0.80300 0.18010 0.83600 0.08000
N 	N 	0.64300 0.94180 0.58880 -0.25300
N 	N 	0.70580 0.88370 0.67290 -0.24800
O 	O 	0.57420 0.90610 0.45120 -0.36200
O 	O 	0.60270 0.80300 0.46400 -0.19500
O 	O 	0.66980 0.73890 0.56010 -0.24700
O 	O 	0.72580 0.75480 0.67680 -0.52200
Zn	Zn	0.58470 0.99988 0.51899 1.19300
C 	C 	0.11250 0.64640 0.73890 0.26100
C 	C 	0.13010 0.60800 0.81140 -0.01300
C 	C 	0.09390 0.56970 0.86390 -0.04000
C 	C 	0.02460 0.55800 0.86650 0.32600
C 	C 	0.19250 0.56740 0.90570 0.12200
C 	C 	0.24980 0.55100 0.95410 -0.06600
C 	C 	0.26580 0.48570 0.96740 -0.00900
H 	H 	0.23860 0.45430 0.94620 0.02900
C 	C 	0.31940 0.46660 0.01000 -0.10100
H 	H 	0.32720 0.42310 0.01860 0.07400
C 	C 	0.36150 0.51130 0.04010 0.05000
C 	C 	0.34830 0.57690 0.03010 0.01200
C 	C 	0.28980 0.59730 0.98500 -0.06600
H 	H 	0.28050 0.64070 0.97780 0.04100
C 	C 	0.38900 0.62210 0.06050 -0.06200
H 	H 	0.37960 0.66570 0.05800 0.05200
C 	C 	0.44550 0.59930 0.09570 -0.04200
H 	H 	0.47730 0.62910 0.10850 0.04600
C 	C 	0.45780 0.53550 0.11300 -0.00400
H 	H 	0.49260 0.52420 0.14650 0.04000
C 	C 	0.41980 0.49040 0.08160 -0.09600
H 	H 	0.43010 0.44700 0.08600 0.08100
N 	N 	0.19180 0.60700 0.83880 -0.25400
N 	N 	0.13370 0.54420 0.92290 -0.24800
O 	O 	0.15610 0.67580 0.70120 -0.36200
O 	O 	0.05300 0.64730 0.71400 -0.19500
O 	O 	0.98890 0.58020 0.81010 -0.24700
O 	O 	0.00480 0.52420 0.92680 -0.52300
Zn	Zn	0.24988 0.66530 0.76899 1.19300
C 	C 	0.61250 0.14640 0.23890 0.26100
C 	C 	0.63010 0.10800 0.31140 -0.01300
C 	C 	0.59390 0.06970 0.36390 -0.04100
C 	C 	0.52460 0.05800 0.36650 0.32600
C 	C 	0.69250 0.06740 0.40570 0.12100
C 	C 	0.74980 0.05100 0.45410 -0.06400
C 	C 	0.76580 0.98570 0.46740 -0.01300
H 	H 	0.73860 0.95430 0.44620 0.03100
C 	C 	0.81940 0.96660 0.51000 -0.09200
H 	H 	0.82720 0.92310 0.51860 0.07100
C 	C 	0.86150 0.01130 0.54010 0.03900
C 	C 	0.84830 0.07690 0.53010 0.01900
C 	C 	0.78980 0.09730 0.48500 -0.07100
H 	H 	0.78050 0.14070 0.47780 0.04300
C 	C 	0.88900 0.12210 0.56050 -0.07100
H 	H 	0.87960 0.16570 0.55800 0.05500
C 	C 	0.94550 0.09930 0.59570 -0.03200
H 	H 	0.97730 0.12910 0.60850 0.04200
C 	C 	0.95780 0.03550 0.61300 -0.01900
H 	H 	0.99260 0.02420 0.64650 0.04400
C 	C 	0.91980 0.99040 0.58160 -0.08100
H 	H 	0.93010 0.94700 0.58600 0.07600
N 	N 	0.69180 0.10700 0.33880 -0.25400
N 	N 	0.63370 0.04420 0.42290 -0.24800
O 	O 	0.65610 0.17580 0.20120 -0.36200
O 	O 	0.55300 0.14730 0.21400 -0.19500
O 	O 	0.48890 0.08020 0.31010 -0.24700
O 	O 	0.50480 0.02420 0.42680 -0.52200
Zn	Zn	0.74988 0.16530 0.26899 1.19300
C 	C 	0.38750 0.35360 0.23890 0.26100
C 	C 	0.36990 0.39200 0.31140 -0.01300
C 	C 	0.40610 0.43030 0.36390 -0.04100
C 	C 	0.47540 0.44200 0.36650 0.32600
C 	C 	0.30750 0.43260 0.40570 0.12200
C 	C 	0.25020 0.44900 0.45410 -0.06700
C 	C 	0.23420 0.51430 0.46740 -0.00900
H 	H 	0.26140 0.54570 0.44620 0.02900
C 	C 	0.18060 0.53340 0.51000 -0.10100
H 	H 	0.17280 0.57690 0.51860 0.07300
C 	C 	0.13850 0.48870 0.54010 0.05000
C 	C 	0.15170 0.42310 0.53010 0.01200
C 	C 	0.21020 0.40270 0.48500 -0.06600
H 	H 	0.21950 0.35930 0.47780 0.04100
C 	C 	0.11100 0.37790 0.56050 -0.06200
H 	H 	0.12040 0.33430 0.55800 0.05200
C 	C 	0.05450 0.40070 0.59570 -0.04300
H 	H 	0.02270 0.37090 0.60850 0.04600
C 	C 	0.04220 0.46450 0.61300 -0.00400
H 	H 	0.00740 0.47580 0.64650 0.04000
C 	C 	0.08020 0.50960 0.58160 -0.09600
H 	H 	0.06990 0.55300 0.58600 0.08100
N 	N 	0.30820 0.39300 0.33880 -0.25400
N 	N 	0.36630 0.45580 0.42290 -0.24800
O 	O 	0.34390 0.32420 0.20120 -0.36200
O 	O 	0.44700 0.35270 0.21400 -0.19500
O 	O 	0.51110 0.41980 0.31010 -0.24700
O 	O 	0.49520 0.47580 0.42680 -0.52200
Zn	Zn	0.25012 0.33470 0.26899 1.19300
C 	C 	0.88750 0.85360 0.73890 0.26100
C 	C 	0.86990 0.89200 0.81140 -0.01300
C 	C 	0.90610 0.93030 0.86390 -0.04100
C 	C 	0.97540 0.94200 0.86650 0.32900
C 	C 	0.80750 0.93260 0.90570 0.12400
C 	C 	0.75020 0.94900 0.95410 -0.07000
C 	C 	0.73420 0.01430 0.96740 -0.00200
H 	H 	0.76140 0.04570 0.94620 0.02700
C 	C 	0.68060 0.03340 0.01000 -0.11100
H 	H 	0.67280 0.07690 0.01860 0.07700
C 	C 	0.63850 0.98870 0.04010 0.06100
C 	C 	0.65170 0.92310 0.03010 0.00500
C 	C 	0.71020 0.90270 0.98500 -0.06200
H 	H 	0.71950 0.85930 0.97780 0.04000
C 	C 	0.61100 0.87790 0.06050 -0.05400
H 	H 	0.62040 0.83430 0.05800 0.05000
C 	C 	0.55450 0.90070 0.09570 -0.05100
H 	H 	0.52270 0.87090 0.10850 0.04900
C 	C 	0.54220 0.96450 0.11300 0.00600
H 	H 	0.50740 0.97580 0.14650 0.03700
C 	C 	0.58020 0.00960 0.08160 -0.10700
H 	H 	0.56990 0.05300 0.08600 0.08500
N 	N 	0.80820 0.89300 0.83880 -0.25400
N 	N 	0.86630 0.95580 0.92290 -0.24800
O 	O 	0.84390 0.82420 0.70120 -0.36200
O 	O 	0.94700 0.85270 0.71400 -0.19400
O 	O 	0.01110 0.91980 0.81010 -0.24900
O 	O 	0.99520 0.97580 0.92680 -0.52200
Zn	Zn	0.75012 0.83470 0.76899 1.19300
C 	C 	0.60360 0.36250 0.51110 0.26100
C 	C 	0.64200 0.38010 0.43860 -0.01300
C 	C 	0.68030 0.34390 0.38610 -0.04100
C 	C 	0.69200 0.27460 0.38350 0.32600
C 	C 	0.68260 0.44250 0.34430 0.12200
C 	C 	0.69900 0.49980 0.29590 -0.06700
C 	C 	0.76430 0.51580 0.28260 -0.00900
H 	H 	0.79570 0.48860 0.30380 0.02900
C 	C 	0.78340 0.56940 0.24000 -0.10100
H 	H 	0.82690 0.57720 0.23140 0.07400
C 	C 	0.73870 0.61150 0.20990 0.05000
C 	C 	0.67310 0.59830 0.21990 0.01200
C 	C 	0.65270 0.53980 0.26500 -0.06600
H 	H 	0.60930 0.53050 0.27220 0.04100
C 	C 	0.62790 0.63900 0.18950 -0.06200
H 	H 	0.58430 0.62960 0.19200 0.05200
C 	C 	0.65070 0.69550 0.15430 -0.04200
H 	H 	0.62090 0.72730 0.14150 0.04600
C 	C 	0.71450 0.70780 0.13700 -0.00400
H 	H 	0.72580 0.74260 0.10350 0.04000
C 	C 	0.75960 0.66980 0.16840 -0.09600
H 	H 	0.80300 0.68010 0.16400 0.08100
N 	N 	0.64300 0.44180 0.41120 -0.25400
N 	N 	0.70580 0.38370 0.32710 -0.24800
O 	O 	0.57420 0.40610 0.54880 -0.36200
O 	O 	0.60270 0.30300 0.53600 -0.19500
O 	O 	0.66980 0.23890 0.43990 -0.24700
O 	O 	0.72580 0.25480 0.32320 -0.52200
Zn	Zn	0.58470 0.49988 0.48101 1.19300
C 	C 	0.10360 0.86250 0.01110 0.26200
C 	C 	0.14200 0.88010 0.93860 -0.01400
C 	C 	0.18030 0.84390 0.88610 -0.04000
C 	C 	0.19200 0.77460 0.88350 0.32600
C 	C 	0.18260 0.94250 0.84430 0.12500
C 	C 	0.19900 0.99980 0.79590 -0.07500
C 	C 	0.26430 0.01580 0.78260 0.00200
H 	H 	0.29570 0.98860 0.80380 0.02500
C 	C 	0.28340 0.06940 0.74000 -0.10900
H 	H 	0.32690 0.07720 0.73140 0.07700
C 	C 	0.23870 0.11150 0.70990 0.05600
C 	C 	0.17310 0.09830 0.71990 0.00600
C 	C 	0.15270 0.03980 0.76500 -0.05800
H 	H 	0.10930 0.03050 0.77220 0.03900
C 	C 	0.12790 0.13900 0.68950 -0.05600
H 	H 	0.08430 0.12960 0.69200 0.05100
C 	C 	0.15070 0.19550 0.65430 -0.04700
H 	H 	0.12090 0.22730 0.64150 0.04800
C 	C 	0.21450 0.20780 0.63700 0.00100
H 	H 	0.22580 0.24260 0.60350 0.03800
C 	C 	0.25960 0.16980 0.66840 -0.10100
H 	H 	0.30300 0.18010 0.66400 0.08300
N 	N 	0.14300 0.94180 0.91120 -0.25400
N 	N 	0.20580 0.88370 0.82710 -0.24800
O 	O 	0.07420 0.90610 0.04880 -0.36300
O 	O 	0.10270 0.80300 0.03600 -0.19500
O 	O 	0.16980 0.73890 0.93990 -0.24700
O 	O 	0.22580 0.75480 0.82320 -0.52200
Zn	Zn	0.08470 0.99988 0.98101 1.19300
C 	C 	0.89640 0.63750 0.01110 0.26200
C 	C 	0.85800 0.61990 0.93860 -0.01300
C 	C 	0.81970 0.65610 0.88610 -0.04000
C 	C 	0.80800 0.72540 0.88350 0.32600
C 	C 	0.81740 0.55750 0.84430 0.12200
C 	C 	0.80100 0.50020 0.79590 -0.06700
C 	C 	0.73570 0.48420 0.78260 -0.00900
H 	H 	0.70430 0.51140 0.80380 0.02900
C 	C 	0.71660 0.43060 0.74000 -0.10100
H 	H 	0.67310 0.42280 0.73140 0.07400
C 	C 	0.76130 0.38850 0.70990 0.05000
C 	C 	0.82690 0.40170 0.71990 0.01200
C 	C 	0.84730 0.46020 0.76500 -0.06600
H 	H 	0.89070 0.46950 0.77220 0.04100
C 	C 	0.87210 0.36100 0.68950 -0.06200
H 	H 	0.91570 0.37040 0.69200 0.05200
C 	C 	0.84930 0.30450 0.65430 -0.04300
H 	H 	0.87910 0.27270 0.64150 0.04600
C 	C 	0.78550 0.29220 0.63700 -0.00400
H 	H 	0.77420 0.25740 0.60350 0.04000
C 	C 	0.74040 0.33020 0.66840 -0.09600
H 	H 	0.69700 0.31990 0.66400 0.08100
N 	N 	0.85700 0.55820 0.91120 -0.25400
N 	N 	0.79420 0.61630 0.82710 -0.24800
O 	O 	0.92580 0.59390 0.04880 -0.36200
O 	O 	0.89730 0.69700 0.03600 -0.19400
O 	O 	0.83020 0.76110 0.93990 -0.24700
O 	O 	0.77420 0.74520 0.82320 -0.52200
Zn	Zn	0.91530 0.50012 0.98101 1.19300
C 	C 	0.39640 0.13750 0.51110 0.26100
C 	C 	0.35800 0.11990 0.43860 -0.01300
C 	C 	0.31970 0.15610 0.38610 -0.04100
C 	C 	0.30800 0.22540 0.38350 0.32600
C 	C 	0.31740 0.05750 0.34430 0.12100
C 	C 	0.30100 0.00020 0.29590 -0.06200
C 	C 	0.23570 0.98420 0.28260 -0.01500
H 	H 	0.20430 0.01140 0.30380 0.03200
C 	C 	0.21660 0.93060 0.24000 -0.09700
H 	H 	0.17310 0.92280 0.23140 0.07200
C 	C 	0.26130 0.88850 0.20990 0.04700
C 	C 	0.32690 0.90170 0.21990 0.01500
C 	C 	0.34730 0.96020 0.26500 -0.06900
H 	H 	0.39070 0.96950 0.27220 0.04200
C 	C 	0.37210 0.86100 0.18950 -0.06400
H 	H 	0.41570 0.87040 0.19200 0.05300
C 	C 	0.34930 0.80450 0.15430 -0.04000
H 	H 	0.37910 0.77270 0.14150 0.04500
C 	C 	0.28550 0.79220 0.13700 -0.00700
H 	H 	0.27420 0.75740 0.10350 0.04100
C 	C 	0.24040 0.83020 0.16840 -0.09300
H 	H 	0.19700 0.81990 0.16400 0.08000
N 	N 	0.35700 0.05820 0.41120 -0.25300
N 	N 	0.29420 0.11630 0.32710 -0.24800
O 	O 	0.42580 0.09390 0.54880 -0.36200
O 	O 	0.39730 0.19700 0.53600 -0.19500
O 	O 	0.33020 0.26110 0.43990 -0.24700
O 	O 	0.27420 0.24520 0.32320 -0.52200
Zn	Zn	0.41530 0.00012 0.48101 1.19300
C 	C 	0.88750 0.35360 0.26110 0.26100
C 	C 	0.86990 0.39200 0.18860 -0.01300
C 	C 	0.90610 0.43030 0.13610 -0.04000
C 	C 	0.97540 0.44200 0.13350 0.32600
C 	C 	0.80750 0.43260 0.09430 0.12200
C 	C 	0.75020 0.44900 0.04590 -0.06600
C 	C 	0.73420 0.51430 0.03260 -0.00900
H 	H 	0.76140 0.54570 0.05380 0.02900
C 	C 	0.68060 0.53340 0.99000 -0.10100
H 	H 	0.67280 0.57690 0.98140 0.07400
C 	C 	0.63850 0.48870 0.95990 0.05000
C 	C 	0.65170 0.42310 0.96990 0.01200
C 	C 	0.71020 0.40270 0.01500 -0.06600
H 	H 	0.71950 0.35930 0.02220 0.04100
C 	C 	0.61100 0.37790 0.93950 -0.06200
H 	H 	0.62040 0.33430 0.94200 0.05200
C 	C 	0.55450 0.40070 0.90430 -0.04200
H 	H 	0.52270 0.37090 0.89150 0.04600
C 	C 	0.54220 0.46450 0.88700 -0.00400
H 	H 	0.50740 0.47580 0.85350 0.04000
C 	C 	0.58020 0.50960 0.91840 -0.09600
H 	H 	0.56990 0.55300 0.91400 0.08100
N 	N 	0.80820 0.39300 0.16120 -0.25400
N 	N 	0.86630 0.45580 0.07710 -0.24800
O 	O 	0.84390 0.32420 0.29880 -0.36200
O 	O 	0.94700 0.35270 0.28600 -0.19500
O 	O 	0.01110 0.41980 0.18990 -0.24700
O 	O 	0.99520 0.47580 0.07320 -0.52300
Zn	Zn	0.75012 0.33470 0.23101 1.19300
C 	C 	0.38750 0.85360 0.76110 0.26100
C 	C 	0.36990 0.89200 0.68860 -0.01300
C 	C 	0.40610 0.93030 0.63610 -0.04100
C 	C 	0.47540 0.94200 0.63350 0.32600
C 	C 	0.30750 0.93260 0.59430 0.12100
C 	C 	0.25020 0.94900 0.54590 -0.06400
C 	C 	0.23420 0.01430 0.53260 -0.01300
H 	H 	0.26140 0.04570 0.55380 0.03100
C 	C 	0.18060 0.03340 0.49000 -0.09200
H 	H 	0.17280 0.07690 0.48140 0.07100
C 	C 	0.13850 0.98870 0.45990 0.03900
C 	C 	0.15170 0.92310 0.46990 0.01900
C 	C 	0.21020 0.90270 0.51500 -0.07100
H 	H 	0.21950 0.85930 0.52220 0.04300
C 	C 	0.11100 0.87790 0.43950 -0.07100
H 	H 	0.12040 0.83430 0.44200 0.05500
C 	C 	0.05450 0.90070 0.40430 -0.03200
H 	H 	0.02270 0.87090 0.39150 0.04200
C 	C 	0.04220 0.96450 0.38700 -0.01900
H 	H 	0.00740 0.97580 0.35350 0.04400
C 	C 	0.08020 0.00960 0.41840 -0.08100
H 	H 	0.06990 0.05300 0.41400 0.07600
N 	N 	0.30820 0.89300 0.66120 -0.25400
N 	N 	0.36630 0.95580 0.57710 -0.24800
O 	O 	0.34390 0.82420 0.79880 -0.36200
O 	O 	0.44700 0.85270 0.78600 -0.19500
O 	O 	0.51110 0.91980 0.68990 -0.24700
O 	O 	0.49520 0.97580 0.57320 -0.52200
Zn	Zn	0.25012 0.83470 0.73101 1.19300
C 	C 	0.61250 0.64640 0.76110 0.26100
C 	C 	0.63010 0.60800 0.68860 -0.01300
C 	C 	0.59390 0.56970 0.63610 -0.04100
C 	C 	0.52460 0.55800 0.63350 0.32600
C 	C 	0.69250 0.56740 0.59430 0.12200
C 	C 	0.74980 0.55100 0.54590 -0.06700
C 	C 	0.76580 0.48570 0.53260 -0.00900
H 	H 	0.73860 0.45430 0.55380 0.02900
C 	C 	0.81940 0.46660 0.49000 -0.10100
H 	H 	0.82720 0.42310 0.48140 0.07300
C 	C 	0.86150 0.51130 0.45990 0.05000
C 	C 	0.84830 0.57690 0.46990 0.01200
C 	C 	0.78980 0.59730 0.51500 -0.06600
H 	H 	0.78050 0.64070 0.52220 0.04100
C 	C 	0.88900 0.62210 0.43950 -0.06200
H 	H 	0.87960 0.66570 0.44200 0.05200
C 	C 	0.94550 0.59930 0.40430 -0.04300
H 	H 	0.97730 0.62910 0.39150 0.04600
C 	C 	0.95780 0.53550 0.38700 -0.00400
H 	H 	0.99260 0.52420 0.35350 0.04000
C 	C 	0.91980 0.49040 0.41840 -0.09600
H 	H 	0.93010 0.44700 0.41400 0.08100
N 	N 	0.69180 0.60700 0.66120 -0.25400
N 	N 	0.63370 0.54420 0.57710 -0.24800
O 	O 	0.65610 0.67580 0.79880 -0.36200
O 	O 	0.55300 0.64730 0.78600 -0.19500
O 	O 	0.48890 0.58020 0.68990 -0.24700
O 	O 	0.50480 0.52420 0.57320 -0.52200
Zn	Zn	0.74988 0.66530 0.73101 1.19300
C 	C 	0.11250 0.14640 0.26110 0.26100
C 	C 	0.13010 0.10800 0.18860 -0.01300
C 	C 	0.09390 0.06970 0.13610 -0.04100
C 	C 	0.02460 0.05800 0.13350 0.32900
C 	C 	0.19250 0.06740 0.09430 0.12400
C 	C 	0.24980 0.05100 0.04590 -0.07000
C 	C 	0.26580 0.98570 0.03260 -0.00200
H 	H 	0.23860 0.95430 0.05380 0.02700
C 	C 	0.31940 0.96660 0.99000 -0.11100
H 	H 	0.32720 0.92310 0.98140 0.07700
C 	C 	0.36150 0.01130 0.95990 0.06100
C 	C 	0.34830 0.07690 0.96990 0.00500
C 	C 	0.28980 0.09730 0.01500 -0.06200
H 	H 	0.28050 0.14070 0.02220 0.04000
C 	C 	0.38900 0.12210 0.93950 -0.05400
H 	H 	0.37960 0.16570 0.94200 0.05000
C 	C 	0.44550 0.09930 0.90430 -0.05100
H 	H 	0.47730 0.12910 0.89150 0.04900
C 	C 	0.45780 0.03550 0.88700 0.00600
H 	H 	0.49260 0.02420 0.85350 0.03700
C 	C 	0.41980 0.99040 0.91840 -0.10700
H 	H 	0.43010 0.94700 0.91400 0.08500
N 	N 	0.19180 0.10700 0.16120 -0.25400
N 	N 	0.13370 0.04420 0.07710 -0.24800
O 	O 	0.15610 0.17580 0.29880 -0.36200
O 	O 	0.05300 0.14730 0.28600 -0.19400
O 	O 	0.98890 0.08020 0.18990 -0.24900
O 	O 	0.00480 0.02420 0.07320 -0.52200
Zn	Zn	0.24988 0.16530 0.23101 1.19300
