data_crystal

_cell_length_a 19.19990
_cell_length_b 19.19990
_cell_length_c 25.81500
_cell_angle_alpha 90.00000
_cell_angle_beta  90.00000
_cell_angle_gamma 90.00000

_symmetry_space_group_name_	'P 1'
_symmetry_space_group_name_H-M	'P 1'

loop_
_symmetry_equiv_pos_as_xyz
  x,y,z

loop_
_atom_site_label
_atom_site_type_symbol
_atom_site_fract_x
_atom_site_fract_y
_atom_site_fract_z
_atom_site_charge
Mn	Mn	0.27324 0.78719 0.98364 1.30100
Mn	Mn	0.38754 0.80931 0.09078 1.20800
O 	O 	0.15660 0.20760 0.40910 -0.50400
O 	O 	0.29550 0.87130 0.45120 -0.48900
O 	O 	0.20970 0.18790 0.48405 -0.46900
O 	O 	0.25700 0.90570 0.99115 -0.37500
O 	O 	0.29190 0.94240 0.51850 -0.51600
O 	O 	0.22000 0.20830 0.08813 -0.37500
O 	O 	0.28560 0.84330 0.05969 -0.55300
O 	O 	0.22370 0.15900 0.01150 -0.38100
C 	C 	0.26490 0.90050 0.03880 0.30900
C 	C 	0.24900 0.96200 0.07380 -0.09600
C 	C 	0.24180 0.02680 0.05230 0.00700
H 	H 	0.24540 0.03260 0.01670 0.05800
C 	C 	0.22930 0.08350 0.08380 -0.06500
C 	C 	0.22400 0.15400 0.05900 0.29200
C 	C 	0.22240 0.07450 0.13620 -0.03100
H 	H 	0.21340 0.11250 0.15760 0.05300
C 	C 	0.22900 0.00850 0.15730 -0.01200
C 	C 	0.24440 0.95230 0.12590 -0.02500
H 	H 	0.25150 0.90840 0.14010 0.02400
C 	C 	0.21970 0.99750 0.21240 0.04700
C 	C 	0.22960 0.04050 0.25340 -0.01700
H 	H 	0.24080 0.08760 0.25210 0.03400
C 	C 	0.19090 0.17090 0.43910 0.41600
C 	C 	0.20470 0.08420 0.36820 -0.03800
H 	H 	0.18530 0.11650 0.34550 0.05100
C 	C 	0.21300 0.10060 0.42080 -0.11400
C 	C 	0.22550 0.02040 0.35060 0.06200
C 	C 	0.25130 0.96980 0.38410 -0.03800
H 	H 	0.26410 0.92620 0.37150 0.06600
C 	C 	0.25790 0.98510 0.43650 -0.10900
C 	C 	0.23990 0.05170 0.45400 0.04800
H 	H 	0.24620 0.06300 0.48870 0.02700
C 	C 	0.28450 0.92790 0.47230 0.42500
N 	N 	0.19900 0.93620 0.28070 -0.05200
N 	N 	0.20080 0.93380 0.23150 -0.08600
N 	N 	0.22010 0.00210 0.29610 -0.09000
Mn	Mn	0.72676 0.21281 0.98364 1.30200
Mn	Mn	0.61246 0.19069 0.09078 1.20900
O 	O 	0.84340 0.79240 0.40910 -0.50300
O 	O 	0.70450 0.12870 0.45120 -0.48800
O 	O 	0.79030 0.81210 0.48405 -0.46800
O 	O 	0.74300 0.09430 0.99115 -0.37400
O 	O 	0.70810 0.05760 0.51850 -0.51500
O 	O 	0.78000 0.79170 0.08813 -0.37400
O 	O 	0.71440 0.15670 0.05969 -0.55300
O 	O 	0.77630 0.84100 0.01150 -0.38100
C 	C 	0.73510 0.09950 0.03880 0.30900
C 	C 	0.75100 0.03800 0.07380 -0.09600
C 	C 	0.75820 0.97320 0.05230 0.00700
H 	H 	0.75460 0.96740 0.01670 0.05800
C 	C 	0.77070 0.91650 0.08380 -0.06500
C 	C 	0.77600 0.84600 0.05900 0.29200
C 	C 	0.77760 0.92550 0.13620 -0.03100
H 	H 	0.78660 0.88750 0.15760 0.05300
C 	C 	0.77100 0.99150 0.15730 -0.01200
C 	C 	0.75560 0.04770 0.12590 -0.02500
H 	H 	0.74850 0.09160 0.14010 0.02400
C 	C 	0.78030 0.00250 0.21240 0.04700
C 	C 	0.77040 0.95950 0.25340 -0.01700
H 	H 	0.75920 0.91240 0.25210 0.03400
C 	C 	0.80910 0.82910 0.43910 0.41600
C 	C 	0.79530 0.91580 0.36820 -0.03800
H 	H 	0.81470 0.88350 0.34550 0.05100
C 	C 	0.78700 0.89940 0.42080 -0.11400
C 	C 	0.77450 0.97960 0.35060 0.06200
C 	C 	0.74870 0.03020 0.38410 -0.03800
H 	H 	0.73590 0.07380 0.37150 0.06600
C 	C 	0.74210 0.01490 0.43650 -0.10900
C 	C 	0.76010 0.94830 0.45400 0.04800
H 	H 	0.75380 0.93700 0.48870 0.02700
C 	C 	0.71550 0.07210 0.47230 0.42500
N 	N 	0.80100 0.06380 0.28070 -0.05200
N 	N 	0.79920 0.06620 0.23150 -0.08600
N 	N 	0.77990 0.99790 0.29610 -0.09000
Mn	Mn	0.78719 0.72676 0.01636 1.30200
Mn	Mn	0.80931 0.61246 0.90922 1.20900
O 	O 	0.20760 0.84340 0.59090 -0.50300
O 	O 	0.87130 0.70450 0.54880 -0.48800
O 	O 	0.18790 0.79030 0.51595 -0.46800
O 	O 	0.90570 0.74300 0.00885 -0.37400
O 	O 	0.94240 0.70810 0.48150 -0.51500
O 	O 	0.20830 0.78000 0.91187 -0.37400
O 	O 	0.84330 0.71440 0.94031 -0.55300
O 	O 	0.15900 0.77630 0.98850 -0.38100
C 	C 	0.90050 0.73510 0.96120 0.30900
C 	C 	0.96200 0.75100 0.92620 -0.09600
C 	C 	0.02680 0.75820 0.94770 0.00700
H 	H 	0.03260 0.75460 0.98330 0.05800
C 	C 	0.08350 0.77070 0.91620 -0.06500
C 	C 	0.15400 0.77600 0.94100 0.29200
C 	C 	0.07450 0.77760 0.86380 -0.03100
H 	H 	0.11250 0.78660 0.84240 0.05300
C 	C 	0.00850 0.77100 0.84270 -0.01200
C 	C 	0.95230 0.75560 0.87410 -0.02500
H 	H 	0.90840 0.74850 0.85990 0.02400
C 	C 	0.99750 0.78030 0.78760 0.04700
C 	C 	0.04050 0.77040 0.74660 -0.01700
H 	H 	0.08760 0.75920 0.74790 0.03400
C 	C 	0.17090 0.80910 0.56090 0.41600
C 	C 	0.08420 0.79530 0.63180 -0.03800
H 	H 	0.11650 0.81470 0.65450 0.05100
C 	C 	0.10060 0.78700 0.57920 -0.11400
C 	C 	0.02040 0.77450 0.64940 0.06200
C 	C 	0.96980 0.74870 0.61590 -0.03800
H 	H 	0.92620 0.73590 0.62850 0.06600
C 	C 	0.98510 0.74210 0.56350 -0.10900
C 	C 	0.05170 0.76010 0.54600 0.04800
H 	H 	0.06300 0.75380 0.51130 0.02700
C 	C 	0.92790 0.71550 0.52770 0.42500
N 	N 	0.93620 0.80100 0.71930 -0.05200
N 	N 	0.93380 0.79920 0.76850 -0.08600
N 	N 	0.00210 0.77990 0.70390 -0.09000
Mn	Mn	0.21281 0.27324 0.01636 1.30200
Mn	Mn	0.19069 0.38754 0.90922 1.20900
O 	O 	0.79240 0.15660 0.59090 -0.50300
O 	O 	0.12870 0.29550 0.54880 -0.48800
O 	O 	0.81210 0.20970 0.51595 -0.46800
O 	O 	0.09430 0.25700 0.00885 -0.37400
O 	O 	0.05760 0.29190 0.48150 -0.51500
O 	O 	0.79170 0.22000 0.91187 -0.37400
O 	O 	0.15670 0.28560 0.94031 -0.55300
O 	O 	0.84100 0.22370 0.98850 -0.38100
C 	C 	0.09950 0.26490 0.96120 0.30900
C 	C 	0.03800 0.24900 0.92620 -0.09600
C 	C 	0.97320 0.24180 0.94770 0.00700
H 	H 	0.96740 0.24540 0.98330 0.05800
C 	C 	0.91650 0.22930 0.91620 -0.06500
C 	C 	0.84600 0.22400 0.94100 0.29200
C 	C 	0.92550 0.22240 0.86380 -0.03100
H 	H 	0.88750 0.21340 0.84240 0.05300
C 	C 	0.99150 0.22900 0.84270 -0.01200
C 	C 	0.04770 0.24440 0.87410 -0.02500
H 	H 	0.09160 0.25150 0.85990 0.02400
C 	C 	0.00250 0.21970 0.78760 0.04700
C 	C 	0.95950 0.22960 0.74660 -0.01700
H 	H 	0.91240 0.24080 0.74790 0.03400
C 	C 	0.82910 0.19090 0.56090 0.41600
C 	C 	0.91580 0.20470 0.63180 -0.03800
H 	H 	0.88350 0.18530 0.65450 0.05100
C 	C 	0.89940 0.21300 0.57920 -0.11400
C 	C 	0.97960 0.22550 0.64940 0.06200
C 	C 	0.03020 0.25130 0.61590 -0.03800
H 	H 	0.07380 0.26410 0.62850 0.06600
C 	C 	0.01490 0.25790 0.56350 -0.10900
C 	C 	0.94830 0.23990 0.54600 0.04800
H 	H 	0.93700 0.24620 0.51130 0.02700
C 	C 	0.07210 0.28450 0.52770 0.42500
N 	N 	0.06380 0.19900 0.71930 -0.05200
N 	N 	0.06620 0.20080 0.76850 -0.08600
N 	N 	0.99790 0.22010 0.70390 -0.09000
Mn	Mn	0.22676 0.28719 0.51636 1.30200
Mn	Mn	0.11246 0.30931 0.40922 1.20900
O 	O 	0.34340 0.70760 0.09090 -0.50300
O 	O 	0.20450 0.37130 0.04880 -0.48800
O 	O 	0.29030 0.68790 0.01595 -0.46800
O 	O 	0.24300 0.40570 0.50885 -0.37400
O 	O 	0.20810 0.44240 0.98150 -0.51500
O 	O 	0.28000 0.70830 0.41187 -0.37400
O 	O 	0.21440 0.34330 0.44031 -0.55300
O 	O 	0.27630 0.65900 0.48850 -0.38100
C 	C 	0.23510 0.40050 0.46120 0.30900
C 	C 	0.25100 0.46200 0.42620 -0.09600
C 	C 	0.25820 0.52680 0.44770 0.00700
H 	H 	0.25460 0.53260 0.48330 0.05800
C 	C 	0.27070 0.58350 0.41620 -0.06500
C 	C 	0.27600 0.65400 0.44100 0.29200
C 	C 	0.27760 0.57450 0.36380 -0.03100
H 	H 	0.28660 0.61250 0.34240 0.05300
C 	C 	0.27100 0.50850 0.34270 -0.01200
C 	C 	0.25560 0.45230 0.37410 -0.02500
H 	H 	0.24850 0.40840 0.35990 0.02400
C 	C 	0.28030 0.49750 0.28760 0.04700
C 	C 	0.27040 0.54050 0.24660 -0.01700
H 	H 	0.25920 0.58760 0.24790 0.03400
C 	C 	0.30910 0.67090 0.06090 0.41600
C 	C 	0.29530 0.58420 0.13180 -0.03800
H 	H 	0.31470 0.61650 0.15450 0.05100
C 	C 	0.28700 0.60060 0.07920 -0.11400
C 	C 	0.27450 0.52040 0.14940 0.06200
C 	C 	0.24870 0.46980 0.11590 -0.03800
H 	H 	0.23590 0.42620 0.12850 0.06600
C 	C 	0.24210 0.48510 0.06350 -0.10900
C 	C 	0.26010 0.55170 0.04600 0.04800
H 	H 	0.25380 0.56300 0.01130 0.02700
C 	C 	0.21550 0.42790 0.02770 0.42500
N 	N 	0.30100 0.43620 0.21930 -0.05200
N 	N 	0.29920 0.43380 0.26850 -0.08600
N 	N 	0.27990 0.50210 0.20390 -0.09000
Mn	Mn	0.77324 0.71281 0.51636 1.30200
Mn	Mn	0.88754 0.69069 0.40922 1.20900
O 	O 	0.65660 0.29240 0.09090 -0.50300
O 	O 	0.79550 0.62870 0.04880 -0.48800
O 	O 	0.70970 0.31210 0.01595 -0.46800
O 	O 	0.75700 0.59430 0.50885 -0.37400
O 	O 	0.79190 0.55760 0.98150 -0.51500
O 	O 	0.72000 0.29170 0.41187 -0.37400
O 	O 	0.78560 0.65670 0.44031 -0.55300
O 	O 	0.72370 0.34100 0.48850 -0.38100
C 	C 	0.76490 0.59950 0.46120 0.30900
C 	C 	0.74900 0.53800 0.42620 -0.09600
C 	C 	0.74180 0.47320 0.44770 0.00700
H 	H 	0.74540 0.46740 0.48330 0.05800
C 	C 	0.72930 0.41650 0.41620 -0.06500
C 	C 	0.72400 0.34600 0.44100 0.29200
C 	C 	0.72240 0.42550 0.36380 -0.03100
H 	H 	0.71340 0.38750 0.34240 0.05300
C 	C 	0.72900 0.49150 0.34270 -0.01200
C 	C 	0.74440 0.54770 0.37410 -0.02500
H 	H 	0.75150 0.59160 0.35990 0.02400
C 	C 	0.71970 0.50250 0.28760 0.04700
C 	C 	0.72960 0.45950 0.24660 -0.01700
H 	H 	0.74080 0.41240 0.24790 0.03400
C 	C 	0.69090 0.32910 0.06090 0.41600
C 	C 	0.70470 0.41580 0.13180 -0.03800
H 	H 	0.68530 0.38350 0.15450 0.05100
C 	C 	0.71300 0.39940 0.07920 -0.11400
C 	C 	0.72550 0.47960 0.14940 0.06200
C 	C 	0.75130 0.53020 0.11590 -0.03800
H 	H 	0.76410 0.57380 0.12850 0.06600
C 	C 	0.75790 0.51490 0.06350 -0.10900
C 	C 	0.73990 0.44830 0.04600 0.04800
H 	H 	0.74620 0.43700 0.01130 0.02700
C 	C 	0.78450 0.57210 0.02770 0.42500
N 	N 	0.69900 0.56380 0.21930 -0.05200
N 	N 	0.70080 0.56620 0.26850 -0.08600
N 	N 	0.72010 0.49790 0.20390 -0.09000
Mn	Mn	0.71281 0.22676 0.48364 1.30200
Mn	Mn	0.69069 0.11246 0.59078 1.20900
O 	O 	0.29240 0.34340 0.90910 -0.50300
O 	O 	0.62870 0.20450 0.95120 -0.48800
O 	O 	0.31210 0.29030 0.98405 -0.46800
O 	O 	0.59430 0.24300 0.49115 -0.37400
O 	O 	0.55760 0.20810 0.01850 -0.51500
O 	O 	0.29170 0.28000 0.58813 -0.37400
O 	O 	0.65670 0.21440 0.55969 -0.55300
O 	O 	0.34100 0.27630 0.51150 -0.38100
C 	C 	0.59950 0.23510 0.53880 0.30900
C 	C 	0.53800 0.25100 0.57380 -0.09600
C 	C 	0.47320 0.25820 0.55230 0.00700
H 	H 	0.46740 0.25460 0.51670 0.05800
C 	C 	0.41650 0.27070 0.58380 -0.06500
C 	C 	0.34600 0.27600 0.55900 0.29200
C 	C 	0.42550 0.27760 0.63620 -0.03100
H 	H 	0.38750 0.28660 0.65760 0.05300
C 	C 	0.49150 0.27100 0.65730 -0.01200
C 	C 	0.54770 0.25560 0.62590 -0.02500
H 	H 	0.59160 0.24850 0.64010 0.02400
C 	C 	0.50250 0.28030 0.71240 0.04700
C 	C 	0.45950 0.27040 0.75340 -0.01700
H 	H 	0.41240 0.25920 0.75210 0.03400
C 	C 	0.32910 0.30910 0.93910 0.41600
C 	C 	0.41580 0.29530 0.86820 -0.03800
H 	H 	0.38350 0.31470 0.84550 0.05100
C 	C 	0.39940 0.28700 0.92080 -0.11400
C 	C 	0.47960 0.27450 0.85060 0.06200
C 	C 	0.53020 0.24870 0.88410 -0.03800
H 	H 	0.57380 0.23590 0.87150 0.06600
C 	C 	0.51490 0.24210 0.93650 -0.10900
C 	C 	0.44830 0.26010 0.95400 0.04800
H 	H 	0.43700 0.25380 0.98870 0.02700
C 	C 	0.57210 0.21550 0.97230 0.42500
N 	N 	0.56380 0.30100 0.78070 -0.05200
N 	N 	0.56620 0.29920 0.73150 -0.08600
N 	N 	0.49790 0.27990 0.79610 -0.09000
Mn	Mn	0.28719 0.77324 0.48364 1.30200
Mn	Mn	0.30931 0.88754 0.59078 1.20900
O 	O 	0.70760 0.65660 0.90910 -0.50300
O 	O 	0.37130 0.79550 0.95120 -0.48800
O 	O 	0.68790 0.70970 0.98405 -0.46800
O 	O 	0.40570 0.75700 0.49115 -0.37400
O 	O 	0.44240 0.79190 0.01850 -0.51500
O 	O 	0.70830 0.72000 0.58813 -0.37400
O 	O 	0.34330 0.78560 0.55969 -0.55300
O 	O 	0.65900 0.72370 0.51150 -0.38100
C 	C 	0.40050 0.76490 0.53880 0.30900
C 	C 	0.46200 0.74900 0.57380 -0.09600
C 	C 	0.52680 0.74180 0.55230 0.00700
H 	H 	0.53260 0.74540 0.51670 0.05800
C 	C 	0.58350 0.72930 0.58380 -0.06500
C 	C 	0.65400 0.72400 0.55900 0.29200
C 	C 	0.57450 0.72240 0.63620 -0.03100
H 	H 	0.61250 0.71340 0.65760 0.05300
C 	C 	0.50850 0.72900 0.65730 -0.01200
C 	C 	0.45230 0.74440 0.62590 -0.02500
H 	H 	0.40840 0.75150 0.64010 0.02400
C 	C 	0.49750 0.71970 0.71240 0.04700
C 	C 	0.54050 0.72960 0.75340 -0.01700
H 	H 	0.58760 0.74080 0.75210 0.03400
C 	C 	0.67090 0.69090 0.93910 0.41600
C 	C 	0.58420 0.70470 0.86820 -0.03800
H 	H 	0.61650 0.68530 0.84550 0.05100
C 	C 	0.60060 0.71300 0.92080 -0.11400
C 	C 	0.52040 0.72550 0.85060 0.06200
C 	C 	0.46980 0.75130 0.88410 -0.03800
H 	H 	0.42620 0.76410 0.87150 0.06600
C 	C 	0.48510 0.75790 0.93650 -0.10900
C 	C 	0.55170 0.73990 0.95400 0.04800
H 	H 	0.56300 0.74620 0.98870 0.02700
C 	C 	0.42790 0.78450 0.97230 0.42500
N 	N 	0.43620 0.69900 0.78070 -0.05200
N 	N 	0.43380 0.70080 0.73150 -0.08600
N 	N 	0.50210 0.72010 0.79610 -0.09000
