data_crystal

_cell_length_a 10.21300
_cell_length_b 17.60700
_cell_length_c 28.12300
_cell_angle_alpha 90.00000
_cell_angle_beta  98.60000
_cell_angle_gamma 90.00000

_symmetry_space_group_name_	'P 1'
_symmetry_space_group_name_H-M	'P 1'

loop_
_symmetry_equiv_pos_as_xyz
  x,y,z

loop_
_atom_site_label
_atom_site_type_symbol
_atom_site_fract_x
_atom_site_fract_y
_atom_site_fract_z
_atom_site_charge
Co	Co	0.20943 0.62384 0.16944 1.18700
Co	Co	0.00826 0.54941 0.25564 1.09900
O 	O 	0.66920 0.34560 0.87725 -0.39400
O 	O 	0.54260 0.38440 0.81130 -0.32700
O 	O 	0.21120 0.51261 0.16813 -0.46200
O 	O 	0.11920 0.46510 0.22943 -0.47500
O 	O 	0.27650 0.19990 0.27846 -0.45100
O 	O 	0.34110 0.12400 0.22294 -0.48400
O 	O 	0.05460 0.39390 0.80726 -0.51100
O 	O 	0.96610 0.35310 0.86943 -0.43800
C 	C 	0.17980 0.45930 0.19412 0.39100
C 	C 	0.22260 0.38110 0.18045 -0.09000
C 	C 	0.23390 0.32150 0.21291 0.02600
H 	H 	0.20890 0.32850 0.24310 0.03900
C 	C 	0.28230 0.25110 0.20096 -0.09200
C 	C 	0.31730 0.23980 0.15513 -0.05000
H 	H 	0.34980 0.19310 0.14680 0.05300
C 	C 	0.30300 0.29890 0.12244 0.07000
C 	C 	0.25540 0.36970 0.13505 -0.04800
H 	H 	0.24580 0.40910 0.11280 0.06700
C 	C 	0.28420 0.32010 0.03333 -0.01700
H 	H 	0.20920 0.35060 0.02860 0.04400
C 	C 	0.34130 0.31780 0.94901 -0.01700
C 	C 	0.55660 0.36090 0.85317 0.30800
C 	C 	0.43690 0.34900 0.87759 -0.07900
C 	C 	0.30980 0.36270 0.85309 0.03300
H 	H 	0.29870 0.37840 0.82120 0.02300
C 	C 	0.45240 0.32690 0.92592 -0.01600
H 	H 	0.53670 0.31820 0.94270 0.06200
C 	C 	0.30180 0.18640 0.23687 0.37900
C 	C 	0.06390 0.36900 0.84860 0.40100
C 	C 	0.20020 0.35310 0.87613 -0.11500
C 	C 	0.21540 0.33070 0.92352 -0.00100
H 	H 	0.14120 0.32410 0.93860 0.04800
C 	C 	0.35630 0.29780 0.99929 0.06300
N 	N 	0.34020 0.29020 0.07474 -0.08800
N 	N 	0.44840 0.25150 0.06710 -0.05200
N 	N 	0.45830 0.25720 0.02130 -0.08400
Co	Co	0.29057 0.12384 0.33056 1.18600
Co	Co	0.49174 0.04941 0.24436 1.09900
O 	O 	0.83080 0.84560 0.62275 -0.39400
O 	O 	0.95740 0.88440 0.68870 -0.32800
O 	O 	0.28880 0.01261 0.33187 -0.46200
O 	O 	0.38080 0.96510 0.27057 -0.47500
O 	O 	0.22350 0.69990 0.22154 -0.45100
O 	O 	0.15890 0.62400 0.27706 -0.48400
O 	O 	0.44540 0.89390 0.69274 -0.51100
O 	O 	0.53390 0.85310 0.63057 -0.43700
C 	C 	0.32020 0.95930 0.30588 0.39100
C 	C 	0.27740 0.88110 0.31955 -0.09000
C 	C 	0.26610 0.82150 0.28709 0.02500
H 	H 	0.29110 0.82850 0.25690 0.03900
C 	C 	0.21770 0.75110 0.29904 -0.09200
C 	C 	0.18270 0.73980 0.34487 -0.05000
H 	H 	0.15020 0.69310 0.35320 0.05300
C 	C 	0.19700 0.79890 0.37756 0.07000
C 	C 	0.24460 0.86970 0.36495 -0.04800
H 	H 	0.25420 0.90910 0.38720 0.06700
C 	C 	0.21580 0.82010 0.46667 -0.01600
H 	H 	0.29080 0.85060 0.47140 0.04400
C 	C 	0.15870 0.81780 0.55099 -0.01700
C 	C 	0.94340 0.86090 0.64683 0.30700
C 	C 	0.06310 0.84900 0.62241 -0.07900
C 	C 	0.19020 0.86270 0.64691 0.03300
H 	H 	0.20130 0.87840 0.67880 0.02300
C 	C 	0.04760 0.82690 0.57408 -0.01600
H 	H 	0.96330 0.81820 0.55730 0.06200
C 	C 	0.19820 0.68640 0.26313 0.37900
C 	C 	0.43610 0.86900 0.65140 0.40100
C 	C 	0.29980 0.85310 0.62387 -0.11500
C 	C 	0.28460 0.83070 0.57648 -0.00100
H 	H 	0.35880 0.82410 0.56140 0.04800
C 	C 	0.14370 0.79780 0.50071 0.06300
N 	N 	0.15980 0.79020 0.42526 -0.08800
N 	N 	0.05160 0.75150 0.43290 -0.05200
N 	N 	0.04170 0.75720 0.47870 -0.08400
Co	Co	0.79057 0.37616 0.83056 1.18600
Co	Co	0.99174 0.45059 0.74436 1.09800
O 	O 	0.33080 0.65440 0.12275 -0.39500
O 	O 	0.45740 0.61560 0.18870 -0.32800
O 	O 	0.78880 0.48739 0.83187 -0.46200
O 	O 	0.88080 0.53490 0.77057 -0.47500
O 	O 	0.72350 0.80010 0.72154 -0.45100
O 	O 	0.65890 0.87600 0.77706 -0.48400
O 	O 	0.94540 0.60610 0.19274 -0.51100
O 	O 	0.03390 0.64690 0.13057 -0.43800
C 	C 	0.82020 0.54070 0.80588 0.39100
C 	C 	0.77740 0.61890 0.81955 -0.09000
C 	C 	0.76610 0.67850 0.78709 0.02600
H 	H 	0.79110 0.67150 0.75690 0.03900
C 	C 	0.71770 0.74890 0.79904 -0.09200
C 	C 	0.68270 0.76020 0.84487 -0.05000
H 	H 	0.65020 0.80690 0.85320 0.05300
C 	C 	0.69700 0.70110 0.87756 0.07000
C 	C 	0.74460 0.63030 0.86495 -0.04800
H 	H 	0.75420 0.59090 0.88720 0.06700
C 	C 	0.71580 0.67990 0.96667 -0.01700
H 	H 	0.79080 0.64940 0.97140 0.04400
C 	C 	0.65870 0.68220 0.05099 -0.01700
C 	C 	0.44340 0.63910 0.14683 0.30800
C 	C 	0.56310 0.65100 0.12241 -0.07900
C 	C 	0.69020 0.63730 0.14691 0.03300
H 	H 	0.70130 0.62160 0.17880 0.02300
C 	C 	0.54760 0.67310 0.07408 -0.01600
H 	H 	0.46330 0.68180 0.05730 0.06200
C 	C 	0.69820 0.81360 0.76313 0.37900
C 	C 	0.93610 0.63100 0.15140 0.40100
C 	C 	0.79980 0.64690 0.12387 -0.11500
C 	C 	0.78460 0.66930 0.07648 -0.00100
H 	H 	0.85880 0.67590 0.06140 0.04800
C 	C 	0.64370 0.70220 0.00071 0.06300
N 	N 	0.65980 0.70980 0.92526 -0.08800
N 	N 	0.55160 0.74850 0.93290 -0.05200
N 	N 	0.54170 0.74280 0.97870 -0.08400
Co	Co	0.70943 0.87616 0.66944 1.18600
Co	Co	0.50826 0.95059 0.75564 1.09900
O 	O 	0.16920 0.15440 0.37725 -0.39400
O 	O 	0.04260 0.11560 0.31130 -0.32800
O 	O 	0.71120 0.98739 0.66813 -0.46200
O 	O 	0.61920 0.03490 0.72943 -0.47500
O 	O 	0.77650 0.30010 0.77846 -0.45100
O 	O 	0.84110 0.37600 0.72294 -0.48400
O 	O 	0.55460 0.10610 0.30726 -0.51100
O 	O 	0.46610 0.14690 0.36943 -0.43700
C 	C 	0.67980 0.04070 0.69412 0.39100
C 	C 	0.72260 0.11890 0.68045 -0.09000
C 	C 	0.73390 0.17850 0.71291 0.02500
H 	H 	0.70890 0.17150 0.74310 0.03900
C 	C 	0.78230 0.24890 0.70096 -0.09200
C 	C 	0.81730 0.26020 0.65513 -0.05000
H 	H 	0.84980 0.30690 0.64680 0.05300
C 	C 	0.80300 0.20110 0.62244 0.07000
C 	C 	0.75540 0.13030 0.63505 -0.04800
H 	H 	0.74580 0.09090 0.61280 0.06700
C 	C 	0.78420 0.17990 0.53333 -0.01600
H 	H 	0.70920 0.14940 0.52860 0.04400
C 	C 	0.84130 0.18220 0.44901 -0.01700
C 	C 	0.05660 0.13910 0.35317 0.30700
C 	C 	0.93690 0.15100 0.37759 -0.07900
C 	C 	0.80980 0.13730 0.35309 0.03300
H 	H 	0.79870 0.12160 0.32120 0.02300
C 	C 	0.95240 0.17310 0.42592 -0.01600
H 	H 	0.03670 0.18180 0.44270 0.06200
C 	C 	0.80180 0.31360 0.73687 0.37900
C 	C 	0.56390 0.13100 0.34860 0.40100
C 	C 	0.70020 0.14690 0.37613 -0.11500
C 	C 	0.71540 0.16930 0.42352 -0.00100
H 	H 	0.64120 0.17590 0.43860 0.04800
C 	C 	0.85630 0.20220 0.49929 0.06300
N 	N 	0.84020 0.20980 0.57474 -0.08800
N 	N 	0.94840 0.24850 0.56710 -0.05200
N 	N 	0.95830 0.24280 0.52130 -0.08400
