data_crystal

_cell_length_a 18.05700
_cell_length_b 18.05700
_cell_length_c 13.44950
_cell_angle_alpha 90.00000
_cell_angle_beta  90.00000
_cell_angle_gamma 90.00000

_symmetry_space_group_name_	'P 1'
_symmetry_space_group_name_H-M	'P 1'

loop_
_symmetry_equiv_pos_as_xyz
  x,y,z

loop_
_atom_site_label
_atom_site_type_symbol
_atom_site_fract_x
_atom_site_fract_y
_atom_site_fract_z
_atom_site_charge
C 	C 	0.14420 0.16290 0.52490 0.76700
O 	O 	0.25527 0.23307 0.85267 -0.40300
C 	C 	0.92949 0.22031 0.73015 0.35700
O 	O 	0.88760 0.19548 0.66253 -0.44800
C 	C 	0.18675 0.24656 0.86290 0.34500
C 	C 	0.13528 0.22584 0.78173 -0.14200
C 	C 	0.05928 0.23503 0.79313 0.10900
H 	H 	0.04040 0.25460 0.85180 0.06000
O 	O 	0.16414 0.27841 0.93897 -0.37700
O 	O 	0.90231 0.24840 0.80605 -0.39300
C 	C 	0.16340 0.21920 0.68410 0.86800
C 	C 	0.11740 0.20090 0.60650 -0.60300
C 	C 	0.04030 0.20210 0.61740 -0.77600
C 	C 	0.01188 0.21490 0.71686 -0.17300
C 	C 	0.14580 0.11490 0.54240 -0.40100
C 	C 	0.16350 0.17930 0.70320 -0.71400
C 	C 	0.03730 0.17210 0.63900 0.93000
C 	C 	0.11390 0.15750 0.62890 0.40000
O 	O 	0.11490 0.14580 0.45760 -0.35500
C 	C 	0.85580 0.83710 0.02490 1.64600
O 	O 	0.74473 0.76693 0.35267 -0.43900
C 	C 	0.07051 0.77969 0.23015 0.39200
O 	O 	0.11240 0.80452 0.16253 -0.47900
C 	C 	0.81325 0.75344 0.36290 0.37900
C 	C 	0.86472 0.77416 0.28173 -0.24200
C 	C 	0.94072 0.76497 0.29313 0.19800
H 	H 	0.95960 0.74540 0.35180 0.01700
O 	O 	0.83586 0.72159 0.43897 -0.43200
O 	O 	0.09769 0.75160 0.30605 -0.41700
C 	C 	0.83660 0.78080 0.18410 2.01900
C 	C 	0.88260 0.79910 0.10650 -1.39900
C 	C 	0.95970 0.79790 0.11740 -1.88000
C 	C 	0.98812 0.78510 0.21686 -0.29800
C 	C 	0.85420 0.88510 0.04240 -0.92400
C 	C 	0.83650 0.82070 0.20320 -1.78500
C 	C 	0.96270 0.82790 0.13900 2.08900
C 	C 	0.88610 0.84250 0.12890 0.95200
O 	O 	0.88510 0.85420 0.95760 -0.13200
C 	C 	0.33710 0.64420 0.77490 0.72500
O 	O 	0.26693 0.75527 0.10267 -0.45700
C 	C 	0.27969 0.42949 0.98015 0.45600
O 	O 	0.30452 0.38760 0.91253 -0.44800
C 	C 	0.25344 0.68675 0.11290 0.36700
C 	C 	0.27416 0.63528 0.03173 -0.23800
C 	C 	0.26497 0.55928 0.04313 0.01800
H 	H 	0.24540 0.54040 0.10180 0.06400
O 	O 	0.22159 0.66414 0.18897 -0.42900
O 	O 	0.25160 0.40231 0.05605 -0.50000
C 	C 	0.28080 0.66340 0.93410 0.94000
C 	C 	0.29910 0.61740 0.85650 -0.59100
C 	C 	0.29790 0.54030 0.86740 -0.78000
C 	C 	0.28510 0.51188 0.96686 -0.10100
C 	C 	0.38510 0.64580 0.79240 -0.37500
C 	C 	0.32070 0.66350 0.95320 -0.68000
C 	C 	0.32790 0.53730 0.88900 0.93400
C 	C 	0.34250 0.61390 0.87890 0.39300
O 	O 	0.35420 0.61490 0.70760 -0.35500
C 	C 	0.66290 0.35580 0.27490 0.71700
O 	O 	0.73307 0.24473 0.60267 -0.42700
C 	C 	0.72031 0.57051 0.48015 0.35500
O 	O 	0.69548 0.61240 0.41253 -0.45900
C 	C 	0.74656 0.31325 0.61290 0.34700
C 	C 	0.72584 0.36472 0.53173 -0.14800
C 	C 	0.73503 0.44072 0.54313 0.10600
H 	H 	0.75460 0.45960 0.60180 0.05200
O 	O 	0.77841 0.33586 0.68897 -0.41400
O 	O 	0.74840 0.59769 0.55605 -0.40400
C 	C 	0.71920 0.33660 0.43410 0.86300
C 	C 	0.70090 0.38260 0.35650 -0.58700
C 	C 	0.70210 0.45970 0.36740 -0.77400
C 	C 	0.71490 0.48812 0.46686 -0.17600
C 	C 	0.61490 0.35420 0.29240 -0.40000
C 	C 	0.67930 0.33650 0.45320 -0.72300
C 	C 	0.67210 0.46270 0.38900 0.91400
C 	C 	0.65750 0.38610 0.37890 0.39900
O 	O 	0.64580 0.38510 0.20760 -0.37400
C 	C 	0.35580 0.66290 0.72510 -0.02100
O 	O 	0.24473 0.73307 0.39733 -0.41900
C 	C 	0.57051 0.72031 0.51985 0.33200
O 	O 	0.61240 0.69548 0.58747 -0.43000
C 	C 	0.31325 0.74656 0.38710 0.33000
C 	C 	0.36472 0.72584 0.46827 -0.09500
C 	C 	0.44072 0.73503 0.45687 0.04800
H 	H 	0.45960 0.75460 0.39820 0.06100
O 	O 	0.33586 0.77841 0.31103 -0.42200
O 	O 	0.59769 0.74840 0.44395 -0.40800
C 	C 	0.33660 0.71920 0.56590 0.32600
C 	C 	0.38260 0.70090 0.64350 -0.13300
C 	C 	0.45970 0.70210 0.63260 -0.33500
C 	C 	0.48812 0.71490 0.53314 -0.11000
C 	C 	0.33650 0.67930 0.54680 -0.26300
C 	C 	0.46270 0.67210 0.61100 0.41400
C 	C 	0.38610 0.65750 0.62110 0.23600
C 	C 	0.64420 0.33710 0.22510 -0.00500
O 	O 	0.75527 0.26693 0.89733 -0.38800
C 	C 	0.42949 0.27969 0.01985 0.23200
O 	O 	0.38760 0.30452 0.08747 -0.43400
C 	C 	0.68675 0.25344 0.88710 0.31200
C 	C 	0.63528 0.27416 0.96827 -0.00600
C 	C 	0.55928 0.26497 0.95687 0.13900
H 	H 	0.54040 0.24540 0.89820 0.04900
O 	O 	0.66414 0.22159 0.81103 -0.40600
O 	O 	0.40231 0.25160 0.94395 -0.30600
C 	C 	0.66340 0.28080 0.06590 0.26500
C 	C 	0.61740 0.29910 0.14350 -0.14000
C 	C 	0.54030 0.29790 0.13260 -0.33800
C 	C 	0.51188 0.28510 0.03314 -0.18700
C 	C 	0.66350 0.32070 0.04680 -0.31800
C 	C 	0.53730 0.32790 0.11100 0.40700
C 	C 	0.61390 0.34250 0.12110 0.24000
C 	C 	0.16290 0.14420 0.47510 -0.05800
O 	O 	0.23307 0.25527 0.14733 -0.43800
C 	C 	0.22031 0.92949 0.26985 0.33100
O 	O 	0.19548 0.88760 0.33747 -0.44200
C 	C 	0.24656 0.18675 0.13710 0.33100
C 	C 	0.22584 0.13528 0.21827 -0.10300
C 	C 	0.23503 0.05928 0.20687 0.04700
H 	H 	0.25460 0.04040 0.14820 0.05200
O 	O 	0.27841 0.16414 0.06103 -0.45400
O 	O 	0.24840 0.90231 0.19395 -0.41900
C 	C 	0.21920 0.16340 0.31590 0.32100
C 	C 	0.20090 0.11740 0.39350 -0.12000
C 	C 	0.20210 0.04030 0.38260 -0.33600
C 	C 	0.21490 0.01188 0.28314 -0.11700
C 	C 	0.17930 0.16350 0.29680 -0.27000
C 	C 	0.17210 0.03730 0.36100 0.40300
C 	C 	0.15750 0.11390 0.37110 0.23200
C 	C 	0.83710 0.85580 0.97510 -0.68400
O 	O 	0.76693 0.74473 0.64733 -0.40700
C 	C 	0.77969 0.07051 0.76985 0.30900
O 	O 	0.80452 0.11240 0.83747 -0.41000
C 	C 	0.75344 0.81325 0.63710 0.30700
C 	C 	0.77416 0.86472 0.71827 -0.02400
C 	C 	0.76497 0.94072 0.70687 -0.01600
H 	H 	0.74540 0.95960 0.64820 0.08900
O 	O 	0.72159 0.83586 0.56103 -0.40500
O 	O 	0.75160 0.09769 0.69395 -0.39700
C 	C 	0.78080 0.83660 0.81590 -0.44100
C 	C 	0.79910 0.88260 0.89350 0.42700
C 	C 	0.79790 0.95970 0.88260 0.33800
C 	C 	0.78510 0.98812 0.78314 -0.02900
C 	C 	0.82070 0.83650 0.79680 0.42700
C 	C 	0.82790 0.96270 0.86100 -0.29400
C 	C 	0.84250 0.88610 0.87110 -0.07000
In	In	0.28400 0.28400 -0.00000 1.97400
In	In	0.71600 0.71600 0.50000 1.99800
In	In	0.21600 0.78400 0.25000 1.99700
In	In	0.78400 0.21600 0.75000 1.99800
