data_crystal

_cell_length_a 15.85850
_cell_length_b 13.41900
_cell_length_c 6.61580
_cell_angle_alpha 90.00000
_cell_angle_beta  97.92500
_cell_angle_gamma 90.00000

_symmetry_space_group_name_	'P 1'
_symmetry_space_group_name_H-M	'P 1'

loop_
_symmetry_equiv_pos_as_xyz
  x,y,z

loop_
_atom_site_label
_atom_site_type_symbol
_atom_site_fract_x
_atom_site_fract_y
_atom_site_fract_z
_atom_site_charge
Er	Er	0.24882 0.56099 0.03600 1.45100
C 	C 	0.14290 0.38850 0.98330 0.32700
C 	C 	0.08680 0.29680 0.94610 -0.12500
C 	C 	0.12440 0.20320 0.95210 0.08400
C 	C 	0.99550 0.12630 0.87970 0.10300
C 	C 	0.95150 0.21610 0.87700 -0.18700
C 	C 	0.99970 0.30370 0.90740 0.09300
C 	C 	0.85650 0.21690 0.83670 0.46000
C 	C 	0.39950 0.55190 0.33330 0.33200
C 	C 	0.47810 0.54860 0.49040 -0.21600
N 	N 	0.07988 0.11876 0.91700 -0.13700
O 	O 	0.11087 0.47319 0.94280 -0.36600
O 	O 	0.21950 0.37756 0.05610 -0.37900
O 	O 	0.81892 0.13690 0.78280 -0.43700
O 	O 	0.81898 0.29670 0.86550 -0.46100
O 	O 	0.38482 0.48790 0.19280 -0.39900
O 	O 	0.34680 0.62110 0.34600 -0.39500
H 	H 	0.18330 0.19900 0.98190 0.01900
H 	H 	0.96400 0.06800 0.85390 0.02100
H 	H 	0.97310 0.36550 0.90140 0.01600
H 	H 	0.51780 0.59860 0.45570 0.09600
H 	H 	0.46210 0.56630 0.62210 0.09500
Er	Er	0.75118 0.06099 0.46400 1.44900
C 	C 	0.85710 0.88850 0.51670 0.32600
C 	C 	0.91320 0.79680 0.55390 -0.12500
C 	C 	0.87560 0.70320 0.54790 0.08500
C 	C 	0.00450 0.62630 0.62030 0.10900
C 	C 	0.04850 0.71610 0.62300 -0.18800
C 	C 	0.00030 0.80370 0.59260 0.09500
C 	C 	0.14350 0.71690 0.66330 0.46100
C 	C 	0.60050 0.05190 0.16670 0.33000
C 	C 	0.52190 0.04860 0.00960 -0.21500
N 	N 	0.92012 0.61876 0.58300 -0.14100
O 	O 	0.88913 0.97319 0.55720 -0.36300
O 	O 	0.78050 0.87756 0.44390 -0.37600
O 	O 	0.18108 0.63690 0.71720 -0.43600
O 	O 	0.18102 0.79670 0.63450 -0.46100
O 	O 	0.61518 0.98790 0.30720 -0.39700
O 	O 	0.65320 0.12110 0.15400 -0.39400
H 	H 	0.81670 0.69900 0.51810 0.01800
H 	H 	0.03600 0.56800 0.64610 0.02100
H 	H 	0.02690 0.86550 0.59860 0.01500
H 	H 	0.48220 0.09860 0.04430 0.09600
H 	H 	0.53790 0.06630 0.87790 0.09400
Er	Er	0.75118 0.43901 0.96400 1.45200
C 	C 	0.85710 0.61150 0.01670 0.32800
C 	C 	0.91320 0.70320 0.05390 -0.12400
C 	C 	0.87560 0.79680 0.04790 0.08500
C 	C 	0.00450 0.87370 0.12030 0.10300
C 	C 	0.04850 0.78390 0.12300 -0.18700
C 	C 	0.00030 0.69630 0.09260 0.09300
C 	C 	0.14350 0.78310 0.16330 0.46000
C 	C 	0.60050 0.44810 0.66670 0.33200
C 	C 	0.52190 0.45140 0.50960 -0.21600
N 	N 	0.92012 0.88124 0.08300 -0.13700
O 	O 	0.88913 0.52681 0.05720 -0.36600
O 	O 	0.78050 0.62244 0.94390 -0.37900
O 	O 	0.18108 0.86310 0.21720 -0.43700
O 	O 	0.18102 0.70330 0.13450 -0.46100
O 	O 	0.61518 0.51210 0.80720 -0.39900
O 	O 	0.65320 0.37890 0.65400 -0.39500
H 	H 	0.81670 0.80100 0.01810 0.01900
H 	H 	0.03600 0.93200 0.14610 0.02100
H 	H 	0.02690 0.63450 0.09860 0.01600
H 	H 	0.48220 0.40140 0.54430 0.09600
H 	H 	0.53790 0.43370 0.37790 0.09500
Er	Er	0.24882 0.93901 0.53600 1.44900
C 	C 	0.14290 0.11150 0.48330 0.32600
C 	C 	0.08680 0.20320 0.44610 -0.12500
C 	C 	0.12440 0.29680 0.45210 0.08500
C 	C 	0.99550 0.37370 0.37970 0.10900
C 	C 	0.95150 0.28390 0.37700 -0.18800
C 	C 	0.99970 0.19630 0.40740 0.09500
C 	C 	0.85650 0.28310 0.33670 0.46100
C 	C 	0.39950 0.94810 0.83330 0.33000
C 	C 	0.47810 0.95140 0.99040 -0.21500
N 	N 	0.07988 0.38124 0.41700 -0.14100
O 	O 	0.11087 0.02681 0.44280 -0.36300
O 	O 	0.21950 0.12244 0.55610 -0.37600
O 	O 	0.81892 0.36310 0.28280 -0.43600
O 	O 	0.81898 0.20330 0.36550 -0.46100
O 	O 	0.38482 0.01210 0.69280 -0.39700
O 	O 	0.34680 0.87890 0.84600 -0.39400
H 	H 	0.18330 0.30100 0.48190 0.01800
H 	H 	0.96400 0.43200 0.35390 0.02100
H 	H 	0.97310 0.13450 0.40140 0.01500
H 	H 	0.51780 0.90140 0.95570 0.09600
H 	H 	0.46210 0.93370 0.12210 0.09400
