data_crystal

_cell_length_a 15.87340
_cell_length_b 13.45250
_cell_length_c 6.63090
_cell_angle_alpha 90.00000
_cell_angle_beta  97.86200
_cell_angle_gamma 90.00000

_symmetry_space_group_name_	'P 1'
_symmetry_space_group_name_H-M	'P 1'

loop_
_symmetry_equiv_pos_as_xyz
  x,y,z

loop_
_atom_site_label
_atom_site_type_symbol
_atom_site_fract_x
_atom_site_fract_y
_atom_site_fract_z
_atom_site_charge
Tb	Tb	0.25118 0.93920 0.46505 1.58300
O 	O 	0.31965 0.79670 0.36550 -0.49300
O 	O 	0.31887 0.63730 0.28400 -0.46500
O 	O 	0.71921 0.87650 0.55530 -0.39400
O 	O 	0.61040 0.97170 0.44150 -0.38500
O 	O 	0.15270 0.87930 0.15370 -0.41700
O 	O 	0.11453 0.01140 0.30730 -0.41800
N 	N 	0.57980 0.61900 0.41630 -0.14700
C 	C 	0.35620 0.71700 0.33760 0.48300
C 	C 	0.45210 0.71640 0.37620 -0.20100
C 	C 	0.49540 0.62590 0.37950 0.11700
H 	H 	0.46390 0.56790 0.35480 0.01500
C 	C 	0.62390 0.70320 0.45100 0.09300
H 	H 	0.68270 0.69880 0.48020 0.01300
C 	C 	0.58710 0.79660 0.44600 -0.13900
C 	C 	0.49900 0.80310 0.40820 0.11200
H 	H 	0.47200 0.86460 0.40430 0.00700
C 	C 	0.64240 0.88800 0.48240 0.33300
C 	C 	0.10070 0.94860 0.16720 0.33400
C 	C 	0.02190 0.95190 0.01060 -0.21300
H 	H 	0.03790 0.93360 0.87940 0.08600
H 	H 	0.98230 0.90210 0.04610 0.09300
Tb	Tb	0.74882 0.43920 0.03495 1.58600
O 	O 	0.68035 0.29670 0.13450 -0.49300
O 	O 	0.68113 0.13730 0.21600 -0.46600
O 	O 	0.28079 0.37650 0.94470 -0.39500
O 	O 	0.38960 0.47170 0.05850 -0.38500
O 	O 	0.84730 0.37930 0.34630 -0.41800
O 	O 	0.88547 0.51140 0.19270 -0.42400
N 	N 	0.42020 0.11900 0.08370 -0.14700
C 	C 	0.64380 0.21700 0.16240 0.48300
C 	C 	0.54790 0.21640 0.12380 -0.20200
C 	C 	0.50460 0.12590 0.12050 0.11700
H 	H 	0.53610 0.06790 0.14520 0.01400
C 	C 	0.37610 0.20320 0.04900 0.09400
H 	H 	0.31730 0.19880 0.01980 0.01300
C 	C 	0.41290 0.29660 0.05400 -0.13900
C 	C 	0.50100 0.30310 0.09180 0.11300
H 	H 	0.52800 0.36460 0.09570 0.00700
C 	C 	0.35760 0.38800 0.01760 0.33500
C 	C 	0.89930 0.44860 0.33280 0.34000
C 	C 	0.97810 0.45190 0.48940 -0.21700
H 	H 	0.96210 0.43360 0.62060 0.09100
H 	H 	0.01770 0.40210 0.45390 0.09300
Tb	Tb	0.74882 0.06080 0.53495 1.58400
O 	O 	0.68035 0.20330 0.63450 -0.49200
O 	O 	0.68113 0.36270 0.71600 -0.46400
O 	O 	0.28079 0.12350 0.44470 -0.39300
O 	O 	0.38960 0.02830 0.55850 -0.38400
O 	O 	0.84730 0.12070 0.84630 -0.41600
O 	O 	0.88547 0.98860 0.69270 -0.41800
N 	N 	0.42020 0.38100 0.58370 -0.14700
C 	C 	0.64380 0.28300 0.66240 0.48300
C 	C 	0.54790 0.28360 0.62380 -0.20100
C 	C 	0.50460 0.37410 0.62050 0.11700
H 	H 	0.53610 0.43210 0.64520 0.01500
C 	C 	0.37610 0.29680 0.54900 0.09300
H 	H 	0.31730 0.30120 0.51980 0.01300
C 	C 	0.41290 0.20340 0.55400 -0.13900
C 	C 	0.50100 0.19690 0.59180 0.11200
H 	H 	0.52800 0.13540 0.59570 0.00700
C 	C 	0.35760 0.11200 0.51760 0.33300
C 	C 	0.89930 0.05140 0.83280 0.33400
C 	C 	0.97810 0.04810 0.98940 -0.21300
H 	H 	0.96210 0.06640 0.12060 0.08600
H 	H 	0.01770 0.09790 0.95390 0.09300
Tb	Tb	0.25118 0.56080 0.96505 1.58600
O 	O 	0.31965 0.70330 0.86550 -0.49300
O 	O 	0.31887 0.86270 0.78400 -0.46600
O 	O 	0.71921 0.62350 0.05530 -0.39500
O 	O 	0.61040 0.52830 0.94150 -0.38500
O 	O 	0.15270 0.62070 0.65370 -0.41800
O 	O 	0.11453 0.48860 0.80730 -0.42400
N 	N 	0.57980 0.88100 0.91630 -0.14700
C 	C 	0.35620 0.78300 0.83760 0.48300
C 	C 	0.45210 0.78360 0.87620 -0.20200
C 	C 	0.49540 0.87410 0.87950 0.11700
H 	H 	0.46390 0.93210 0.85480 0.01400
C 	C 	0.62390 0.79680 0.95100 0.09400
H 	H 	0.68270 0.80120 0.98020 0.01300
C 	C 	0.58710 0.70340 0.94600 -0.13900
C 	C 	0.49900 0.69690 0.90820 0.11300
H 	H 	0.47200 0.63540 0.90430 0.00700
C 	C 	0.64240 0.61200 0.98240 0.33500
C 	C 	0.10070 0.55140 0.66720 0.34000
C 	C 	0.02190 0.54810 0.51060 -0.21700
H 	H 	0.03790 0.56640 0.37940 0.09100
H 	H 	0.98230 0.59790 0.54610 0.09300
