data_crystal

_cell_length_a 8.43210
_cell_length_b 13.18710
_cell_length_c 9.55050
_cell_angle_alpha 90.00000
_cell_angle_beta  94.38500
_cell_angle_gamma 90.00000

_symmetry_space_group_name_	'P 1'
_symmetry_space_group_name_H-M	'P 1'

loop_
_symmetry_equiv_pos_as_xyz
  x,y,z

loop_
_atom_site_label
_atom_site_type_symbol
_atom_site_fract_x
_atom_site_fract_y
_atom_site_fract_z
_atom_site_charge
Tb	Tb	0.53853 0.27011 0.48942 1.46400
C 	C 	0.53520 0.38870 0.74230 0.28200
C 	C 	0.52080 0.45080 0.87270 -0.04100
C 	C 	0.61810 0.42470 0.99440 -0.04600
C 	C 	0.40470 0.52680 0.87690 -0.07900
C 	C 	0.75260 0.35140 0.98480 0.29400
C 	C 	0.29570 0.55220 0.74540 0.37300
O 	O 	0.54350 0.43220 0.62290 -0.36200
O 	O 	0.53390 0.29270 0.75040 -0.37500
O 	O 	0.78320 0.28570 0.08140 -0.37500
O 	O 	0.83860 0.35750 0.88270 -0.38900
O 	O 	0.34440 0.61340 0.65710 -0.44100
O 	O 	0.15870 0.51300 0.73850 -0.28900
Tb	Tb	0.96147 0.77011 0.01058 1.43600
C 	C 	0.96480 0.88870 0.75770 0.27900
C 	C 	0.97920 0.95080 0.62730 -0.03700
C 	C 	0.88190 0.92470 0.50560 -0.04800
C 	C 	0.09530 0.02680 0.62310 -0.08400
C 	C 	0.74740 0.85140 0.51520 0.29000
C 	C 	0.20430 0.05220 0.75460 0.37100
O 	O 	0.95650 0.93220 0.87710 -0.35300
O 	O 	0.96610 0.79270 0.74960 -0.36900
O 	O 	0.71680 0.78570 0.41860 -0.37500
O 	O 	0.66140 0.85750 0.61730 -0.39300
O 	O 	0.15560 0.11340 0.84290 -0.44200
O 	O 	0.34130 0.01300 0.76150 -0.29000
Tb	Tb	0.46147 0.72989 0.51058 1.46300
C 	C 	0.46480 0.61130 0.25770 0.28100
C 	C 	0.47920 0.54920 0.12730 -0.04100
C 	C 	0.38190 0.57530 0.00560 -0.04600
C 	C 	0.59530 0.47320 0.12310 -0.07900
C 	C 	0.24740 0.64860 0.01520 0.29400
C 	C 	0.70430 0.44780 0.25460 0.37300
O 	O 	0.45650 0.56780 0.37710 -0.36200
O 	O 	0.46610 0.70730 0.24960 -0.37500
O 	O 	0.21680 0.71430 0.91860 -0.37500
O 	O 	0.16140 0.64250 0.11730 -0.38900
O 	O 	0.65560 0.38660 0.34290 -0.44100
O 	O 	0.84130 0.48700 0.26150 -0.28900
Tb	Tb	0.03853 0.22989 0.98942 1.43600
C 	C 	0.03520 0.11130 0.24230 0.27900
C 	C 	0.02080 0.04920 0.37270 -0.03700
C 	C 	0.11810 0.07530 0.49440 -0.04800
C 	C 	0.90470 0.97320 0.37690 -0.08400
C 	C 	0.25260 0.14860 0.48480 0.29000
C 	C 	0.79570 0.94780 0.24540 0.37100
O 	O 	0.04350 0.06780 0.12290 -0.35300
O 	O 	0.03390 0.20730 0.25040 -0.36900
O 	O 	0.28320 0.21430 0.58140 -0.37500
O 	O 	0.33860 0.14250 0.38270 -0.39300
O 	O 	0.84440 0.88660 0.15710 -0.44200
O 	O 	0.65870 0.98700 0.23850 -0.29000
