data_crystal

_cell_length_a 8.45480
_cell_length_b 13.10470
_cell_length_c 9.48850
_cell_angle_alpha 90.00000
_cell_angle_beta  94.43900
_cell_angle_gamma 90.00000

_symmetry_space_group_name_	'P 1'
_symmetry_space_group_name_H-M	'P 1'

loop_
_symmetry_equiv_pos_as_xyz
  x,y,z

loop_
_atom_site_label
_atom_site_type_symbol
_atom_site_fract_x
_atom_site_fract_y
_atom_site_fract_z
_atom_site_charge
Tb	Tb	0.03815 0.76903 0.49144 1.47600
O 	O 	0.84050 0.64040 0.38600 -0.39800
O 	O 	0.78280 0.71280 0.58340 -0.38300
O 	O 	0.65000 0.61390 0.84220 -0.45500
O 	O 	0.83430 0.51110 0.76680 -0.29500
O 	O 	0.54920 0.56790 0.12550 -0.37600
O 	O 	0.53540 0.70620 0.25050 -0.39100
C 	C 	0.75240 0.64830 0.48830 0.29900
C 	C 	0.52410 0.54920 0.37430 -0.04500
C 	C 	0.61700 0.57490 0.49590 -0.04600
C 	C 	0.59250 0.52660 0.62440 -0.08300
C 	C 	0.69980 0.55270 0.75680 0.39300
C 	C 	0.53900 0.61050 0.24200 0.30700
Tb	Tb	0.46185 0.26902 0.00856 1.47500
O 	O 	0.65950 0.14040 0.11400 -0.39900
O 	O 	0.71720 0.21280 0.91660 -0.37900
O 	O 	0.85000 0.11390 0.65780 -0.45400
O 	O 	0.66570 0.01110 0.73320 -0.29500
O 	O 	0.95080 0.06790 0.37450 -0.37900
O 	O 	0.96460 0.20620 0.24950 -0.39300
C 	C 	0.74760 0.14830 0.01170 0.29600
C 	C 	0.97590 0.04920 0.12570 -0.05200
C 	C 	0.88300 0.07490 0.00410 -0.05000
C 	C 	0.90750 0.02660 0.87560 -0.07300
C 	C 	0.80020 0.05270 0.74320 0.39100
C 	C 	0.96100 0.11050 0.25800 0.30900
Tb	Tb	0.96185 0.23098 0.50856 1.47700
O 	O 	0.15950 0.35960 0.61400 -0.39800
O 	O 	0.21720 0.28720 0.41660 -0.38300
O 	O 	0.35000 0.38610 0.15780 -0.45500
O 	O 	0.16570 0.48890 0.23320 -0.29500
O 	O 	0.45080 0.43210 0.87450 -0.37600
O 	O 	0.46460 0.29380 0.74950 -0.39100
C 	C 	0.24760 0.35170 0.51170 0.29900
C 	C 	0.47590 0.45080 0.62570 -0.04500
C 	C 	0.38300 0.42510 0.50410 -0.04600
C 	C 	0.40750 0.47340 0.37560 -0.08300
C 	C 	0.30020 0.44730 0.24320 0.39300
C 	C 	0.46100 0.38950 0.75800 0.30700
Tb	Tb	0.53815 0.73098 0.99144 1.47500
O 	O 	0.34050 0.85960 0.88600 -0.39900
O 	O 	0.28280 0.78720 0.08340 -0.37900
O 	O 	0.15000 0.88610 0.34220 -0.45500
O 	O 	0.33430 0.98890 0.26680 -0.29500
O 	O 	0.04920 0.93210 0.62550 -0.37900
O 	O 	0.03540 0.79380 0.75050 -0.39300
C 	C 	0.25240 0.85170 0.98830 0.29600
C 	C 	0.02410 0.95080 0.87430 -0.05200
C 	C 	0.11700 0.92510 0.99590 -0.05000
C 	C 	0.09250 0.97340 0.12440 -0.07300
C 	C 	0.19980 0.94730 0.25680 0.39100
C 	C 	0.03900 0.88950 0.74200 0.30900
