data_crystal

_cell_length_a 13.78300
_cell_length_b 12.69700
_cell_length_c 6.74300
_cell_angle_alpha 90.00000
_cell_angle_beta  90.75900
_cell_angle_gamma 90.00000

_symmetry_space_group_name_	'P 1'
_symmetry_space_group_name_H-M	'P 1'

loop_
_symmetry_equiv_pos_as_xyz
  x,y,z

loop_
_atom_site_label
_atom_site_type_symbol
_atom_site_fract_x
_atom_site_fract_y
_atom_site_fract_z
_atom_site_charge
C 	C 	0.55200 0.28640 0.53780 -0.11500
H 	H 	0.58560 0.34780 0.48730 0.06100
H 	H 	0.55290 0.29020 0.68150 0.03700
C 	C 	0.69780 0.17470 0.57010 -0.20400
H 	H 	0.72840 0.11370 0.51110 0.04900
H 	H 	0.68830 0.15950 0.70940 0.04100
C 	C 	0.80430 0.31470 0.71630 -0.23000
H 	H 	0.79070 0.28930 0.84220 0.09500
C 	C 	0.86590 0.40290 0.69340 0.13500
H 	H 	0.88800 0.43680 0.80750 -0.04800
C 	C 	0.85490 0.39340 0.36500 0.12700
H 	H 	0.87090 0.41910 0.24060 -0.04500
C 	C 	0.79180 0.30850 0.37520 -0.22600
H 	H 	0.76710 0.27920 0.25860 0.09700
C 	C 	0.76520 0.26740 0.55310 0.17800
N 	N 	0.89360 0.43960 0.52370 -0.27800
N 	N 	0.60220 0.19070 0.47410 -0.14900
H 	H 	0.57800 0.14760 0.38830 -0.11400
C 	C 	0.05200 0.78640 0.53780 -0.25700
H 	H 	0.08560 0.84780 0.48730 0.10100
H 	H 	0.05290 0.79020 0.68150 0.06700
C 	C 	0.19780 0.67470 0.57010 -0.22700
H 	H 	0.22840 0.61370 0.51110 0.07700
H 	H 	0.18830 0.65950 0.70940 0.05800
C 	C 	0.30430 0.81470 0.71630 -0.23900
H 	H 	0.29070 0.78930 0.84220 0.10000
C 	C 	0.36590 0.90290 0.69340 0.14000
H 	H 	0.38800 0.93680 0.80750 -0.04600
C 	C 	0.35490 0.89340 0.36500 0.13300
H 	H 	0.37090 0.91910 0.24060 -0.04400
C 	C 	0.29180 0.80850 0.37520 -0.23500
H 	H 	0.26710 0.77920 0.25860 0.10300
C 	C 	0.26520 0.76740 0.55310 0.19300
N 	N 	0.39360 0.93960 0.52370 -0.27500
N 	N 	0.10220 0.69070 0.47410 -0.12800
H 	H 	0.07800 0.64760 0.38830 -0.12000
C 	C 	0.44800 0.28640 0.46220 -0.11400
H 	H 	0.41440 0.34780 0.51270 0.06200
H 	H 	0.44710 0.29020 0.31850 0.03800
C 	C 	0.30220 0.17470 0.42990 -0.19400
H 	H 	0.27160 0.11370 0.48890 0.03400
H 	H 	0.31170 0.15950 0.29060 0.03200
C 	C 	0.19570 0.31470 0.28370 -0.23900
H 	H 	0.20930 0.28930 0.15780 0.08600
C 	C 	0.13410 0.40290 0.30660 0.12100
H 	H 	0.11200 0.43680 0.19250 -0.07600
C 	C 	0.14510 0.39340 0.63500 0.11000
H 	H 	0.12910 0.41910 0.75940 -0.07000
C 	C 	0.20820 0.30850 0.62480 -0.23200
H 	H 	0.23290 0.27920 0.74140 0.08800
C 	C 	0.23480 0.26740 0.44690 0.16400
N 	N 	0.10640 0.43960 0.47630 -0.30800
N 	N 	0.39780 0.19070 0.52590 -0.15000
H 	H 	0.42200 0.14760 0.61170 -0.11500
C 	C 	0.94800 0.78640 0.46220 0.02800
H 	H 	0.91440 0.84780 0.51270 0.05400
H 	H 	0.94710 0.79020 0.31850 0.03500
C 	C 	0.80220 0.67470 0.42990 -0.21200
H 	H 	0.77160 0.61370 0.48890 0.07500
H 	H 	0.81170 0.65950 0.29060 0.06600
C 	C 	0.69570 0.81470 0.28370 -0.23400
H 	H 	0.70930 0.78930 0.15780 0.10500
C 	C 	0.63410 0.90290 0.30660 0.14400
H 	H 	0.61200 0.93680 0.19250 -0.04300
C 	C 	0.64510 0.89340 0.63500 0.13700
H 	H 	0.62910 0.91910 0.75940 -0.04200
C 	C 	0.70820 0.80850 0.62480 -0.23100
H 	H 	0.73290 0.77920 0.74140 0.10900
C 	C 	0.73480 0.76740 0.44690 0.19300
N 	N 	0.60640 0.93960 0.47630 -0.27500
N 	N 	0.89780 0.69070 0.52590 -0.16000
H 	H 	0.92200 0.64760 0.61170 -0.06200
Zn	Zn	0.00000 0.56225 0.50000 1.13100
Zn	Zn	0.50000 0.06225 0.50000 1.13300
