data_crystal

_cell_length_a 8.50280
_cell_length_b 13.11080
_cell_length_c 9.58310
_cell_angle_alpha 90.00000
_cell_angle_beta  96.03800
_cell_angle_gamma 90.00000

_symmetry_space_group_name_	'P 1'
_symmetry_space_group_name_H-M	'P 1'

loop_
_symmetry_equiv_pos_as_xyz
  x,y,z

loop_
_atom_site_label
_atom_site_type_symbol
_atom_site_fract_x
_atom_site_fract_y
_atom_site_fract_z
_atom_site_charge
Eu	Eu	0.54926 0.26692 0.49571 1.52800
C 	C 	0.54280 0.38980 0.74470 0.28300
C 	C 	0.52560 0.45180 0.87620 -0.04100
C 	C 	0.62120 0.42650 0.99930 -0.04300
C 	C 	0.40600 0.52690 0.87300 -0.09000
C 	C 	0.76110 0.35630 0.99360 0.29000
C 	C 	0.30020 0.55140 0.74000 0.38200
O 	O 	0.54640 0.43310 0.62720 -0.37400
O 	O 	0.55230 0.29300 0.75650 -0.39100
O 	O 	0.78900 0.28670 0.08550 -0.37800
O 	O 	0.85400 0.37210 0.90030 -0.39600
O 	O 	0.34810 0.61500 0.65610 -0.46000
O 	O 	0.16670 0.50770 0.72310 -0.29500
Eu	Eu	0.95074 0.76692 0.00429 1.50000
C 	C 	0.95720 0.88980 0.75530 0.28100
C 	C 	0.97440 0.95180 0.62380 -0.03700
C 	C 	0.87880 0.92650 0.50070 -0.04500
C 	C 	0.09400 0.02690 0.62700 -0.09500
C 	C 	0.73890 0.85630 0.50640 0.28600
C 	C 	0.19980 0.05140 0.76000 0.38100
O 	O 	0.95360 0.93310 0.87280 -0.36500
O 	O 	0.94770 0.79300 0.74350 -0.38600
O 	O 	0.71100 0.78670 0.41450 -0.37800
O 	O 	0.64600 0.87210 0.59970 -0.40000
O 	O 	0.15190 0.11500 0.84390 -0.46100
O 	O 	0.33330 0.00770 0.77690 -0.29600
Eu	Eu	0.45074 0.73308 0.50429 1.52800
C 	C 	0.45720 0.61020 0.25530 0.28300
C 	C 	0.47440 0.54820 0.12380 -0.04100
C 	C 	0.37880 0.57350 0.00070 -0.04300
C 	C 	0.59400 0.47310 0.12700 -0.09000
C 	C 	0.23890 0.64370 0.00640 0.29000
C 	C 	0.69980 0.44860 0.26000 0.38200
O 	O 	0.45360 0.56690 0.37280 -0.37400
O 	O 	0.44770 0.70700 0.24350 -0.39100
O 	O 	0.21100 0.71330 0.91450 -0.37800
O 	O 	0.14600 0.62790 0.09970 -0.39600
O 	O 	0.65190 0.38500 0.34390 -0.46000
O 	O 	0.83330 0.49230 0.27690 -0.29500
Eu	Eu	0.04926 0.23308 0.99571 1.50000
C 	C 	0.04280 0.11020 0.24470 0.28100
C 	C 	0.02560 0.04820 0.37620 -0.03700
C 	C 	0.12120 0.07350 0.49930 -0.04500
C 	C 	0.90600 0.97310 0.37300 -0.09500
C 	C 	0.26110 0.14370 0.49360 0.28600
C 	C 	0.80020 0.94860 0.24000 0.38100
O 	O 	0.04640 0.06690 0.12720 -0.36500
O 	O 	0.05230 0.20700 0.25650 -0.38600
O 	O 	0.28900 0.21330 0.58550 -0.37800
O 	O 	0.35400 0.12790 0.40030 -0.40000
O 	O 	0.84810 0.88500 0.15610 -0.46100
O 	O 	0.66670 0.99230 0.22310 -0.29600
