data_crystal

_cell_length_a 13.20410
_cell_length_b 13.78670
_cell_length_c 15.38180
_cell_angle_alpha 93.62500
_cell_angle_beta  101.69600
_cell_angle_gamma 95.85700

_symmetry_space_group_name_	'P 1'
_symmetry_space_group_name_H-M	'P 1'

loop_
_symmetry_equiv_pos_as_xyz
  x,y,z

loop_
_atom_site_label
_atom_site_type_symbol
_atom_site_fract_x
_atom_site_fract_y
_atom_site_fract_z
_atom_site_charge
Cd	Cd	0.63238 0.32349 0.33622 1.20500
Cd	Cd	0.12475 0.32025 0.29456 1.20600
P 	P 	0.38015 0.25389 0.37623 0.43300
P 	P 	0.15097 0.21757 0.09026 0.37500
P 	P 	0.59110 0.08703 0.22426 0.47300
P 	P 	0.86328 0.35453 0.26057 0.49000
C 	C 	0.35590 0.14890 0.43440 -0.13100
H 	H 	0.30010 0.14760 0.46290 0.06900
C 	C 	0.40760 0.07570 0.44070 -0.10200
H 	H 	0.46410 0.07370 0.41340 0.05400
H 	H 	0.38880 0.02420 0.47270 0.04000
C 	C 	0.14680 0.31820 0.02270 0.27000
C 	C 	0.06860 0.37110 0.01390 -0.59200
H 	H 	0.04970 0.40240 0.96230 0.24300
H 	H 	0.03210 0.37730 0.05940 0.20100
C 	C 	0.62320 0.00220 0.30410 -0.16200
H 	H 	0.57430 0.94810 0.30190 0.12300
C 	C 	0.70310 0.00680 0.36240 -0.24500
H 	H 	0.75460 0.05940 0.36770 0.11000
H 	H 	0.71180 0.95770 0.40110 0.14000
C 	C 	0.83300 0.43410 0.17420 -0.10300
H 	H 	0.83560 0.50090 0.18880 0.05900
C 	C 	0.80600 0.39800 0.08770 -0.03100
H 	H 	0.80350 0.33150 0.07260 0.02200
H 	H 	0.79060 0.44040 0.04320 -0.01800
C 	C 	0.60440 0.48700 0.19530 0.01800
H 	H 	0.64810 0.52350 0.24400 -0.00600
C 	C 	0.57940 0.53140 0.11720 -0.03900
C 	C 	0.51370 0.47770 0.04280 -0.04400
C 	C 	0.47840 0.38300 0.05490 -0.07400
H 	H 	0.43420 0.34450 0.00770 0.03300
C 	C 	0.50660 0.34440 0.13430 0.03600
H 	H 	0.48090 0.28010 0.13930 0.00800
C 	C 	0.09360 0.20180 0.46220 0.03100
H 	H 	0.12660 0.26130 0.49130 -0.02000
C 	C 	0.06850 0.12850 0.51280 -0.06800
H 	H 	0.08710 0.13850 0.57460 0.03300
C 	C 	0.01590 0.04000 0.47320 -0.08900
C 	C 	0.99610 0.02990 0.38200 -0.10000
H 	H 	0.96280 0.97120 0.35150 0.10000
C 	C 	0.02520 0.10620 0.33490 0.03800
H 	H 	0.01060 0.09690 0.27310 -0.01500
C 	C 	0.31950 0.83990 0.03470 -0.04800
H 	H 	0.27880 0.87280 0.99230 0.06300
C 	C 	0.27140 0.76400 0.07100 -0.06500
H 	H 	0.19980 0.74740 0.05340 0.02700
C 	C 	0.32860 0.71290 0.13290 0.01000
C 	C 	0.43490 0.74380 0.15820 -0.10800
H 	H 	0.47700 0.71300 0.20140 0.06000
C 	C 	0.47710 0.82020 0.11880 0.05400
H 	H 	0.54830 0.83940 0.13600 -0.00800
C 	C 	0.28110 0.62680 0.17170 0.08200
C 	C 	0.17600 0.60820 0.16560 -0.16400
H 	H 	0.13160 0.65040 0.13790 0.07100
C 	C 	0.13610 0.52670 0.20080 0.08300
H 	H 	0.06470 0.51670 0.19770 -0.03000
C 	C 	0.29490 0.47980 0.24430 0.08700
H 	H 	0.33730 0.43500 0.27030 -0.01900
C 	C 	0.34180 0.56170 0.21370 -0.15900
H 	H 	0.41390 0.57230 0.22150 0.08000
C 	C 	0.02840 0.86680 0.16590 0.02800
H 	H 	0.95950 0.84650 0.13810 0.01500
C 	C 	0.07020 0.82480 0.24140 -0.13200
H 	H 	0.03000 0.77700 0.26360 0.06000
C 	C 	0.17350 0.85400 0.28480 0.08300
C 	C 	0.22930 0.92390 0.24780 -0.20800
H 	H 	0.29870 0.94470 0.27350 0.13100
C 	C 	0.18040 0.96280 0.17160 0.22500
H 	H 	0.21890 0.01080 0.14800 -0.09600
C 	C 	0.21880 0.81150 0.36810 0.05600
C 	C 	0.16120 0.79220 0.43030 -0.13700
H 	H 	0.09150 0.80290 0.41890 0.07300
C 	C 	0.20340 0.75750 0.50900 0.07700
H 	H 	0.16310 0.75110 0.55180 -0.00800
C 	C 	0.35480 0.74890 0.46600 0.07800
H 	H 	0.42290 0.73330 0.47710 -0.01000
C 	C 	0.31850 0.78760 0.38720 -0.13700
H 	H 	0.36160 0.79760 0.34690 0.08100
N 	N 	0.56970 0.39480 0.20540 -0.22300
N 	N 	0.07320 0.19230 0.37370 -0.22500
N 	N 	0.42140 0.86850 0.05730 -0.21700
N 	N 	0.19460 0.46190 0.23880 -0.24700
N 	N 	0.08250 0.93590 0.13050 -0.25500
N 	N 	0.29950 0.73250 0.52720 -0.24400
O 	O 	0.28300 0.25890 0.30530 -0.42000
O 	O 	0.40480 0.34200 0.44380 -0.30200
O 	O 	0.47170 0.23700 0.33290 -0.41900
O 	O 	0.08320 0.22970 0.15690 -0.41700
O 	O 	0.26780 0.22160 0.13910 -0.46300
H 	H 	0.27290 0.23360 0.19280 0.28200
O 	O 	0.12490 0.12700 0.02790 -0.45000
O 	O 	0.47350 0.09970 0.21830 -0.51700
H 	H 	0.46850 0.14410 0.25480 0.30600
O 	O 	0.65770 0.18260 0.25600 -0.42100
O 	O 	0.60300 0.04100 0.13660 -0.44300
O 	O 	0.79660 0.38240 0.32420 -0.41700
O 	O 	0.97680 0.38480 0.29150 -0.40600
O 	O 	0.84680 0.24160 0.23700 -0.48700
H 	H 	0.78820 0.21990 0.24180 0.28600
C 	C 	0.17350 0.32570 0.95730 -0.41400
H 	H 	0.13950 0.36320 0.91490 0.16500
H 	H 	0.22930 0.29440 0.94630 0.18000
C 	C 	0.80580 0.36850 0.14860 -0.08700
H 	H 	0.76380 0.31700 0.11270 0.05100
C 	C 	0.82400 0.45660 0.11600 0.00000
H 	H 	0.86670 0.50750 0.15310 -0.01100
H 	H 	0.79520 0.46590 0.05780 0.03800
Cd	Cd	0.36762 0.67651 0.66378 1.20400
Cd	Cd	0.87525 0.67975 0.70544 1.21200
P 	P 	0.61985 0.74611 0.62377 0.42700
P 	P 	0.84903 0.78243 0.90974 0.25900
P 	P 	0.40890 0.91297 0.77574 0.48700
P 	P 	0.13672 0.64547 0.73943 0.49100
C 	C 	0.64410 0.85110 0.56560 -0.08600
H 	H 	0.69990 0.85240 0.53710 0.06000
C 	C 	0.59240 0.92430 0.55930 -0.15200
H 	H 	0.53590 0.92630 0.58660 0.09700
H 	H 	0.61120 0.97580 0.52730 0.09900
C 	C 	0.85320 0.68180 0.97730 0.85600
C 	C 	0.93140 0.62890 0.98610 -0.72400
H 	H 	0.95030 0.59760 0.03770 0.23900
H 	H 	0.96790 0.62270 0.94060 0.26900
C 	C 	0.37680 0.99780 0.69590 -0.16300
H 	H 	0.42570 0.05190 0.69810 0.05200
C 	C 	0.29690 0.99320 0.63760 0.11400
H 	H 	0.24540 0.94060 0.63230 0.00300
H 	H 	0.28820 0.04230 0.59890 -0.05000
C 	C 	0.16700 0.56590 0.82580 -0.15800
H 	H 	0.16440 0.49910 0.81120 0.07700
C 	C 	0.19400 0.60200 0.91230 -0.03100
H 	H 	0.19650 0.66850 0.92740 0.04100
H 	H 	0.20940 0.55960 0.95680 -0.04800
C 	C 	0.39560 0.51300 0.80470 0.03600
H 	H 	0.35190 0.47650 0.75600 -0.01100
C 	C 	0.42060 0.46860 0.88280 -0.05700
C 	C 	0.48630 0.52230 0.95720 0.10800
C 	C 	0.52160 0.61700 0.94510 -0.15400
H 	H 	0.56580 0.65550 0.99230 0.09700
C 	C 	0.49340 0.65560 0.86570 0.08800
H 	H 	0.51910 0.71990 0.86070 -0.00000
C 	C 	0.90640 0.79820 0.53780 0.12300
H 	H 	0.87340 0.73870 0.50870 -0.04400
C 	C 	0.93150 0.87150 0.48720 -0.21200
H 	H 	0.91290 0.86150 0.42540 0.10400
C 	C 	0.98410 0.96000 0.52680 0.18200
C 	C 	0.00390 0.97010 0.61800 -0.13100
H 	H 	0.03720 0.02880 0.64850 0.02700
C 	C 	0.97480 0.89380 0.66510 0.11200
H 	H 	0.98940 0.90310 0.72690 0.00400
C 	C 	0.68050 0.16010 0.96530 0.22200
H 	H 	0.72120 0.12720 0.00770 -0.11700
C 	C 	0.72860 0.23600 0.92900 -0.22700
H 	H 	0.80020 0.25260 0.94660 0.11900
C 	C 	0.67140 0.28710 0.86710 0.10800
C 	C 	0.56510 0.25620 0.84180 -0.17400
H 	H 	0.52300 0.28700 0.79860 0.08400
C 	C 	0.52290 0.17980 0.88120 0.10400
H 	H 	0.45170 0.16060 0.86400 -0.03100
C 	C 	0.71890 0.37320 0.82830 0.04300
C 	C 	0.82400 0.39180 0.83440 -0.12500
H 	H 	0.86840 0.34960 0.86210 0.07600
C 	C 	0.86390 0.47330 0.79920 0.06800
H 	H 	0.93530 0.48330 0.80230 -0.00600
C 	C 	0.70510 0.52020 0.75570 0.07200
H 	H 	0.66270 0.56500 0.72970 -0.01400
C 	C 	0.65820 0.43830 0.78630 -0.12600
H 	H 	0.58610 0.42770 0.77850 0.06900
C 	C 	0.97160 0.13320 0.83410 0.09900
H 	H 	0.04050 0.15350 0.86190 -0.03300
C 	C 	0.92980 0.17520 0.75860 -0.13300
H 	H 	0.97000 0.22300 0.73640 0.07600
C 	C 	0.82650 0.14600 0.71520 0.01900
C 	C 	0.77070 0.07610 0.75220 -0.06700
H 	H 	0.70130 0.05530 0.72650 0.04400
C 	C 	0.81960 0.03720 0.82840 -0.05400
H 	H 	0.78110 0.98920 0.85200 0.09000
C 	C 	0.78120 0.18850 0.63190 0.08000
C 	C 	0.83880 0.20780 0.56970 -0.16300
H 	H 	0.90850 0.19710 0.58110 0.08800
C 	C 	0.79660 0.24250 0.49100 0.08600
H 	H 	0.83690 0.24890 0.44820 -0.00700
C 	C 	0.64520 0.25110 0.53400 0.08400
H 	H 	0.57710 0.26670 0.52290 -0.01400
C 	C 	0.68150 0.21240 0.61280 -0.16200
H 	H 	0.63840 0.20240 0.65310 0.08200
N 	N 	0.43030 0.60520 0.79460 -0.23500
N 	N 	0.92680 0.80770 0.62630 -0.24500
N 	N 	0.57860 0.13150 0.94270 -0.26800
N 	N 	0.80540 0.53810 0.76120 -0.24000
N 	N 	0.91750 0.06410 0.86950 -0.21900
N 	N 	0.70050 0.26750 0.47280 -0.24800
O 	O 	0.71700 0.74110 0.69470 -0.41200
O 	O 	0.59520 0.65800 0.55620 -0.30000
O 	O 	0.52830 0.76300 0.66710 -0.41400
O 	O 	0.91680 0.77030 0.84310 -0.37700
O 	O 	0.73220 0.77840 0.86090 -0.42900
H 	H 	0.72710 0.76640 0.80720 0.27200
O 	O 	0.87510 0.87300 0.97210 -0.34800
O 	O 	0.52650 0.90030 0.78170 -0.47800
H 	H 	0.53150 0.85590 0.74520 0.29900
O 	O 	0.34230 0.81740 0.74400 -0.41900
O 	O 	0.39700 0.95900 0.86340 -0.37800
O 	O 	0.20340 0.61760 0.67580 -0.42100
O 	O 	0.02320 0.61520 0.70850 -0.43300
O 	O 	0.15320 0.75840 0.76300 -0.49400
H 	H 	0.21180 0.78010 0.75820 0.29300
C 	C 	0.82650 0.67430 0.04270 -1.32800
H 	H 	0.86050 0.63680 0.08510 0.47100
H 	H 	0.77070 0.70560 0.05370 0.45500
C 	C 	0.19420 0.63150 0.85140 -0.04000
H 	H 	0.23620 0.68300 0.88730 0.04200
C 	C 	0.17600 0.54340 0.88400 0.00100
H 	H 	0.13330 0.49250 0.84690 -0.00400
H 	H 	0.20480 0.53410 0.94220 0.09400
Cd	Cd	0.50000 0.00000 -0.00000 1.16100
Cd	Cd	-0.00000 0.00000 -0.00000 1.14600
