data_crystal

_cell_length_a 7.80220
_cell_length_b 11.17950
_cell_length_c 13.43060
_cell_angle_alpha 114.59500
_cell_angle_beta  102.58200
_cell_angle_gamma 90.00000

_symmetry_space_group_name_	'P 1'
_symmetry_space_group_name_H-M	'P 1'

loop_
_symmetry_equiv_pos_as_xyz
  x,y,z

loop_
_atom_site_label
_atom_site_type_symbol
_atom_site_fract_x
_atom_site_fract_y
_atom_site_fract_z
_atom_site_charge
Zr	Zr	0.67802 0.03151 0.11366 3.20300
Zr	Zr	0.82232 0.91885 0.88640 3.20600
Zr	Zr	0.32232 0.96827 0.88647 3.20700
Zr	Zr	0.17806 0.08188 0.11366 3.20200
C 	C 	0.46817 0.04361 0.29562 0.49100
C 	C 	0.48581 0.02304 0.40111 -0.09900
C 	C 	0.61940 0.95149 0.43218 -0.01100
C 	C 	0.36637 0.07137 0.47055 -0.00900
C 	C 	0.78517 0.49062 0.90907 0.06300
C 	C 	0.78415 0.36565 0.91010 0.07000
C 	C 	0.03185 0.74775 0.70395 0.50800
C 	C 	0.01393 0.62149 0.59854 -0.11500
C 	C 	0.87948 0.51932 0.56719 0.00100
C 	C 	0.13414 0.59970 0.52952 0.00200
C 	C 	0.71351 0.58131 0.09513 0.00100
C 	C 	0.71471 0.45551 0.09359 0.01400
C 	C 	0.53172 0.95697 0.70414 0.50100
C 	C 	0.51382 0.97757 0.59864 -0.14000
C 	C 	0.38018 0.04910 0.56756 0.03400
C 	C 	0.63325 0.92926 0.52919 0.01400
C 	C 	0.21525 0.50955 0.09124 0.01100
C 	C 	0.21561 0.63516 0.09140 0.01000
C 	C 	0.96812 0.25188 0.29590 0.50200
C 	C 	0.98583 0.37810 0.40130 -0.12500
C 	C 	0.12024 0.48028 0.43265 0.01200
C 	C 	0.86562 0.39986 0.47032 0.00700
C 	C 	0.28510 0.41843 0.90887 0.07300
C 	C 	0.28450 0.54390 0.90874 0.06600
C 	C 	0.74975 0.21215 0.00073 0.39500
C 	C 	0.75058 0.73474 -0.00065 0.44900
C 	C 	0.75051 0.60146 -0.00071 -0.16800
C 	C 	0.74955 0.34626 0.00145 -0.16200
C 	C 	0.24989 0.78819 0.00008 0.41000
C 	C 	0.25029 0.26549 0.00003 0.42500
C 	C 	0.25022 0.39928 0.00005 -0.17400
C 	C 	0.24997 0.65431 0.00007 -0.16200
O 	O 	0.71483 0.19991 0.08541 -0.76800
O 	O 	0.58161 -0.00433 0.23596 -0.71300
O 	O 	0.41790 0.08843 0.05829 -1.29600
O 	O 	0.69987 0.82960 0.07972 -0.66700
O 	O 	0.33907 0.10568 0.27044 -0.74000
O 	O 	0.78475 0.11584 0.91561 -0.69900
O 	O 	0.91610 0.76092 0.76235 -0.72400
O 	O 	0.08271 1.03067 0.94185 -1.23300
O 	O 	0.80126 0.75003 0.91928 -0.61500
O 	O 	0.16290 0.83376 0.72981 -0.74200
O 	O 	0.28507 0.80004 0.91525 -0.72000
O 	O 	0.41659 1.00290 0.76290 -0.72100
O 	O 	0.58265 0.91168 0.94172 -1.23800
O 	O 	0.30116 0.17025 0.91990 -0.58500
O 	O 	0.66238 0.89641 0.72982 -0.74600
O 	O 	0.21467 0.88482 0.08493 -0.76800
O 	O 	0.08240 0.23969 0.23669 -0.72400
O 	O 	0.91784 -0.03025 0.05814 -1.28600
O 	O 	0.19934 0.25034 0.08012 -0.66100
O 	O 	0.83836 0.16501 0.27049 -0.74000
H 	H 	0.71369 0.91190 0.38122 0.04400
H 	H 	0.26124 0.12654 0.44994 0.04300
H 	H 	0.81320 0.50009 0.83702 0.04100
H 	H 	0.81154 0.28324 0.83842 0.04200
H 	H 	0.78461 0.53120 0.61785 0.04500
H 	H 	0.23993 0.67507 0.55032 0.04000
H 	H 	0.68540 0.66327 0.16681 0.04700
H 	H 	0.68739 0.44375 0.16485 0.04400
H 	H 	0.28594 0.08870 0.61855 0.04100
H 	H 	0.73840 0.87409 0.54976 0.03400
H 	H 	0.18759 0.49903 0.16295 0.04600
H 	H 	0.18822 0.71732 0.16324 0.04500
H 	H 	0.21515 0.46842 0.38202 0.04200
H 	H 	0.75984 0.32447 0.44950 0.03900
H 	H 	0.31287 0.33627 0.83717 0.04100
H 	H 	0.31184 0.55428 0.83690 0.04000
