data_crystal

_cell_length_a 13.72200
_cell_length_b 13.78790
_cell_length_c 24.88920
_cell_angle_alpha 90.00000
_cell_angle_beta  90.00000
_cell_angle_gamma 90.00000

_symmetry_space_group_name_	'P 1'
_symmetry_space_group_name_H-M	'P 1'

loop_
_symmetry_equiv_pos_as_xyz
  x,y,z

loop_
_atom_site_label
_atom_site_type_symbol
_atom_site_fract_x
_atom_site_fract_y
_atom_site_fract_z
_atom_site_charge
O 	O 	0.09400 0.70360 0.67880 -0.35100
O 	O 	0.26760 0.02800 0.81710 -0.36900
O 	O 	0.14090 0.93380 0.76670 -0.48300
O 	O 	0.26660 0.84330 0.81870 -0.36700
O 	O 	0.09310 0.66840 0.81710 -0.36100
F 	F 	0.14000 0.93800 0.86790 -0.31200
P 	P 	0.20830 0.93580 0.81701 0.62700
Cu	Cu	0.11539 0.05114 0.72391 0.90700
Cu	Cu	0.11685 0.82004 0.72158 0.90900
O 	O 	0.59400 0.20360 0.67880 -0.35300
O 	O 	0.76760 0.52800 0.81710 -0.37300
O 	O 	0.64090 0.43380 0.76670 -0.48600
O 	O 	0.76660 0.34330 0.81870 -0.37100
O 	O 	0.59310 0.16840 0.81710 -0.36400
F 	F 	0.64000 0.43800 0.86790 -0.31800
P 	P 	0.70830 0.43580 0.81701 0.62600
Cu	Cu	0.61539 0.55114 0.72391 0.90500
Cu	Cu	0.61685 0.32004 0.72158 0.90700
O 	O 	0.90600 0.20360 0.82120 -0.38000
O 	O 	0.73240 0.52800 0.68290 -0.37200
O 	O 	0.85910 0.43380 0.73330 -0.49700
O 	O 	0.73340 0.34330 0.68130 -0.37000
O 	O 	0.90690 0.16840 0.68290 -0.39000
F 	F 	0.86000 0.43800 0.63210 -0.33000
P 	P 	0.79170 0.43580 0.68299 0.62500
Cu	Cu	0.88461 0.55114 0.77609 0.89600
Cu	Cu	0.88315 0.32004 0.77842 0.89800
O 	O 	0.40600 0.70360 0.82120 -0.35200
O 	O 	0.23240 0.02800 0.68290 -0.36800
O 	O 	0.35910 0.93380 0.73330 -0.48600
O 	O 	0.23340 0.84330 0.68130 -0.36600
O 	O 	0.40690 0.66840 0.68290 -0.36300
F 	F 	0.36000 0.93800 0.63210 -0.31500
P 	P 	0.29170 0.93580 0.68299 0.62700
Cu	Cu	0.38461 0.05114 0.77609 0.90500
Cu	Cu	0.38315 0.82004 0.77842 0.90700
O 	O 	0.09400 0.20360 0.82120 -0.35200
O 	O 	0.26760 0.52800 0.68290 -0.37000
O 	O 	0.14090 0.43380 0.73330 -0.48400
O 	O 	0.26660 0.34330 0.68130 -0.36700
O 	O 	0.09310 0.16840 0.68290 -0.36200
F 	F 	0.14000 0.43800 0.63210 -0.31200
P 	P 	0.20830 0.43580 0.68299 0.62600
Cu	Cu	0.11539 0.55114 0.77609 0.90700
Cu	Cu	0.11685 0.32004 0.77842 0.90900
O 	O 	0.59400 0.70360 0.82120 -0.35400
O 	O 	0.76760 0.02800 0.68290 -0.37300
O 	O 	0.64090 0.93380 0.73330 -0.48600
O 	O 	0.76660 0.84330 0.68130 -0.37100
O 	O 	0.59310 0.66840 0.68290 -0.36400
F 	F 	0.64000 0.93800 0.63210 -0.31800
P 	P 	0.70830 0.93580 0.68299 0.62600
Cu	Cu	0.61539 0.05114 0.77609 0.90500
Cu	Cu	0.61685 0.82004 0.77842 0.90700
O 	O 	0.90600 0.70360 0.67880 -0.38000
O 	O 	0.73240 0.02800 0.81710 -0.37300
O 	O 	0.85910 0.93380 0.76670 -0.49700
O 	O 	0.73340 0.84330 0.81870 -0.37100
O 	O 	0.90690 0.66840 0.81710 -0.39000
F 	F 	0.86000 0.93800 0.86790 -0.32900
P 	P 	0.79170 0.93580 0.81701 0.62500
Cu	Cu	0.88461 0.05114 0.72391 0.89600
Cu	Cu	0.88315 0.82004 0.72158 0.89800
O 	O 	0.40600 0.20360 0.67880 -0.35200
O 	O 	0.23240 0.52800 0.81710 -0.36800
O 	O 	0.35910 0.43380 0.76670 -0.48600
O 	O 	0.23340 0.34330 0.81870 -0.36600
O 	O 	0.40690 0.16840 0.81710 -0.36300
F 	F 	0.36000 0.43800 0.86790 -0.31500
P 	P 	0.29170 0.43580 0.81701 0.62700
Cu	Cu	0.38461 0.55114 0.72391 0.90500
Cu	Cu	0.38315 0.32004 0.72158 0.90700
O 	O 	-0.00000 0.79050 0.76420 -0.48400
O 	O 	-0.00000 0.57910 0.73170 -0.46600
F 	F 	-0.00000 0.57650 0.63080 -0.30400
F 	F 	-0.00000 0.79620 0.86480 -0.32000
P 	P 	-0.00000 0.64580 0.68060 0.64300
P 	P 	-0.00000 0.72860 0.81540 0.66200
O 	O 	0.50000 0.29050 0.76420 -0.49700
O 	O 	0.50000 0.07910 0.73170 -0.47800
F 	F 	0.50000 0.07650 0.63080 -0.31400
F 	F 	0.50000 0.29620 0.86480 -0.33000
P 	P 	0.50000 0.14580 0.68060 0.61600
P 	P 	0.50000 0.22860 0.81540 0.63600
O 	O 	0.00000 0.29050 0.73580 -0.48400
O 	O 	0.00000 0.07910 0.76830 -0.46600
F 	F 	-0.00000 0.07650 0.86920 -0.30500
F 	F 	-0.00000 0.29620 0.63520 -0.32000
P 	P 	0.00000 0.14580 0.81940 0.64300
P 	P 	-0.00000 0.22860 0.68460 0.66200
O 	O 	0.50000 0.79050 0.73580 -0.49700
O 	O 	0.50000 0.57910 0.76830 -0.47800
F 	F 	0.50000 0.57650 0.86920 -0.31500
F 	F 	0.50000 0.79620 0.63520 -0.33000
P 	P 	0.50000 0.64580 0.81940 0.61600
P 	P 	0.50000 0.72860 0.68460 0.63600
O 	O 	0.90600 0.79640 0.17880 -0.38000
O 	O 	0.73240 0.47200 0.31710 -0.37200
O 	O 	0.85910 0.56620 0.26670 -0.49700
O 	O 	0.73340 0.65670 0.31870 -0.37000
O 	O 	0.90690 0.83160 0.31710 -0.39000
F 	F 	0.86000 0.56200 0.36790 -0.33000
P 	P 	0.79170 0.56420 0.31701 0.62500
Cu	Cu	0.88461 0.44886 0.22391 0.89600
Cu	Cu	0.88315 0.67996 0.22158 0.89800
O 	O 	0.40600 0.29640 0.17880 -0.35200
O 	O 	0.23240 0.97200 0.31710 -0.36800
O 	O 	0.35910 0.06620 0.26670 -0.48600
O 	O 	0.23340 0.15670 0.31870 -0.36600
O 	O 	0.40690 0.33160 0.31710 -0.36300
F 	F 	0.36000 0.06200 0.36790 -0.31500
P 	P 	0.29170 0.06420 0.31701 0.62700
Cu	Cu	0.38461 0.94886 0.22391 0.90500
Cu	Cu	0.38315 0.17996 0.22158 0.90700
O 	O 	0.09400 0.29640 0.32120 -0.35200
O 	O 	0.26760 0.97200 0.18290 -0.37000
O 	O 	0.14090 0.06620 0.23330 -0.48400
O 	O 	0.26660 0.15670 0.18130 -0.36800
O 	O 	0.09310 0.33160 0.18290 -0.36200
F 	F 	0.14000 0.06200 0.13210 -0.31300
P 	P 	0.20830 0.06420 0.18299 0.62700
Cu	Cu	0.11539 0.94886 0.27609 0.90700
Cu	Cu	0.11685 0.17996 0.27842 0.90900
O 	O 	0.59400 0.79640 0.32120 -0.35300
O 	O 	0.76760 0.47200 0.18290 -0.37300
O 	O 	0.64090 0.56620 0.23330 -0.48600
O 	O 	0.76660 0.65670 0.18130 -0.37100
O 	O 	0.59310 0.83160 0.18290 -0.36400
F 	F 	0.64000 0.56200 0.13210 -0.31800
P 	P 	0.70830 0.56420 0.18299 0.62600
Cu	Cu	0.61539 0.44886 0.27609 0.90500
Cu	Cu	0.61685 0.67996 0.27842 0.90700
O 	O 	0.90600 0.29640 0.32120 -0.38000
O 	O 	0.73240 0.97200 0.18290 -0.37300
O 	O 	0.85910 0.06620 0.23330 -0.49700
O 	O 	0.73340 0.15670 0.18130 -0.37100
O 	O 	0.90690 0.33160 0.18290 -0.39000
F 	F 	0.86000 0.06200 0.13210 -0.32900
P 	P 	0.79170 0.06420 0.18299 0.62500
Cu	Cu	0.88461 0.94886 0.27609 0.89600
Cu	Cu	0.88315 0.17996 0.27842 0.89800
O 	O 	0.40600 0.79640 0.32120 -0.35200
O 	O 	0.23240 0.47200 0.18290 -0.36800
O 	O 	0.35910 0.56620 0.23330 -0.48600
O 	O 	0.23340 0.65670 0.18130 -0.36600
O 	O 	0.40690 0.83160 0.18290 -0.36300
F 	F 	0.36000 0.56200 0.13210 -0.31500
P 	P 	0.29170 0.56420 0.18299 0.62700
Cu	Cu	0.38461 0.44886 0.27609 0.90500
Cu	Cu	0.38315 0.67996 0.27842 0.90700
O 	O 	0.09400 0.79640 0.17880 -0.35200
O 	O 	0.26760 0.47200 0.31710 -0.37000
O 	O 	0.14090 0.56620 0.26670 -0.48400
O 	O 	0.26660 0.65670 0.31870 -0.36700
O 	O 	0.09310 0.83160 0.31710 -0.36200
F 	F 	0.14000 0.56200 0.36790 -0.31200
P 	P 	0.20830 0.56420 0.31701 0.62600
Cu	Cu	0.11539 0.44886 0.22391 0.90700
Cu	Cu	0.11685 0.67996 0.22158 0.90900
O 	O 	0.59400 0.29640 0.17880 -0.35400
O 	O 	0.76760 0.97200 0.31710 -0.37300
O 	O 	0.64090 0.06620 0.26670 -0.48600
O 	O 	0.76660 0.15670 0.31870 -0.37100
O 	O 	0.59310 0.33160 0.31710 -0.36400
F 	F 	0.64000 0.06200 0.36790 -0.31800
P 	P 	0.70830 0.06420 0.31701 0.62600
Cu	Cu	0.61539 0.94886 0.22391 0.90500
Cu	Cu	0.61685 0.17996 0.22158 0.90700
O 	O 	-0.00000 0.70950 0.26420 -0.48400
O 	O 	0.00000 0.92090 0.23170 -0.46600
F 	F 	-0.00000 0.92350 0.13080 -0.30500
F 	F 	-0.00000 0.70380 0.36480 -0.32000
P 	P 	-0.00000 0.85420 0.18060 0.64300
P 	P 	-0.00000 0.77140 0.31540 0.66200
O 	O 	0.50000 0.20950 0.26420 -0.49700
O 	O 	0.50000 0.42090 0.23170 -0.47800
F 	F 	0.50000 0.42350 0.13080 -0.31500
F 	F 	0.50000 0.20380 0.36480 -0.33000
P 	P 	0.50000 0.35420 0.18060 0.61600
P 	P 	0.50000 0.27140 0.31540 0.63600
O 	O 	0.00000 0.20950 0.23580 -0.48400
O 	O 	-0.00000 0.42090 0.26830 -0.46600
F 	F 	-0.00000 0.42350 0.36920 -0.30400
F 	F 	0.00000 0.20380 0.13520 -0.32000
P 	P 	-0.00000 0.35420 0.31940 0.64300
P 	P 	0.00000 0.27140 0.18460 0.66200
O 	O 	0.50000 0.70950 0.23580 -0.49700
O 	O 	0.50000 0.92090 0.26830 -0.47800
F 	F 	0.50000 0.92350 0.36920 -0.31400
F 	F 	0.50000 0.70380 0.13520 -0.33000
P 	P 	0.50000 0.85420 0.31940 0.61600
P 	P 	0.50000 0.77140 0.18460 0.63600
