data_crystal

_cell_length_a 24.41500
_cell_length_b 24.41500
_cell_length_c 15.33700
_cell_angle_alpha 90.00000
_cell_angle_beta  90.00000
_cell_angle_gamma 90.00000

_symmetry_space_group_name_	'P 1'
_symmetry_space_group_name_H-M	'P 1'

loop_
_symmetry_equiv_pos_as_xyz
  x,y,z

loop_
_atom_site_label
_atom_site_type_symbol
_atom_site_fract_x
_atom_site_fract_y
_atom_site_fract_z
_atom_site_charge
Cu	Cu	0.31400 0.10371 0.75579 0.86400
N 	N 	0.05820 0.01770 0.34730 -0.27100
C 	C 	0.10650 0.99200 0.34660 0.17900
H 	H 	0.11240 0.96430 0.30610 -0.05200
N 	N 	0.26130 0.08560 0.66160 -0.23100
C 	C 	0.14760 0.00500 0.40330 -0.26500
H 	H 	0.18080 0.98650 0.40080 0.12800
N 	N 	0.26190 0.08350 0.85090 -0.25700
C 	C 	0.13960 0.04620 0.46520 0.11300
N 	N 	0.05820 0.02050 0.16230 -0.23700
C 	C 	0.08990 0.07370 0.46240 -0.19000
H 	H 	0.08290 0.10220 0.50120 0.08800
C 	C 	0.05110 0.05880 0.40230 0.11000
H 	H 	0.01850 0.07840 0.40010 -0.03700
C 	C 	0.27210 0.05260 0.59110 0.05500
H 	H 	0.30680 0.03720 0.58630 -0.01000
C 	C 	0.23470 0.04150 0.52810 -0.11100
H 	H 	0.24540 0.02020 0.48080 0.05500
C 	C 	0.18190 0.06020 0.53100 0.01000
C 	C 	0.17040 0.09350 0.60160 -0.10500
H 	H 	0.13520 0.10780 0.60730 0.05300
C 	C 	0.20940 0.10660 0.66460 0.04200
H 	H 	0.19990 0.13030 0.70970 -0.01500
C 	C 	0.24870 0.11920 0.91340 0.10600
H 	H 	0.26580 0.15320 0.91440 -0.03000
C 	C 	0.21040 0.10700 0.97690 -0.19600
H 	H 	0.20310 0.13240 0.02050 0.09000
C 	C 	0.18360 0.05930 0.97640 0.12700
C 	C 	0.19690 0.02290 0.91120 -0.24800
H 	H 	0.17950 0.98910 0.90880 0.12000
C 	C 	0.23430 0.03570 0.85180 0.13700
H 	H 	0.24180 0.01030 0.80830 -0.04800
C 	C 	0.08530 0.06870 0.16880 0.03400
H 	H 	0.07690 0.09360 0.21270 -0.00900
C 	C 	0.12670 0.08000 0.10730 -0.08900
H 	H 	0.14490 0.11330 0.11220 0.05000
C 	C 	0.14180 0.04690 0.04260 -0.01700
C 	C 	0.11000 0.99810 0.03680 -0.08100
H 	H 	0.11690 0.97360 0.99180 0.05600
C 	C 	0.06990 0.98660 0.09530 0.06500
H 	H 	0.04990 0.95440 0.08910 -0.01200
Cu	Cu	0.68600 0.89629 0.75579 0.86400
N 	N 	0.94180 0.98230 0.34730 -0.20600
C 	C 	0.89350 0.00800 0.34660 -0.00500
H 	H 	0.88760 0.03570 0.30610 0.00400
N 	N 	0.73870 0.91440 0.66160 -0.23700
C 	C 	0.85240 0.99500 0.40330 -0.03900
H 	H 	0.81920 0.01350 0.40080 0.02300
N 	N 	0.73810 0.91650 0.85090 -0.23600
C 	C 	0.86040 0.95380 0.46520 0.00900
N 	N 	0.94180 0.97950 0.16230 -0.21800
C 	C 	0.91010 0.92630 0.46240 -0.10600
H 	H 	0.91710 0.89780 0.50120 0.06700
C 	C 	0.94890 0.94120 0.40230 0.06600
H 	H 	0.98150 0.92160 0.40010 -0.00500
C 	C 	0.72790 0.94740 0.59110 0.08100
H 	H 	0.69320 0.96280 0.58630 -0.01300
C 	C 	0.76530 0.95850 0.52810 -0.15100
H 	H 	0.75460 0.97980 0.48080 0.08100
C 	C 	0.81810 0.93980 0.53100 0.07500
C 	C 	0.82960 0.90650 0.60160 -0.14100
H 	H 	0.86480 0.89220 0.60730 0.07100
C 	C 	0.79060 0.89340 0.66460 0.06400
H 	H 	0.80010 0.86970 0.70970 -0.01900
C 	C 	0.75130 0.88080 0.91340 0.07300
H 	H 	0.73420 0.84680 0.91440 -0.01600
C 	C 	0.78960 0.89300 0.97690 -0.13200
H 	H 	0.79690 0.86760 0.02050 0.06900
C 	C 	0.81640 0.94070 0.97640 0.04100
C 	C 	0.80310 0.97710 0.91120 -0.10300
H 	H 	0.82050 0.01090 0.90880 0.04400
C 	C 	0.76570 0.96430 0.85180 0.06100
H 	H 	0.75820 0.98970 0.80830 -0.01200
C 	C 	0.91470 0.93130 0.16880 0.06600
H 	H 	0.92310 0.90640 0.21270 -0.01100
C 	C 	0.87330 0.92000 0.10730 -0.13600
H 	H 	0.85510 0.88670 0.11220 0.07100
C 	C 	0.85820 0.95310 0.04260 0.07200
C 	C 	0.89000 0.00190 0.03680 -0.15500
H 	H 	0.88310 0.02640 0.99180 0.07700
C 	C 	0.93010 0.01340 0.09530 0.06200
H 	H 	0.95010 0.04560 0.08910 -0.00700
Cu	Cu	0.39629 0.18600 0.75579 0.86300
N 	N 	0.48230 0.44180 0.34730 -0.24000
C 	C 	0.50800 0.39350 0.34660 0.08200
H 	H 	0.53570 0.38760 0.30610 -0.02400
N 	N 	0.41440 0.23870 0.66160 -0.23500
C 	C 	0.49500 0.35240 0.40330 -0.14700
H 	H 	0.51350 0.31920 0.40080 0.07200
N 	N 	0.41650 0.23810 0.85090 -0.24600
C 	C 	0.45380 0.36040 0.46520 0.05800
N 	N 	0.47950 0.44180 0.16230 -0.22900
C 	C 	0.42630 0.41010 0.46240 -0.14600
H 	H 	0.39780 0.41710 0.50120 0.07700
C 	C 	0.44120 0.44890 0.40230 0.08700
H 	H 	0.42160 0.48150 0.40010 -0.02100
C 	C 	0.44740 0.22790 0.59110 0.06800
H 	H 	0.46280 0.19320 0.58630 -0.01300
C 	C 	0.45850 0.26530 0.52810 -0.13200
H 	H 	0.47980 0.25460 0.48080 0.06800
C 	C 	0.43980 0.31810 0.53100 0.04400
C 	C 	0.40650 0.32960 0.60160 -0.12400
H 	H 	0.39220 0.36480 0.60730 0.06200
C 	C 	0.39340 0.29060 0.66460 0.05300
H 	H 	0.36970 0.30010 0.70970 -0.01800
C 	C 	0.38080 0.25130 0.91340 0.08800
H 	H 	0.34680 0.23420 0.91440 -0.02300
C 	C 	0.39300 0.28960 0.97690 -0.16300
H 	H 	0.36760 0.29690 0.02050 0.07800
C 	C 	0.44070 0.31640 0.97640 0.08200
C 	C 	0.47710 0.30310 0.91120 -0.17300
H 	H 	0.51090 0.32050 0.90880 0.08000
C 	C 	0.46430 0.26570 0.85180 0.09700
H 	H 	0.48970 0.25820 0.80830 -0.03000
C 	C 	0.43130 0.41470 0.16880 0.05100
H 	H 	0.40640 0.42310 0.21270 -0.01100
C 	C 	0.42000 0.37330 0.10730 -0.11400
H 	H 	0.38670 0.35510 0.11220 0.06000
C 	C 	0.45310 0.35820 0.04260 0.02900
C 	C 	0.50190 0.39000 0.03680 -0.12000
H 	H 	0.52640 0.38310 0.99180 0.06700
C 	C 	0.51340 0.43010 0.09530 0.06300
H 	H 	0.54560 0.45010 0.08910 -0.01000
Cu	Cu	0.60371 0.81400 0.75579 0.86400
N 	N 	0.51770 0.55820 0.34730 -0.24000
C 	C 	0.49200 0.60650 0.34660 0.08300
H 	H 	0.46430 0.61240 0.30610 -0.02400
N 	N 	0.58560 0.76130 0.66160 -0.23400
C 	C 	0.50500 0.64760 0.40330 -0.14700
H 	H 	0.48650 0.68080 0.40080 0.07400
N 	N 	0.58350 0.76190 0.85090 -0.24600
C 	C 	0.54620 0.63960 0.46520 0.05900
N 	N 	0.52050 0.55820 0.16230 -0.22900
C 	C 	0.57370 0.58990 0.46240 -0.14600
H 	H 	0.60220 0.58290 0.50120 0.07700
C 	C 	0.55880 0.55110 0.40230 0.08700
H 	H 	0.57840 0.51850 0.40010 -0.02100
C 	C 	0.55260 0.77210 0.59110 0.06900
H 	H 	0.53720 0.80680 0.58630 -0.01000
C 	C 	0.54150 0.73470 0.52810 -0.13100
H 	H 	0.52020 0.74540 0.48080 0.06900
C 	C 	0.56020 0.68190 0.53100 0.04400
C 	C 	0.59350 0.67040 0.60160 -0.12400
H 	H 	0.60780 0.63520 0.60730 0.06200
C 	C 	0.60660 0.70940 0.66460 0.05300
H 	H 	0.63030 0.69990 0.70970 -0.01700
C 	C 	0.61920 0.74870 0.91340 0.08900
H 	H 	0.65320 0.76580 0.91440 -0.02200
C 	C 	0.60700 0.71040 0.97690 -0.16300
H 	H 	0.63240 0.70310 0.02050 0.08000
C 	C 	0.55930 0.68360 0.97640 0.08200
C 	C 	0.52290 0.69690 0.91120 -0.17200
H 	H 	0.48910 0.67950 0.90880 0.08100
C 	C 	0.53570 0.73430 0.85180 0.09800
H 	H 	0.51030 0.74180 0.80830 -0.02900
C 	C 	0.56870 0.58530 0.16880 0.05100
H 	H 	0.59360 0.57690 0.21270 -0.01100
C 	C 	0.58000 0.62670 0.10730 -0.11400
H 	H 	0.61330 0.64490 0.11220 0.06100
C 	C 	0.54690 0.64180 0.04260 0.03000
C 	C 	0.49810 0.61000 0.03680 -0.12000
H 	H 	0.47360 0.61690 0.99180 0.06700
C 	C 	0.48660 0.56990 0.09530 0.06300
H 	H 	0.45440 0.54990 0.08910 -0.01000
Cu	Cu	0.00000 0.00000 0.25410 0.83000
Cu	Cu	0.50000 0.50000 0.25410 0.84500
O 	O 	0.36740 0.13260 0.67090 -0.44400
O 	O 	0.36680 0.13320 0.83880 -0.45200
O 	O 	0.63260 0.86740 0.67090 -0.44000
O 	O 	0.63320 0.86680 0.83880 -0.44800
Cu	Cu	0.10371 0.68600 0.24421 0.86300
N 	N 	0.01770 0.94180 0.65270 -0.26200
C 	C 	0.99200 0.89350 0.65340 0.17000
H 	H 	0.96430 0.88760 0.69390 -0.04900
N 	N 	0.08560 0.73870 0.33840 -0.23200
C 	C 	0.00500 0.85240 0.59670 -0.25300
H 	H 	0.98650 0.81920 0.59920 0.12300
N 	N 	0.08350 0.73810 0.14910 -0.25600
C 	C 	0.04620 0.86040 0.53480 0.10800
N 	N 	0.02050 0.94180 0.83770 -0.23000
C 	C 	0.07370 0.91010 0.53760 -0.18300
H 	H 	0.10220 0.91710 0.49880 0.09200
C 	C 	0.05880 0.94890 0.59770 0.10900
H 	H 	0.07840 0.98150 0.59990 -0.02200
C 	C 	0.05260 0.72790 0.40890 0.05700
H 	H 	0.03720 0.69320 0.41370 -0.01100
C 	C 	0.04150 0.76530 0.47190 -0.11300
H 	H 	0.02020 0.75460 0.51920 0.05700
C 	C 	0.06020 0.81810 0.46900 0.01500
C 	C 	0.09350 0.82960 0.39840 -0.10700
H 	H 	0.10780 0.86480 0.39270 0.05600
C 	C 	0.10660 0.79060 0.33540 0.04400
H 	H 	0.13030 0.80010 0.29030 -0.01300
C 	C 	0.11920 0.75130 0.08660 0.10600
H 	H 	0.15320 0.73420 0.08560 -0.02900
C 	C 	0.10700 0.78960 0.02310 -0.19500
H 	H 	0.13240 0.79690 0.97950 0.09100
C 	C 	0.05930 0.81640 0.02360 0.12500
C 	C 	0.02290 0.80310 0.08880 -0.24300
H 	H 	0.98910 0.82050 0.09120 0.11700
C 	C 	0.03570 0.76570 0.14820 0.13500
H 	H 	0.01030 0.75820 0.19170 -0.04700
C 	C 	0.06870 0.91470 0.83120 0.03600
H 	H 	0.09360 0.92310 0.78730 -0.00400
C 	C 	0.08000 0.87330 0.89270 -0.08900
H 	H 	0.11330 0.85510 0.88780 0.05200
C 	C 	0.04690 0.85820 0.95740 -0.01400
C 	C 	0.99810 0.89000 0.96320 -0.08100
H 	H 	0.97360 0.88310 0.00820 0.05700
C 	C 	0.98660 0.93010 0.90470 0.06400
H 	H 	0.95440 0.95010 0.91090 -0.00300
Cu	Cu	0.89629 0.31400 0.24421 0.86400
N 	N 	0.98230 0.05820 0.65270 -0.21000
C 	C 	0.00800 0.10650 0.65340 -0.01400
H 	H 	0.03570 0.11240 0.69390 0.00500
N 	N 	0.91440 0.26130 0.33840 -0.23800
C 	C 	0.99500 0.14760 0.59670 -0.03000
H 	H 	0.01350 0.18080 0.59920 0.01800
N 	N 	0.91650 0.26190 0.14910 -0.23500
C 	C 	0.95380 0.13960 0.53480 0.00500
N 	N 	0.97950 0.05820 0.83770 -0.22300
C 	C 	0.92630 0.08990 0.53760 -0.10500
H 	H 	0.89780 0.08290 0.49880 0.06100
C 	C 	0.94120 0.05110 0.59770 0.06200
H 	H 	0.92160 0.01850 0.59990 -0.01700
C 	C 	0.94740 0.27210 0.40890 0.08100
H 	H 	0.96280 0.30680 0.41370 -0.01300
C 	C 	0.95850 0.23470 0.47190 -0.15200
H 	H 	0.97980 0.24540 0.51920 0.08200
C 	C 	0.93980 0.18190 0.46900 0.07700
C 	C 	0.90650 0.17040 0.39840 -0.14200
H 	H 	0.89220 0.13520 0.39270 0.06900
C 	C 	0.89340 0.20940 0.33540 0.06300
H 	H 	0.86970 0.19990 0.29030 -0.02100
C 	C 	0.88080 0.24870 0.08660 0.07000
H 	H 	0.84680 0.26580 0.08560 -0.01600
C 	C 	0.89300 0.21040 0.02310 -0.12900
H 	H 	0.86760 0.20310 0.97950 0.06700
C 	C 	0.94070 0.18360 0.02360 0.03600
C 	C 	0.97710 0.19690 0.08880 -0.09600
H 	H 	0.01090 0.17950 0.09120 0.04000
C 	C 	0.96430 0.23430 0.14820 0.05700
H 	H 	0.98970 0.24180 0.19170 -0.01000
C 	C 	0.93130 0.08530 0.83120 0.06700
H 	H 	0.90640 0.07690 0.78730 -0.01700
C 	C 	0.92000 0.12670 0.89270 -0.14000
H 	H 	0.88670 0.14490 0.88780 0.07000
C 	C 	0.95310 0.14180 0.95740 0.07700
C 	C 	0.00190 0.11000 0.96320 -0.16100
H 	H 	0.02640 0.11690 0.00820 0.07800
C 	C 	0.01340 0.06990 0.90470 0.06000
H 	H 	0.04560 0.04990 0.91090 -0.01700
Cu	Cu	0.18600 0.60371 0.24421 0.86300
N 	N 	0.44180 0.51770 0.65270 -0.24000
C 	C 	0.39350 0.49200 0.65340 0.08200
H 	H 	0.38760 0.46430 0.69390 -0.02400
N 	N 	0.23870 0.58560 0.33840 -0.23500
C 	C 	0.35240 0.50500 0.59670 -0.14700
H 	H 	0.31920 0.48650 0.59920 0.07200
N 	N 	0.23810 0.58350 0.14910 -0.24600
C 	C 	0.36040 0.54620 0.53480 0.05900
N 	N 	0.44180 0.52050 0.83770 -0.22900
C 	C 	0.41010 0.57370 0.53760 -0.14600
H 	H 	0.41710 0.60220 0.49880 0.07700
C 	C 	0.44890 0.55880 0.59770 0.08700
H 	H 	0.48150 0.57840 0.59990 -0.02100
C 	C 	0.22790 0.55260 0.40890 0.06800
H 	H 	0.19320 0.53720 0.41370 -0.01300
C 	C 	0.26530 0.54150 0.47190 -0.13200
H 	H 	0.25460 0.52020 0.51920 0.06800
C 	C 	0.31810 0.56020 0.46900 0.04400
C 	C 	0.32960 0.59350 0.39840 -0.12400
H 	H 	0.36480 0.60780 0.39270 0.06200
C 	C 	0.29060 0.60660 0.33540 0.05300
H 	H 	0.30010 0.63030 0.29030 -0.01700
C 	C 	0.25130 0.61920 0.08660 0.08900
H 	H 	0.23420 0.65320 0.08560 -0.02200
C 	C 	0.28960 0.60700 0.02310 -0.16300
H 	H 	0.29690 0.63240 0.97950 0.07900
C 	C 	0.31640 0.55930 0.02360 0.08200
C 	C 	0.30310 0.52290 0.08880 -0.17300
H 	H 	0.32050 0.48910 0.09120 0.08000
C 	C 	0.26570 0.53570 0.14820 0.09700
H 	H 	0.25820 0.51030 0.19170 -0.03000
C 	C 	0.41470 0.56870 0.83120 0.05100
H 	H 	0.42310 0.59360 0.78730 -0.01100
C 	C 	0.37330 0.58000 0.89270 -0.11400
H 	H 	0.35510 0.61330 0.88780 0.06100
C 	C 	0.35820 0.54690 0.95740 0.02900
C 	C 	0.39000 0.49810 0.96320 -0.12000
H 	H 	0.38310 0.47360 0.00820 0.06700
C 	C 	0.43010 0.48660 0.90470 0.06300
H 	H 	0.45010 0.45440 0.91090 -0.01000
Cu	Cu	0.81400 0.39629 0.24421 0.86400
N 	N 	0.55820 0.48230 0.65270 -0.24000
C 	C 	0.60650 0.50800 0.65340 0.08300
H 	H 	0.61240 0.53570 0.69390 -0.02400
N 	N 	0.76130 0.41440 0.33840 -0.23400
C 	C 	0.64760 0.49500 0.59670 -0.14700
H 	H 	0.68080 0.51350 0.59920 0.07400
N 	N 	0.76190 0.41650 0.14910 -0.24600
C 	C 	0.63960 0.45380 0.53480 0.05900
N 	N 	0.55820 0.47950 0.83770 -0.22900
C 	C 	0.58990 0.42630 0.53760 -0.14600
H 	H 	0.58290 0.39780 0.49880 0.07700
C 	C 	0.55110 0.44120 0.59770 0.08700
H 	H 	0.51850 0.42160 0.59990 -0.02100
C 	C 	0.77210 0.44740 0.40890 0.06900
H 	H 	0.80680 0.46280 0.41370 -0.01000
C 	C 	0.73470 0.45850 0.47190 -0.13100
H 	H 	0.74540 0.47980 0.51920 0.06900
C 	C 	0.68190 0.43980 0.46900 0.04400
C 	C 	0.67040 0.40650 0.39840 -0.12400
H 	H 	0.63520 0.39220 0.39270 0.06200
C 	C 	0.70940 0.39340 0.33540 0.05300
H 	H 	0.69990 0.36970 0.29030 -0.01800
C 	C 	0.74870 0.38080 0.08660 0.08900
H 	H 	0.76580 0.34680 0.08560 -0.02300
C 	C 	0.71040 0.39300 0.02310 -0.16300
H 	H 	0.70310 0.36760 0.97950 0.07900
C 	C 	0.68360 0.44070 0.02360 0.08200
C 	C 	0.69690 0.47710 0.08880 -0.17200
H 	H 	0.67950 0.51090 0.09120 0.08100
C 	C 	0.73430 0.46430 0.14820 0.09800
H 	H 	0.74180 0.48970 0.19170 -0.02900
C 	C 	0.58530 0.43130 0.83120 0.05100
H 	H 	0.57690 0.40640 0.78730 -0.01100
C 	C 	0.62670 0.42000 0.89270 -0.11400
H 	H 	0.64490 0.38670 0.88780 0.06100
C 	C 	0.64180 0.45310 0.95740 0.03000
C 	C 	0.61000 0.50190 0.96320 -0.12000
H 	H 	0.61690 0.52640 0.00820 0.06700
C 	C 	0.56990 0.51340 0.90470 0.06300
H 	H 	0.54990 0.54560 0.91090 -0.01000
Cu	Cu	0.00000 0.00000 0.74590 0.83000
Cu	Cu	0.50000 0.50000 0.74590 0.84500
O 	O 	0.13260 0.63260 0.32910 -0.44300
O 	O 	0.13320 0.63320 0.16120 -0.45200
O 	O 	0.86740 0.36740 0.32910 -0.44000
O 	O 	0.86680 0.36680 0.16120 -0.44800
