data_crystal

_cell_length_a 17.57300
_cell_length_b 16.52800
_cell_length_c 17.59500
_cell_angle_alpha 90.00000
_cell_angle_beta  90.00000
_cell_angle_gamma 90.00000

_symmetry_space_group_name_	'P 1'
_symmetry_space_group_name_H-M	'P 1'

loop_
_symmetry_equiv_pos_as_xyz
  x,y,z

loop_
_atom_site_label
_atom_site_type_symbol
_atom_site_fract_x
_atom_site_fract_y
_atom_site_fract_z
_atom_site_charge
N 	N 	0.33460 0.66550 0.38790 -0.16000
N 	N 	0.16580 0.58930 0.17940 -0.16600
N 	N 	0.11010 0.82550 0.33540 -0.16500
C 	C 	0.26700 0.67890 0.34430 0.21600
C 	C 	0.15890 0.75760 0.31690 0.21400
C 	C 	0.22310 0.74460 0.36050 -0.28700
H 	H 	0.23590 0.77960 0.39980 0.13500
N 	N 	0.04920 0.91710 0.40200 -0.23500
C 	C 	0.09250 0.85280 0.40460 0.10300
H 	H 	0.10910 0.82890 0.44940 -0.02800
C 	C 	0.18460 0.64170 0.24140 0.20800
C 	C 	0.13940 0.70800 0.25690 -0.28000
H 	H 	0.09670 0.71900 0.22740 0.11700
C 	C 	0.24970 0.62680 0.28370 -0.27300
H 	H 	0.28110 0.58320 0.27220 0.12400
C 	C 	0.10350 0.59190 0.13670 0.09300
H 	H 	0.06440 0.62890 0.14420 -0.04500
C 	C 	0.36440 0.59390 0.40840 0.09400
H 	H 	0.34380 0.54390 0.39590 -0.02100
C 	C 	0.07720 0.87720 0.28430 0.00800
H 	H 	0.08010 0.87430 0.23160 0.01400
C 	C 	0.38280 0.72480 0.41550 0.00300
H 	H 	0.37720 0.78040 0.40980 0.03200
C 	C 	0.03930 0.93330 0.32580 -0.01300
H 	H 	0.01110 0.97600 0.30600 0.01100
C 	C 	0.20890 0.52660 0.15090 -0.00400
H 	H 	0.25600 0.50930 0.16860 0.01800
N 	N 	0.10260 0.53700 0.08300 -0.25600
C 	C 	0.16940 0.49570 0.09300 -0.01800
H 	H 	0.18510 0.45200 0.06350 -0.00600
N 	N 	0.42720 0.60430 0.44880 -0.23700
C 	C 	0.43880 0.68660 0.45180 -0.00200
H 	H 	0.47960 0.71180 0.47560 0.01700
N 	N 	0.16540 0.33450 0.88790 -0.16000
N 	N 	0.33420 0.41070 0.67940 -0.16400
N 	N 	0.38990 0.17450 0.83540 -0.16200
C 	C 	0.23300 0.32110 0.84430 0.22600
C 	C 	0.34110 0.24240 0.81690 0.22600
C 	C 	0.27690 0.25540 0.86050 -0.29000
H 	H 	0.26410 0.22040 0.89980 0.13900
N 	N 	0.45080 0.08290 0.90200 -0.22500
C 	C 	0.40750 0.14720 0.90460 0.10900
H 	H 	0.39090 0.17110 0.94940 -0.00200
C 	C 	0.31540 0.35830 0.74140 0.22200
C 	C 	0.36060 0.29200 0.75690 -0.28400
H 	H 	0.40330 0.28100 0.72740 0.13300
C 	C 	0.25030 0.37320 0.78370 -0.27700
H 	H 	0.21890 0.41680 0.77220 0.12700
C 	C 	0.39650 0.40810 0.63670 0.10800
H 	H 	0.43560 0.37110 0.64420 -0.02300
C 	C 	0.13560 0.40610 0.90840 0.10000
H 	H 	0.15620 0.45610 0.89590 -0.01100
C 	C 	0.42280 0.12280 0.78430 0.00700
H 	H 	0.41990 0.12570 0.73160 0.01700
C 	C 	0.11720 0.27520 0.91550 0.00500
H 	H 	0.12280 0.21960 0.90980 0.01900
C 	C 	0.46070 0.06670 0.82580 -0.01500
H 	H 	0.48890 0.02400 0.80600 0.00500
C 	C 	0.29110 0.47340 0.65090 0.00900
H 	H 	0.24400 0.49070 0.66860 0.02000
N 	N 	0.39740 0.46300 0.58300 -0.23100
C 	C 	0.33060 0.50430 0.59300 -0.00900
H 	H 	0.31490 0.54800 0.56350 0.01800
N 	N 	0.07280 0.39570 0.94880 -0.23000
C 	C 	0.06120 0.31340 0.95180 -0.00700
H 	H 	0.02040 0.28820 0.97560 0.01000
N 	N 	0.66540 0.16550 0.11210 -0.16100
N 	N 	0.83420 0.08930 0.32060 -0.14600
N 	N 	0.88990 0.32550 0.16460 -0.16200
C 	C 	0.73300 0.17890 0.15570 0.21000
C 	C 	0.84110 0.25760 0.18310 0.22000
C 	C 	0.77690 0.24460 0.13950 -0.28400
H 	H 	0.76410 0.27960 0.10020 0.12300
N 	N 	0.95080 0.41710 0.09800 -0.22600
C 	C 	0.90750 0.35280 0.09540 0.11000
H 	H 	0.89090 0.32890 0.05060 -0.03600
C 	C 	0.81540 0.14170 0.25860 0.21400
C 	C 	0.86060 0.20800 0.24310 -0.28000
H 	H 	0.90330 0.21900 0.27260 0.14000
C 	C 	0.75030 0.12680 0.21630 -0.26900
H 	H 	0.71890 0.08320 0.22780 0.12000
C 	C 	0.89650 0.09190 0.36330 0.10500
H 	H 	0.93560 0.12890 0.35580 -0.00400
C 	C 	0.63560 0.09390 0.09160 0.08100
H 	H 	0.65620 0.04390 0.10410 -0.03600
C 	C 	0.92280 0.37720 0.21570 0.01600
H 	H 	0.91990 0.37430 0.26840 0.03300
C 	C 	0.61720 0.22480 0.08450 -0.00700
H 	H 	0.62280 0.28040 0.09020 0.01900
C 	C 	0.96070 0.43330 0.17420 -0.00600
H 	H 	0.98890 0.47600 0.19400 0.04200
C 	C 	0.79110 0.02660 0.34910 -0.11300
H 	H 	0.74400 0.00930 0.33140 0.05300
N 	N 	0.89740 0.03700 0.41700 -0.26000
C 	C 	0.83060 0.99570 0.40700 0.15400
H 	H 	0.81490 0.95200 0.43650 -0.01900
N 	N 	0.57280 0.10430 0.05120 -0.25500
C 	C 	0.56120 0.18660 0.04820 -0.01000
H 	H 	0.52040 0.21180 0.02440 -0.00700
N 	N 	0.83460 0.83450 0.61210 -0.15900
N 	N 	0.66580 0.91070 0.82060 -0.18000
N 	N 	0.61010 0.67450 0.66460 -0.16300
C 	C 	0.76700 0.82110 0.65570 0.24000
C 	C 	0.65890 0.74240 0.68310 0.23500
C 	C 	0.72310 0.75540 0.63950 -0.29500
H 	H 	0.73590 0.72040 0.60020 0.14100
N 	N 	0.54920 0.58290 0.59800 -0.23400
C 	C 	0.59250 0.64720 0.59540 0.11000
H 	H 	0.60910 0.67110 0.55060 -0.02100
C 	C 	0.68460 0.85830 0.75860 0.24300
C 	C 	0.63940 0.79200 0.74310 -0.29100
H 	H 	0.59670 0.78100 0.77260 0.14100
C 	C 	0.74970 0.87320 0.71630 -0.28400
H 	H 	0.78110 0.91680 0.72780 0.14700
C 	C 	0.60350 0.90810 0.86330 0.12600
H 	H 	0.56440 0.87110 0.85580 -0.01800
C 	C 	0.86440 0.90610 0.59160 0.10700
H 	H 	0.84380 0.95610 0.60410 -0.00400
C 	C 	0.57720 0.62280 0.71570 0.01200
H 	H 	0.58010 0.62570 0.76840 0.03100
C 	C 	0.88280 0.77520 0.58450 0.01700
H 	H 	0.87720 0.71960 0.59020 0.03600
C 	C 	0.53930 0.56670 0.67420 -0.00900
H 	H 	0.51110 0.52400 0.69400 0.02200
C 	C 	0.70890 0.97340 0.84910 0.14400
H 	H 	0.75600 0.99070 0.83140 0.00300
N 	N 	0.60260 0.96300 0.91700 -0.16400
C 	C 	0.66940 0.00430 0.90700 -0.15500
H 	H 	0.68510 0.04800 0.93650 0.08800
N 	N 	0.92720 0.89570 0.55120 -0.21000
C 	C 	0.93880 0.81340 0.54820 0.00700
H 	H 	0.97960 0.78820 0.52440 0.04400
N 	N 	0.66540 0.33450 0.61210 -0.16000
N 	N 	0.83420 0.41070 0.82060 -0.16200
N 	N 	0.88990 0.17450 0.66460 -0.16200
C 	C 	0.73300 0.32110 0.65570 0.22900
C 	C 	0.84110 0.24240 0.68310 0.23300
C 	C 	0.77690 0.25540 0.63950 -0.29200
H 	H 	0.76410 0.22040 0.60020 0.13300
N 	N 	0.95080 0.08290 0.59800 -0.22300
C 	C 	0.90750 0.14720 0.59540 0.11300
H 	H 	0.89090 0.17110 0.55060 -0.01500
C 	C 	0.81540 0.35830 0.75860 0.23600
C 	C 	0.86060 0.29200 0.74310 -0.28700
H 	H 	0.90330 0.28100 0.77260 0.14800
C 	C 	0.75030 0.37320 0.71630 -0.27800
H 	H 	0.71890 0.41680 0.72780 0.13500
C 	C 	0.89650 0.40810 0.86330 0.12300
H 	H 	0.93560 0.37110 0.85580 0.00000
C 	C 	0.63560 0.40610 0.59160 0.09700
H 	H 	0.65620 0.45610 0.60410 -0.01600
C 	C 	0.92280 0.12280 0.71570 0.01400
H 	H 	0.91990 0.12570 0.76840 0.03400
C 	C 	0.61720 0.27520 0.58450 0.00600
H 	H 	0.62280 0.21960 0.59020 0.02100
C 	C 	0.96070 0.06670 0.67420 -0.00800
H 	H 	0.98890 0.02400 0.69400 0.02900
C 	C 	0.79110 0.47340 0.84910 0.02300
H 	H 	0.74400 0.49070 0.83140 0.02900
N 	N 	0.89740 0.46300 0.91700 -0.19600
C 	C 	0.83060 0.50430 0.90700 0.00300
H 	H 	0.81490 0.54800 0.93650 0.04700
N 	N 	0.57280 0.39570 0.55120 -0.23700
C 	C 	0.56120 0.31340 0.54820 -0.00400
H 	H 	0.52040 0.28820 0.52440 0.01300
N 	N 	0.83460 0.66550 0.11210 -0.15900
N 	N 	0.66580 0.58930 0.32060 -0.16400
N 	N 	0.61010 0.82550 0.16460 -0.16300
C 	C 	0.76700 0.67890 0.15570 0.22100
C 	C 	0.65890 0.75760 0.18310 0.22300
C 	C 	0.72310 0.74460 0.13950 -0.28800
H 	H 	0.73590 0.77960 0.10020 0.13100
N 	N 	0.54920 0.91710 0.09800 -0.23300
C 	C 	0.59250 0.85280 0.09540 0.10700
H 	H 	0.60910 0.82890 0.05060 -0.04100
C 	C 	0.68460 0.64170 0.25860 0.22200
C 	C 	0.63940 0.70800 0.24310 -0.28400
H 	H 	0.59670 0.71900 0.27260 0.13200
C 	C 	0.74970 0.62680 0.21630 -0.27500
H 	H 	0.78110 0.58320 0.22780 0.13200
C 	C 	0.60350 0.59190 0.36330 0.10900
H 	H 	0.56440 0.62890 0.35580 -0.02400
C 	C 	0.86440 0.59390 0.09160 0.09200
H 	H 	0.84380 0.54390 0.10410 -0.02300
C 	C 	0.57720 0.87720 0.21570 0.01500
H 	H 	0.58010 0.87430 0.26840 0.03000
C 	C 	0.88280 0.72480 0.08450 0.00500
H 	H 	0.87720 0.78040 0.09020 0.03400
C 	C 	0.53930 0.93330 0.17420 -0.00700
H 	H 	0.51110 0.97600 0.19400 0.03500
C 	C 	0.70890 0.52660 0.34910 0.01000
H 	H 	0.75600 0.50930 0.33140 0.02700
N 	N 	0.60260 0.53700 0.41700 -0.23100
C 	C 	0.66940 0.49570 0.40700 -0.00600
H 	H 	0.68510 0.45200 0.43650 0.02100
N 	N 	0.92720 0.60430 0.05120 -0.23100
C 	C 	0.93880 0.68660 0.04820 0.00200
H 	H 	0.97960 0.71180 0.02440 0.02400
N 	N 	0.33460 0.83450 0.88790 -0.15900
N 	N 	0.16580 0.91070 0.67940 -0.18300
N 	N 	0.11010 0.67450 0.83540 -0.16300
C 	C 	0.26700 0.82110 0.84430 0.23700
C 	C 	0.15890 0.74240 0.81690 0.22900
C 	C 	0.22310 0.75540 0.86050 -0.29400
H 	H 	0.23590 0.72040 0.89980 0.14700
N 	N 	0.04920 0.58290 0.90200 -0.22900
C 	C 	0.09250 0.64720 0.90460 0.10600
H 	H 	0.10910 0.67110 0.94940 -0.00600
C 	C 	0.18460 0.85830 0.74140 0.23000
C 	C 	0.13940 0.79200 0.75690 -0.28800
H 	H 	0.09670 0.78100 0.72740 0.12600
C 	C 	0.24970 0.87320 0.78370 -0.28300
H 	H 	0.28110 0.91680 0.77220 0.14000
C 	C 	0.10350 0.90810 0.63670 0.11100
H 	H 	0.06440 0.87110 0.64420 -0.04000
C 	C 	0.36440 0.90610 0.90840 0.11000
H 	H 	0.34380 0.95610 0.89590 0.00100
C 	C 	0.07720 0.62280 0.78430 0.00500
H 	H 	0.08010 0.62570 0.73160 0.01400
C 	C 	0.38280 0.77520 0.91550 0.01500
H 	H 	0.37720 0.71960 0.90980 0.03400
C 	C 	0.03930 0.56670 0.82580 -0.01600
H 	H 	0.01110 0.52400 0.80600 -0.00100
C 	C 	0.20890 0.97340 0.65090 0.13900
H 	H 	0.25600 0.99070 0.66860 -0.00800
N 	N 	0.10260 0.96300 0.58300 -0.19000
C 	C 	0.16940 0.00430 0.59300 -0.17800
H 	H 	0.18510 0.04800 0.56350 0.06300
N 	N 	0.42720 0.89570 0.94880 -0.20900
C 	C 	0.43880 0.81340 0.95180 0.00500
H 	H 	0.47960 0.78820 0.97560 0.03900
N 	N 	0.16540 0.16550 0.38790 -0.16100
N 	N 	0.33420 0.08930 0.17940 -0.14700
N 	N 	0.38990 0.32550 0.33540 -0.16300
C 	C 	0.23300 0.17890 0.34430 0.20600
C 	C 	0.34110 0.25760 0.31690 0.21200
C 	C 	0.27690 0.24460 0.36050 -0.28200
H 	H 	0.26410 0.27960 0.39980 0.12800
N 	N 	0.45080 0.41710 0.40200 -0.23400
C 	C 	0.40750 0.35280 0.40460 0.10600
H 	H 	0.39090 0.32890 0.44940 -0.02500
C 	C 	0.31540 0.14170 0.24140 0.19900
C 	C 	0.36060 0.20800 0.25690 -0.27600
H 	H 	0.40330 0.21900 0.22740 0.12400
C 	C 	0.25030 0.12680 0.28370 -0.26700
H 	H 	0.21890 0.08320 0.27220 0.11200
C 	C 	0.39650 0.09190 0.13670 0.08900
H 	H 	0.43560 0.12890 0.14420 -0.02700
C 	C 	0.13560 0.09390 0.40840 0.08400
H 	H 	0.15620 0.04390 0.39590 -0.03200
C 	C 	0.42280 0.37720 0.28430 0.00900
H 	H 	0.41990 0.37430 0.23160 0.01700
C 	C 	0.11720 0.22480 0.41550 -0.00800
H 	H 	0.12280 0.28040 0.40980 0.01600
C 	C 	0.46070 0.43330 0.32580 -0.01300
H 	H 	0.48890 0.47600 0.30600 0.01600
C 	C 	0.29110 0.02660 0.15090 -0.13500
H 	H 	0.24400 0.00930 0.16860 0.04600
N 	N 	0.39740 0.03700 0.08300 -0.29300
C 	C 	0.33060 0.99570 0.09300 0.15300
H 	H 	0.31490 0.95200 0.06350 -0.05000
N 	N 	0.07280 0.10430 0.44880 -0.25500
C 	C 	0.06120 0.18660 0.45180 -0.01400
H 	H 	0.02040 0.21180 0.47560 -0.01200
Cd	Cd	-0.00000 -0.00000 0.50000 1.14600
Cd	Cd	0.50000 0.00000 -0.00000 1.14700
Cd	Cd	-0.00000 0.50000 -0.00000 1.13600
Cd	Cd	0.50000 0.50000 0.50000 1.18800
