data_crystal

_cell_length_a 22.12800
_cell_length_b 14.58170
_cell_length_c 28.08300
_cell_angle_alpha 90.00000
_cell_angle_beta  116.31600
_cell_angle_gamma 90.00000

_symmetry_space_group_name_	'P 1'
_symmetry_space_group_name_H-M	'P 1'

loop_
_symmetry_equiv_pos_as_xyz
  x,y,z

loop_
_atom_site_label
_atom_site_type_symbol
_atom_site_fract_x
_atom_site_fract_y
_atom_site_fract_z
_atom_site_charge
Ni	Ni	0.74600 0.32840 0.74428 1.06600
Ni	Ni	0.78102 0.50577 0.46059 1.03500
O 	O 	0.82688 0.33501 0.66539 -0.28700
O 	O 	0.77692 0.41707 0.70439 -0.43500
O 	O 	0.78698 0.73962 0.71597 -0.43200
O 	O 	0.83571 0.82498 0.67718 -0.30700
O 	O 	0.21609 0.57218 0.65146 -0.30900
O 	O 	0.15278 0.51130 0.57211 -0.42700
O 	O 	0.86478 0.55038 0.52755 -0.41100
O 	O 	0.91188 0.41190 0.54990 -0.29500
N 	N 	0.72033 0.53090 0.49717 -0.25000
N 	N 	0.63179 0.53190 0.51353 -0.14100
N 	N 	0.84241 0.32940 0.80790 -0.23100
N 	N 	0.92720 0.30070 0.88616 -0.13300
N 	N 	0.06775 0.20100 0.10108 -0.13900
N 	N 	0.15109 0.17550 0.18056 -0.23200
C 	C 	0.84360 0.49680 0.67377 -0.09100
C 	C 	0.82060 0.57940 0.68421 0.02300
H 	H 	0.78610 0.57950 0.69460 0.04300
C 	C 	0.84880 0.66240 0.67924 -0.09800
C 	C 	0.90130 0.66090 0.66444 -0.01100
H 	H 	0.92080 0.71580 0.66150 0.04100
C 	C 	0.92480 0.57930 0.65409 -0.02600
C 	C 	0.98400 0.57550 0.64129 0.08500
C 	C 	0.04690 0.60640 0.67937 -0.13600
H 	H 	0.05050 0.63360 0.71050 0.08400
C 	C 	0.10370 0.59670 0.67088 0.06000
H 	H 	0.14550 0.61630 0.69660 0.01900
C 	C 	0.09850 0.55770 0.62402 -0.12400
C 	C 	0.03620 0.52720 0.58622 0.06600
H 	H 	0.03260 0.50050 0.55500 0.03400
C 	C 	0.97860 0.53630 0.59477 -0.12900
C 	C 	0.81330 0.40960 0.68119 0.34500
C 	C 	0.82220 0.74930 0.69168 0.34200
C 	C 	0.15990 0.54640 0.61464 0.34500
C 	C 	0.91300 0.49630 0.55419 0.34900
C 	C 	0.68410 0.56900 0.55670 0.02100
H 	H 	0.68320 0.59110 0.58740 0.02600
C 	C 	0.73780 0.56720 0.54570 -0.03200
C 	C 	0.65660 0.50950 0.47920 0.09400
H 	H 	0.63140 0.48200 0.44650 -0.03200
C 	C 	0.51380 0.49920 0.45684 -0.07400
H 	H 	0.52330 0.49850 0.42770 0.05800
C 	C 	0.56470 0.51660 0.50659 0.08800
C 	C 	0.55150 0.51750 0.55036 -0.07200
H 	H 	0.58590 0.52910 0.58410 0.06100
C 	C 	0.95440 0.32390 0.85273 0.00600
H 	H 	0.00010 0.32700 0.86120 0.04500
C 	C 	0.90260 0.34140 0.80522 0.00300
H 	H 	0.90670 0.35900 0.77500 0.03100
C 	C 	0.85970 0.30520 0.85739 0.10100
H 	H 	0.82910 0.29280 0.87090 -0.01300
C 	C 	0.96330 0.27560 0.94103 0.08000
C 	C 	0.93470 0.29290 0.97493 -0.04800
C 	C 	0.03300 0.22640 0.04618 0.10800
C 	C 	0.06130 0.21210 0.01208 -0.09100
H 	H 	0.10400 0.18610 0.02450 0.06600
C 	C 	0.02620 0.23630 0.95925 -0.05000
H 	H 	0.04500 0.22600 0.93600 0.05900
C 	C 	0.03930 0.17400 0.13335 0.00500
H 	H 	0.99360 0.16770 0.12390 0.03000
C 	C 	0.09090 0.15830 0.18140 0.00100
C 	C 	0.13480 0.20020 0.13100 0.10300
H 	H 	0.16610 0.21520 0.11840 -0.00900
C 	C 	0.97010 0.26770 0.02836 -0.09900
C 	C 	0.89490 0.49840 0.65821 -0.01800
H 	H 	0.89500 0.33100 0.96090 0.04900
H 	H 	0.94900 0.28600 0.04820 0.08100
H 	H 	0.91170 0.45000 0.64980 0.05400
H 	H 	0.09000 0.14400 0.21320 0.02300
H 	H 	0.77400 0.58500 0.56200 0.05100
Ni	Ni	0.75400 0.82840 0.75572 1.06500
Ni	Ni	0.71898 0.00577 0.03941 1.03300
O 	O 	0.67312 0.83501 0.83461 -0.28700
O 	O 	0.72308 0.91707 0.79561 -0.43500
O 	O 	0.71302 0.23962 0.78403 -0.43200
O 	O 	0.66429 0.32498 0.82282 -0.30700
O 	O 	0.28391 0.07218 0.84854 -0.30900
O 	O 	0.34722 0.01130 0.92789 -0.42500
O 	O 	0.63522 0.05038 0.97245 -0.40800
O 	O 	0.58812 0.91190 0.95010 -0.29400
N 	N 	0.77967 0.03090 0.00283 -0.25100
N 	N 	0.86821 0.03190 0.98647 -0.13900
N 	N 	0.65759 0.82940 0.69210 -0.23100
N 	N 	0.57280 0.80070 0.61384 -0.13400
N 	N 	0.43225 0.70100 0.39892 -0.13800
N 	N 	0.34891 0.67550 0.31944 -0.23200
C 	C 	0.65640 0.99680 0.82623 -0.09100
C 	C 	0.67940 0.07940 0.81579 0.02400
H 	H 	0.71390 0.07950 0.80540 0.04300
C 	C 	0.65120 0.16240 0.82076 -0.09700
C 	C 	0.59870 0.16090 0.83556 -0.01200
H 	H 	0.57920 0.21580 0.83850 0.04200
C 	C 	0.57520 0.07930 0.84591 -0.02300
C 	C 	0.51600 0.07550 0.85871 0.08300
C 	C 	0.45310 0.10640 0.82063 -0.13400
H 	H 	0.44950 0.13360 0.78950 0.08400
C 	C 	0.39630 0.09670 0.82912 0.05900
H 	H 	0.35450 0.11630 0.80340 0.02000
C 	C 	0.40150 0.05770 0.87598 -0.12200
C 	C 	0.46380 0.02720 0.91378 0.06300
H 	H 	0.46740 0.00050 0.94500 0.03500
C 	C 	0.52140 0.03630 0.90523 -0.12400
C 	C 	0.68670 0.90960 0.81881 0.34500
C 	C 	0.67780 0.24930 0.80832 0.34200
C 	C 	0.34010 0.04640 0.88536 0.34400
C 	C 	0.58700 0.99630 0.94581 0.34400
C 	C 	0.81590 0.06900 0.94330 0.01900
H 	H 	0.81680 0.09110 0.91260 0.02700
C 	C 	0.76220 0.06720 0.95430 -0.02700
C 	C 	0.84340 0.00950 0.02080 0.08700
H 	H 	0.86860 0.98200 0.05350 -0.02800
C 	C 	0.98620 0.99920 0.04316 -0.07100
H 	H 	0.97670 0.99850 0.07230 0.05700
C 	C 	0.93530 0.01660 0.99341 0.08800
C 	C 	0.94850 0.01750 0.94964 -0.07300
H 	H 	0.91410 0.02910 0.91590 0.06200
C 	C 	0.54560 0.82390 0.64727 0.00700
H 	H 	0.49990 0.82700 0.63880 0.04400
C 	C 	0.59740 0.84140 0.69478 0.00200
H 	H 	0.59330 0.85900 0.72500 0.03100
C 	C 	0.64030 0.80520 0.64261 0.10100
H 	H 	0.67090 0.79280 0.62910 -0.01300
C 	C 	0.53670 0.77560 0.55897 0.08300
C 	C 	0.56530 0.79290 0.52507 -0.05200
C 	C 	0.46700 0.72640 0.45382 0.10600
C 	C 	0.43870 0.71210 0.48792 -0.08500
H 	H 	0.39600 0.68610 0.47550 0.06400
C 	C 	0.47380 0.73630 0.54075 -0.05600
H 	H 	0.45500 0.72600 0.56400 0.06100
C 	C 	0.46070 0.67400 0.36665 0.00500
H 	H 	0.50640 0.66770 0.37610 0.03000
C 	C 	0.40910 0.65830 0.31860 0.00200
C 	C 	0.36520 0.70020 0.36900 0.10300
H 	H 	0.33390 0.71520 0.38160 -0.00900
C 	C 	0.52990 0.76770 0.47164 -0.09600
C 	C 	0.60510 0.99840 0.84179 -0.02100
H 	H 	0.60500 0.83100 0.53910 0.05000
H 	H 	0.55100 0.78600 0.45180 0.08000
H 	H 	0.58830 0.95000 0.85020 0.05500
H 	H 	0.41000 0.64400 0.28680 0.02300
H 	H 	0.72600 0.08500 0.93800 0.04900
Ni	Ni	0.25400 0.67160 0.25572 1.06500
Ni	Ni	0.21898 0.49423 0.53941 1.03400
O 	O 	0.17312 0.66499 0.33461 -0.28700
O 	O 	0.22308 0.58293 0.29561 -0.43500
O 	O 	0.21302 0.26038 0.28403 -0.43200
O 	O 	0.16429 0.17502 0.32282 -0.30700
O 	O 	0.78391 0.42782 0.34854 -0.30900
O 	O 	0.84722 0.48870 0.42789 -0.42700
O 	O 	0.13522 0.44962 0.47245 -0.41100
O 	O 	0.08812 0.58810 0.45010 -0.29500
N 	N 	0.27967 0.46910 0.50283 -0.25000
N 	N 	0.36821 0.46810 0.48647 -0.14100
N 	N 	0.15759 0.67060 0.19210 -0.23100
N 	N 	0.07280 0.69930 0.11384 -0.13300
N 	N 	0.93225 0.79900 0.89892 -0.13900
N 	N 	0.84891 0.82450 0.81944 -0.23200
C 	C 	0.15640 0.50320 0.32623 -0.09100
C 	C 	0.17940 0.42060 0.31579 0.02300
H 	H 	0.21390 0.42050 0.30540 0.04300
C 	C 	0.15120 0.33760 0.32076 -0.09800
C 	C 	0.09870 0.33910 0.33556 -0.01100
H 	H 	0.07920 0.28420 0.33850 0.04100
C 	C 	0.07520 0.42070 0.34591 -0.02600
C 	C 	0.01600 0.42450 0.35871 0.08500
C 	C 	0.95310 0.39360 0.32063 -0.13600
H 	H 	0.94950 0.36640 0.28950 0.08400
C 	C 	0.89630 0.40330 0.32912 0.06000
H 	H 	0.85450 0.38370 0.30340 0.01900
C 	C 	0.90150 0.44230 0.37598 -0.12400
C 	C 	0.96380 0.47280 0.41378 0.06600
H 	H 	0.96740 0.49950 0.44500 0.03400
C 	C 	0.02140 0.46370 0.40523 -0.12900
C 	C 	0.18670 0.59040 0.31881 0.34500
C 	C 	0.17780 0.25070 0.30832 0.34200
C 	C 	0.84010 0.45360 0.38536 0.34500
C 	C 	0.08700 0.50370 0.44581 0.34900
C 	C 	0.31590 0.43100 0.44330 0.02100
H 	H 	0.31680 0.40890 0.41260 0.02600
C 	C 	0.26220 0.43280 0.45430 -0.03200
C 	C 	0.34340 0.49050 0.52080 0.09400
H 	H 	0.36860 0.51800 0.55350 -0.03200
C 	C 	0.48620 0.50080 0.54316 -0.07400
H 	H 	0.47670 0.50150 0.57230 0.05800
C 	C 	0.43530 0.48340 0.49341 0.08800
C 	C 	0.44850 0.48250 0.44964 -0.07200
H 	H 	0.41410 0.47090 0.41590 0.06100
C 	C 	0.04560 0.67610 0.14727 0.00600
H 	H 	0.99990 0.67300 0.13880 0.04500
C 	C 	0.09740 0.65860 0.19478 0.00300
H 	H 	0.09330 0.64100 0.22500 0.03100
C 	C 	0.14030 0.69480 0.14261 0.10100
H 	H 	0.17090 0.70720 0.12910 -0.01300
C 	C 	0.03670 0.72440 0.05897 0.08000
C 	C 	0.06530 0.70710 0.02507 -0.04800
C 	C 	0.96700 0.77360 0.95382 0.10800
C 	C 	0.93870 0.78790 0.98792 -0.09100
H 	H 	0.89600 0.81390 0.97550 0.06600
C 	C 	0.97380 0.76370 0.04075 -0.05000
H 	H 	0.95500 0.77400 0.06400 0.05900
C 	C 	0.96070 0.82600 0.86665 0.00500
H 	H 	0.00640 0.83230 0.87610 0.03000
C 	C 	0.90910 0.84170 0.81860 0.00100
C 	C 	0.86520 0.79980 0.86900 0.10300
H 	H 	0.83390 0.78480 0.88160 -0.00900
C 	C 	0.02990 0.73230 0.97164 -0.09900
C 	C 	0.10510 0.50160 0.34179 -0.01800
H 	H 	0.10500 0.66900 0.03910 0.04900
H 	H 	0.05100 0.71400 0.95180 0.08100
H 	H 	0.08830 0.55000 0.35020 0.05400
H 	H 	0.91000 0.85600 0.78680 0.02300
H 	H 	0.22600 0.41500 0.43800 0.05100
Ni	Ni	0.24600 0.17160 0.24428 1.06500
Ni	Ni	0.28102 0.99423 0.96059 1.03300
O 	O 	0.32688 0.16499 0.16539 -0.28700
O 	O 	0.27692 0.08293 0.20439 -0.43500
O 	O 	0.28698 0.76038 0.21597 -0.43200
O 	O 	0.33571 0.67502 0.17718 -0.30700
O 	O 	0.71609 0.92782 0.15146 -0.30900
O 	O 	0.65278 0.98870 0.07211 -0.42500
O 	O 	0.36478 0.94962 0.02755 -0.40800
O 	O 	0.41188 0.08810 0.04990 -0.29400
N 	N 	0.22033 0.96910 0.99717 -0.25100
N 	N 	0.13179 0.96810 0.01353 -0.13900
N 	N 	0.34241 0.17060 0.30790 -0.23100
N 	N 	0.42720 0.19930 0.38616 -0.13400
N 	N 	0.56775 0.29900 0.60108 -0.13800
N 	N 	0.65109 0.32450 0.68056 -0.23200
C 	C 	0.34360 0.00320 0.17377 -0.09100
C 	C 	0.32060 0.92060 0.18421 0.02400
H 	H 	0.28610 0.92050 0.19460 0.04300
C 	C 	0.34880 0.83760 0.17924 -0.09700
C 	C 	0.40130 0.83910 0.16444 -0.01200
H 	H 	0.42080 0.78420 0.16150 0.04200
C 	C 	0.42480 0.92070 0.15409 -0.02300
C 	C 	0.48400 0.92450 0.14129 0.08300
C 	C 	0.54690 0.89360 0.17937 -0.13400
H 	H 	0.55050 0.86640 0.21050 0.08400
C 	C 	0.60370 0.90330 0.17088 0.05900
H 	H 	0.64550 0.88370 0.19660 0.02000
C 	C 	0.59850 0.94230 0.12402 -0.12200
C 	C 	0.53620 0.97280 0.08622 0.06300
H 	H 	0.53260 0.99950 0.05500 0.03500
C 	C 	0.47860 0.96370 0.09477 -0.12400
C 	C 	0.31330 0.09040 0.18119 0.34500
C 	C 	0.32220 0.75070 0.19168 0.34200
C 	C 	0.65990 0.95360 0.11464 0.34400
C 	C 	0.41300 0.00370 0.05419 0.34400
C 	C 	0.18410 0.93100 0.05670 0.01900
H 	H 	0.18320 0.90890 0.08740 0.02700
C 	C 	0.23780 0.93280 0.04570 -0.02700
C 	C 	0.15660 0.99050 0.97920 0.08700
H 	H 	0.13140 0.01800 0.94650 -0.02800
C 	C 	0.01380 0.00080 0.95684 -0.07100
H 	H 	0.02330 0.00150 0.92770 0.05700
C 	C 	0.06470 0.98340 0.00659 0.08800
C 	C 	0.05150 0.98250 0.05036 -0.07300
H 	H 	0.08590 0.97090 0.08410 0.06200
C 	C 	0.45440 0.17610 0.35273 0.00700
H 	H 	0.50010 0.17300 0.36120 0.04400
C 	C 	0.40260 0.15860 0.30522 0.00200
H 	H 	0.40670 0.14100 0.27500 0.03100
C 	C 	0.35970 0.19480 0.35739 0.10100
H 	H 	0.32910 0.20720 0.37090 -0.01300
C 	C 	0.46330 0.22440 0.44103 0.08300
C 	C 	0.43470 0.20710 0.47493 -0.05200
C 	C 	0.53300 0.27360 0.54618 0.10600
C 	C 	0.56130 0.28790 0.51208 -0.08500
H 	H 	0.60400 0.31390 0.52450 0.06400
C 	C 	0.52620 0.26370 0.45925 -0.05600
H 	H 	0.54500 0.27400 0.43600 0.06100
C 	C 	0.53930 0.32600 0.63335 0.00500
H 	H 	0.49360 0.33230 0.62390 0.03000
C 	C 	0.59090 0.34170 0.68140 0.00200
C 	C 	0.63480 0.29980 0.63100 0.10300
H 	H 	0.66610 0.28480 0.61840 -0.00900
C 	C 	0.47010 0.23230 0.52836 -0.09600
C 	C 	0.39490 0.00160 0.15821 -0.02100
H 	H 	0.39500 0.16900 0.46090 0.05000
H 	H 	0.44900 0.21400 0.54820 0.08000
H 	H 	0.41170 0.05000 0.14980 0.05500
H 	H 	0.59000 0.35600 0.71320 0.02300
H 	H 	0.27400 0.91500 0.06200 0.04900
Ni	Ni	0.24600 0.82840 0.74428 1.06500
Ni	Ni	0.28102 0.00577 0.46059 1.03400
O 	O 	0.32688 0.83501 0.66539 -0.28700
O 	O 	0.27692 0.91707 0.70439 -0.43500
O 	O 	0.28698 0.23962 0.71597 -0.43200
O 	O 	0.33571 0.32498 0.67718 -0.30700
O 	O 	0.71609 0.07218 0.65146 -0.30900
O 	O 	0.65278 0.01130 0.57211 -0.42600
O 	O 	0.36478 0.05038 0.52755 -0.41000
O 	O 	0.41188 0.91190 0.54990 -0.29500
N 	N 	0.22033 0.03090 0.49717 -0.25000
N 	N 	0.13179 0.03190 0.51353 -0.14100
N 	N 	0.34241 0.82940 0.80790 -0.23100
N 	N 	0.42720 0.80070 0.88616 -0.13500
N 	N 	0.56775 0.70100 0.10108 -0.13800
N 	N 	0.65109 0.67550 0.18056 -0.23200
C 	C 	0.34360 0.99680 0.67377 -0.09200
C 	C 	0.32060 0.07940 0.68421 0.02400
H 	H 	0.28610 0.07950 0.69460 0.04300
C 	C 	0.34880 0.16240 0.67924 -0.09800
C 	C 	0.40130 0.16090 0.66444 -0.01100
H 	H 	0.42080 0.21580 0.66150 0.04100
C 	C 	0.42480 0.07930 0.65409 -0.02500
C 	C 	0.48400 0.07550 0.64129 0.08500
C 	C 	0.54690 0.10640 0.67937 -0.13600
H 	H 	0.55050 0.13360 0.71050 0.08400
C 	C 	0.60370 0.09670 0.67088 0.06000
H 	H 	0.64550 0.11630 0.69660 0.02000
C 	C 	0.59850 0.05770 0.62402 -0.12300
C 	C 	0.53620 0.02720 0.58622 0.06500
H 	H 	0.53260 0.00050 0.55500 0.03400
C 	C 	0.47860 0.03630 0.59477 -0.12800
C 	C 	0.31330 0.90960 0.68119 0.34500
C 	C 	0.32220 0.24930 0.69168 0.34200
C 	C 	0.65990 0.04640 0.61464 0.34500
C 	C 	0.41300 0.99630 0.55419 0.34900
C 	C 	0.18410 0.06900 0.55670 0.02100
H 	H 	0.18320 0.09110 0.58740 0.02600
C 	C 	0.23780 0.06720 0.54570 -0.03200
C 	C 	0.15660 0.00950 0.47920 0.09400
H 	H 	0.13140 0.98200 0.44650 -0.03200
C 	C 	0.01380 0.99920 0.45684 -0.07500
H 	H 	0.02330 0.99850 0.42770 0.05800
C 	C 	0.06470 0.01660 0.50659 0.08800
C 	C 	0.05150 0.01750 0.55036 -0.07200
H 	H 	0.08590 0.02910 0.58410 0.06100
C 	C 	0.45440 0.82390 0.85273 0.00700
H 	H 	0.50010 0.82700 0.86120 0.04400
C 	C 	0.40260 0.84140 0.80522 0.00200
H 	H 	0.40670 0.85900 0.77500 0.03100
C 	C 	0.35970 0.80520 0.85739 0.10100
H 	H 	0.32910 0.79280 0.87090 -0.01400
C 	C 	0.46330 0.77560 0.94103 0.08600
C 	C 	0.43470 0.79290 0.97493 -0.05600
C 	C 	0.53300 0.72640 0.04618 0.10300
C 	C 	0.56130 0.71210 0.01208 -0.08100
H 	H 	0.60400 0.68610 0.02450 0.06300
C 	C 	0.52620 0.73630 0.95925 -0.06000
H 	H 	0.54500 0.72600 0.93600 0.06200
C 	C 	0.53930 0.67400 0.13335 0.00500
H 	H 	0.49360 0.66770 0.12390 0.03000
C 	C 	0.59090 0.65830 0.18140 0.00200
C 	C 	0.63480 0.70020 0.13100 0.10300
H 	H 	0.66610 0.71520 0.11840 -0.00900
C 	C 	0.47010 0.76770 0.02836 -0.09100
C 	C 	0.39490 0.99840 0.65821 -0.01800
H 	H 	0.39500 0.83100 0.96090 0.05100
H 	H 	0.44900 0.78600 0.04820 0.07800
H 	H 	0.41170 0.95000 0.64980 0.05400
H 	H 	0.59000 0.64400 0.21320 0.02300
H 	H 	0.27400 0.08500 0.56200 0.05100
Ni	Ni	0.25400 0.32840 0.75572 1.06500
Ni	Ni	0.21898 0.50577 0.03941 1.03400
O 	O 	0.17312 0.33501 0.83461 -0.28700
O 	O 	0.22308 0.41707 0.79561 -0.43500
O 	O 	0.21302 0.73962 0.78403 -0.43200
O 	O 	0.16429 0.82498 0.82282 -0.30800
O 	O 	0.78391 0.57218 0.84854 -0.31000
O 	O 	0.84722 0.51130 0.92789 -0.42700
O 	O 	0.13522 0.55038 0.97245 -0.41100
O 	O 	0.08812 0.41190 0.95010 -0.29400
N 	N 	0.27967 0.53090 0.00283 -0.25000
N 	N 	0.36821 0.53190 0.98647 -0.14100
N 	N 	0.15759 0.32940 0.69210 -0.23100
N 	N 	0.07280 0.30070 0.61384 -0.13400
N 	N 	0.93225 0.20100 0.39892 -0.13800
N 	N 	0.84891 0.17550 0.31944 -0.23200
C 	C 	0.15640 0.49680 0.82623 -0.09100
C 	C 	0.17940 0.57940 0.81579 0.02300
H 	H 	0.21390 0.57950 0.80540 0.04300
C 	C 	0.15120 0.66240 0.82076 -0.09800
C 	C 	0.09870 0.66090 0.83556 -0.01100
H 	H 	0.07920 0.71580 0.83850 0.04100
C 	C 	0.07520 0.57930 0.84591 -0.02600
C 	C 	0.01600 0.57550 0.85871 0.08500
C 	C 	0.95310 0.60640 0.82063 -0.13600
H 	H 	0.94950 0.63360 0.78950 0.08400
C 	C 	0.89630 0.59670 0.82912 0.06100
H 	H 	0.85450 0.61630 0.80340 0.01900
C 	C 	0.90150 0.55770 0.87598 -0.12400
C 	C 	0.96380 0.52720 0.91378 0.06500
H 	H 	0.96740 0.50050 0.94500 0.03400
C 	C 	0.02140 0.53630 0.90523 -0.12800
C 	C 	0.18670 0.40960 0.81881 0.34500
C 	C 	0.17780 0.74930 0.80832 0.34200
C 	C 	0.84010 0.54640 0.88536 0.34500
C 	C 	0.08700 0.49630 0.94581 0.34900
C 	C 	0.31590 0.56900 0.94330 0.02100
H 	H 	0.31680 0.59110 0.91260 0.02600
C 	C 	0.26220 0.56720 0.95430 -0.03200
C 	C 	0.34340 0.50950 0.02080 0.09400
H 	H 	0.36860 0.48200 0.05350 -0.03200
C 	C 	0.48620 0.49920 0.04316 -0.07400
H 	H 	0.47670 0.49850 0.07230 0.05800
C 	C 	0.43530 0.51660 0.99341 0.08800
C 	C 	0.44850 0.51750 0.94964 -0.07200
H 	H 	0.41410 0.52910 0.91590 0.06100
C 	C 	0.04560 0.32390 0.64727 0.00800
H 	H 	0.99990 0.32700 0.63880 0.04400
C 	C 	0.09740 0.34140 0.69478 0.00200
H 	H 	0.09330 0.35900 0.72500 0.03100
C 	C 	0.14030 0.30520 0.64261 0.10100
H 	H 	0.17090 0.29280 0.62910 -0.01300
C 	C 	0.03670 0.27560 0.55897 0.08400
C 	C 	0.06530 0.29290 0.52507 -0.05200
C 	C 	0.96700 0.22640 0.45382 0.10500
C 	C 	0.93870 0.21210 0.48792 -0.08500
H 	H 	0.89600 0.18610 0.47550 0.06400
C 	C 	0.97380 0.23630 0.54075 -0.05700
H 	H 	0.95500 0.22600 0.56400 0.06100
C 	C 	0.96070 0.17400 0.36665 0.00500
H 	H 	0.00640 0.16770 0.37610 0.03000
C 	C 	0.90910 0.15830 0.31860 0.00200
C 	C 	0.86520 0.20020 0.36900 0.10300
H 	H 	0.83390 0.21520 0.38160 -0.00900
C 	C 	0.02990 0.26770 0.47164 -0.09500
C 	C 	0.10510 0.49840 0.84179 -0.01800
H 	H 	0.10500 0.33100 0.53910 0.05000
H 	H 	0.05100 0.28600 0.45180 0.08000
H 	H 	0.08830 0.45000 0.85020 0.05400
H 	H 	0.91000 0.14400 0.28680 0.02300
H 	H 	0.22600 0.58500 0.93800 0.05000
Ni	Ni	0.75400 0.17160 0.25572 1.06500
Ni	Ni	0.71898 0.99423 0.53941 1.03400
O 	O 	0.67312 0.16499 0.33461 -0.28700
O 	O 	0.72308 0.08293 0.29561 -0.43500
O 	O 	0.71302 0.76038 0.28403 -0.43200
O 	O 	0.66429 0.67502 0.32282 -0.30700
O 	O 	0.28391 0.92782 0.34854 -0.30900
O 	O 	0.34722 0.98870 0.42789 -0.42600
O 	O 	0.63522 0.94962 0.47245 -0.41000
O 	O 	0.58812 0.08810 0.45010 -0.29500
N 	N 	0.77967 0.96910 0.50283 -0.25000
N 	N 	0.86821 0.96810 0.48647 -0.14100
N 	N 	0.65759 0.17060 0.19210 -0.23100
N 	N 	0.57280 0.19930 0.11384 -0.13500
N 	N 	0.43225 0.29900 0.89892 -0.13800
N 	N 	0.34891 0.32450 0.81944 -0.23200
C 	C 	0.65640 0.00320 0.32623 -0.09200
C 	C 	0.67940 0.92060 0.31579 0.02400
H 	H 	0.71390 0.92050 0.30540 0.04300
C 	C 	0.65120 0.83760 0.32076 -0.09800
C 	C 	0.59870 0.83910 0.33556 -0.01100
H 	H 	0.57920 0.78420 0.33850 0.04100
C 	C 	0.57520 0.92070 0.34591 -0.02500
C 	C 	0.51600 0.92450 0.35871 0.08500
C 	C 	0.45310 0.89360 0.32063 -0.13600
H 	H 	0.44950 0.86640 0.28950 0.08400
C 	C 	0.39630 0.90330 0.32912 0.06000
H 	H 	0.35450 0.88370 0.30340 0.02000
C 	C 	0.40150 0.94230 0.37598 -0.12300
C 	C 	0.46380 0.97280 0.41378 0.06500
H 	H 	0.46740 0.99950 0.44500 0.03400
C 	C 	0.52140 0.96370 0.40523 -0.12800
C 	C 	0.68670 0.09040 0.31881 0.34500
C 	C 	0.67780 0.75070 0.30832 0.34200
C 	C 	0.34010 0.95360 0.38536 0.34500
C 	C 	0.58700 0.00370 0.44581 0.34900
C 	C 	0.81590 0.93100 0.44330 0.02100
H 	H 	0.81680 0.90890 0.41260 0.02600
C 	C 	0.76220 0.93280 0.45430 -0.03200
C 	C 	0.84340 0.99050 0.52080 0.09400
H 	H 	0.86860 0.01800 0.55350 -0.03200
C 	C 	0.98620 0.00080 0.54316 -0.07500
H 	H 	0.97670 0.00150 0.57230 0.05800
C 	C 	0.93530 0.98340 0.49341 0.08800
C 	C 	0.94850 0.98250 0.44964 -0.07200
H 	H 	0.91410 0.97090 0.41590 0.06100
C 	C 	0.54560 0.17610 0.14727 0.00700
H 	H 	0.49990 0.17300 0.13880 0.04400
C 	C 	0.59740 0.15860 0.19478 0.00200
H 	H 	0.59330 0.14100 0.22500 0.03100
C 	C 	0.64030 0.19480 0.14261 0.10100
H 	H 	0.67090 0.20720 0.12910 -0.01400
C 	C 	0.53670 0.22440 0.05897 0.08600
C 	C 	0.56530 0.20710 0.02507 -0.05600
C 	C 	0.46700 0.27360 0.95382 0.10300
C 	C 	0.43870 0.28790 0.98792 -0.08100
H 	H 	0.39600 0.31390 0.97550 0.06300
C 	C 	0.47380 0.26370 0.04075 -0.06000
H 	H 	0.45500 0.27400 0.06400 0.06200
C 	C 	0.46070 0.32600 0.86665 0.00500
H 	H 	0.50640 0.33230 0.87610 0.03000
C 	C 	0.40910 0.34170 0.81860 0.00200
C 	C 	0.36520 0.29980 0.86900 0.10300
H 	H 	0.33390 0.28480 0.88160 -0.00900
C 	C 	0.52990 0.23230 0.97164 -0.09100
C 	C 	0.60510 0.00160 0.34179 -0.01800
H 	H 	0.60500 0.16900 0.03910 0.05100
H 	H 	0.55100 0.21400 0.95180 0.07800
H 	H 	0.58830 0.05000 0.35020 0.05400
H 	H 	0.41000 0.35600 0.78680 0.02300
H 	H 	0.72600 0.91500 0.43800 0.05100
Ni	Ni	0.74600 0.67160 0.24428 1.06500
Ni	Ni	0.78102 0.49423 0.96059 1.03400
O 	O 	0.82688 0.66499 0.16539 -0.28700
O 	O 	0.77692 0.58293 0.20439 -0.43500
O 	O 	0.78698 0.26038 0.21597 -0.43200
O 	O 	0.83571 0.17502 0.17718 -0.30800
O 	O 	0.21609 0.42782 0.15146 -0.31000
O 	O 	0.15278 0.48870 0.07211 -0.42700
O 	O 	0.86478 0.44962 0.02755 -0.41100
O 	O 	0.91188 0.58810 0.04990 -0.29400
N 	N 	0.72033 0.46910 0.99717 -0.25000
N 	N 	0.63179 0.46810 0.01353 -0.14100
N 	N 	0.84241 0.67060 0.30790 -0.23100
N 	N 	0.92720 0.69930 0.38616 -0.13400
N 	N 	0.06775 0.79900 0.60108 -0.13800
N 	N 	0.15109 0.82450 0.68056 -0.23200
C 	C 	0.84360 0.50320 0.17377 -0.09100
C 	C 	0.82060 0.42060 0.18421 0.02300
H 	H 	0.78610 0.42050 0.19460 0.04300
C 	C 	0.84880 0.33760 0.17924 -0.09800
C 	C 	0.90130 0.33910 0.16444 -0.01100
H 	H 	0.92080 0.28420 0.16150 0.04100
C 	C 	0.92480 0.42070 0.15409 -0.02600
C 	C 	0.98400 0.42450 0.14129 0.08500
C 	C 	0.04690 0.39360 0.17937 -0.13600
H 	H 	0.05050 0.36640 0.21050 0.08400
C 	C 	0.10370 0.40330 0.17088 0.06100
H 	H 	0.14550 0.38370 0.19660 0.01900
C 	C 	0.09850 0.44230 0.12402 -0.12400
C 	C 	0.03620 0.47280 0.08622 0.06500
H 	H 	0.03260 0.49950 0.05500 0.03400
C 	C 	0.97860 0.46370 0.09477 -0.12800
C 	C 	0.81330 0.59040 0.18119 0.34500
C 	C 	0.82220 0.25070 0.19168 0.34200
C 	C 	0.15990 0.45360 0.11464 0.34500
C 	C 	0.91300 0.50370 0.05419 0.34900
C 	C 	0.68410 0.43100 0.05670 0.02100
H 	H 	0.68320 0.40890 0.08740 0.02600
C 	C 	0.73780 0.43280 0.04570 -0.03200
C 	C 	0.65660 0.49050 0.97920 0.09400
H 	H 	0.63140 0.51800 0.94650 -0.03200
C 	C 	0.51380 0.50080 0.95684 -0.07400
H 	H 	0.52330 0.50150 0.92770 0.05800
C 	C 	0.56470 0.48340 0.00659 0.08800
C 	C 	0.55150 0.48250 0.05036 -0.07200
H 	H 	0.58590 0.47090 0.08410 0.06100
C 	C 	0.95440 0.67610 0.35273 0.00800
H 	H 	0.00010 0.67300 0.36120 0.04400
C 	C 	0.90260 0.65860 0.30522 0.00200
H 	H 	0.90670 0.64100 0.27500 0.03100
C 	C 	0.85970 0.69480 0.35739 0.10100
H 	H 	0.82910 0.70720 0.37090 -0.01300
C 	C 	0.96330 0.72440 0.44103 0.08400
C 	C 	0.93470 0.70710 0.47493 -0.05200
C 	C 	0.03300 0.77360 0.54618 0.10500
C 	C 	0.06130 0.78790 0.51208 -0.08500
H 	H 	0.10400 0.81390 0.52450 0.06400
C 	C 	0.02620 0.76370 0.45925 -0.05700
H 	H 	0.04500 0.77400 0.43600 0.06100
C 	C 	0.03930 0.82600 0.63335 0.00500
H 	H 	0.99360 0.83230 0.62390 0.03000
C 	C 	0.09090 0.84170 0.68140 0.00200
C 	C 	0.13480 0.79980 0.63100 0.10300
H 	H 	0.16610 0.78480 0.61840 -0.00900
C 	C 	0.97010 0.73230 0.52836 -0.09500
C 	C 	0.89490 0.50160 0.15821 -0.01800
H 	H 	0.89500 0.66900 0.46090 0.05000
H 	H 	0.94900 0.71400 0.54820 0.08000
H 	H 	0.91170 0.55000 0.14980 0.05400
H 	H 	0.09000 0.85600 0.71320 0.02300
H 	H 	0.77400 0.41500 0.06200 0.05000
