data_crystal

_cell_length_a 14.47840
_cell_length_b 13.81570
_cell_length_c 19.30440
_cell_angle_alpha 90.00000
_cell_angle_beta  104.53900
_cell_angle_gamma 90.00000

_symmetry_space_group_name_	'P 1'
_symmetry_space_group_name_H-M	'P 1'

loop_
_symmetry_equiv_pos_as_xyz
  x,y,z

loop_
_atom_site_label
_atom_site_type_symbol
_atom_site_fract_x
_atom_site_fract_y
_atom_site_fract_z
_atom_site_charge
Ca	Ca	0.09796 0.45358 0.19342 1.50400
S 	S 	0.05363 0.24547 0.07124 0.92300
O 	O 	0.03420 0.45630 0.84873 -0.62400
O 	O 	0.14690 0.44350 0.79113 -0.54000
O 	O 	0.05700 0.33780 0.10040 -0.34100
O 	O 	0.04450 0.16930 0.12580 -0.11500
O 	O 	0.98750 0.23000 0.00590 -0.28800
C 	C 	0.17220 0.21950 0.06140 -0.66500
C 	C 	0.20400 0.26130 0.00460 -0.64200
C 	C 	0.14460 0.32420 0.95570 0.22200
H 	H 	0.08650 0.34180 0.96430 -0.07700
C 	C 	0.26670 0.34090 0.88790 -2.16400
C 	C 	0.16610 0.35930 0.89890 -1.00600
C 	C 	0.11160 0.42480 0.84180 0.88800
N 	N 	0.03100 0.19370 0.25400 -0.01900
C 	C 	0.97770 0.27020 0.24500 0.15900
H 	H 	0.92280 0.25740 0.20680 0.10400
C 	C 	0.13140 0.20280 0.29110 -0.74800
H 	H 	0.15290 0.26830 0.28960 0.19500
H 	H 	0.14020 0.18300 0.34000 0.25500
H 	H 	0.16750 0.16100 0.26790 0.29300
C 	C 	0.03360 0.09800 0.26160 0.05900
H 	H 	0.96860 0.08060 0.23980 -0.05100
H 	H 	0.07540 0.06170 0.23980 0.04200
H 	H 	0.04810 0.08360 0.31190 0.04500
O 	O 	0.08820 0.31270 0.13010 -0.23800
O 	O 	0.05440 0.15100 0.08340 -0.15200
O 	O 	0.95580 0.28610 0.02740 -0.17100
C 	C 	0.12780 0.27780 0.01020 0.33800
C 	C 	0.09730 0.33780 0.94780 -0.05600
H 	H 	0.03620 0.36400 0.93640 0.10800
C 	C 	0.22280 0.24180 0.02530 0.19800
C 	C 	0.24500 0.31430 0.91210 2.94800
Ca	Ca	0.59796 0.95358 0.19342 1.50000
S 	S 	0.55363 0.74547 0.07124 0.88100
O 	O 	0.53420 0.95630 0.84873 -0.63500
O 	O 	0.64690 0.94350 0.79113 -0.54600
O 	O 	0.55700 0.83780 0.10040 -0.35300
O 	O 	0.54450 0.66930 0.12580 -0.12200
O 	O 	0.48750 0.73000 0.00590 -0.26400
C 	C 	0.67220 0.71950 0.06140 -0.65600
C 	C 	0.70400 0.76130 0.00460 -0.65300
C 	C 	0.64460 0.82420 0.95570 0.22800
H 	H 	0.58650 0.84180 0.96430 -0.08300
C 	C 	0.76670 0.84090 0.88790 -2.15100
C 	C 	0.66610 0.85930 0.89890 -1.00800
C 	C 	0.61160 0.92480 0.84180 0.88800
N 	N 	0.53100 0.69370 0.25400 -0.07300
C 	C 	0.47770 0.77020 0.24500 0.10800
H 	H 	0.42280 0.75740 0.20680 0.13200
C 	C 	0.63140 0.70280 0.29110 -0.66100
H 	H 	0.65290 0.76830 0.28960 0.17100
H 	H 	0.64020 0.68300 0.34000 0.22700
H 	H 	0.66750 0.66100 0.26790 0.26400
C 	C 	0.53360 0.59800 0.26160 0.05600
H 	H 	0.46860 0.58060 0.23980 -0.03400
H 	H 	0.57540 0.56170 0.23980 0.04100
H 	H 	0.54810 0.58360 0.31190 0.04000
O 	O 	0.58820 0.81270 0.13010 -0.22800
O 	O 	0.55440 0.65100 0.08340 -0.15100
O 	O 	0.45580 0.78610 0.02740 -0.15800
C 	C 	0.62780 0.77780 0.01020 0.33200
C 	C 	0.59730 0.83780 0.94780 -0.05100
H 	H 	0.53620 0.86400 0.93640 0.10000
C 	C 	0.72280 0.74180 0.02530 0.19600
C 	C 	0.74500 0.81430 0.91210 2.92900
Ca	Ca	0.90204 0.45358 0.30658 1.49700
S 	S 	0.94637 0.24547 0.42876 0.83200
O 	O 	0.96580 0.45630 0.65127 -0.65400
O 	O 	0.85310 0.44350 0.70887 -0.55500
O 	O 	0.94300 0.33780 0.39960 -0.36300
O 	O 	0.95550 0.16930 0.37420 -0.12800
O 	O 	0.01250 0.23000 0.49410 -0.23300
C 	C 	0.82780 0.21950 0.43860 -0.64600
C 	C 	0.79600 0.26130 0.49540 -0.64700
C 	C 	0.85540 0.32420 0.54430 0.22200
H 	H 	0.91350 0.34180 0.53570 -0.07700
C 	C 	0.73330 0.34090 0.61210 -2.18000
C 	C 	0.83390 0.35930 0.60110 -1.02100
C 	C 	0.88840 0.42480 0.65820 0.89500
N 	N 	0.96900 0.19370 0.24600 -0.11800
C 	C 	0.02230 0.27020 0.25500 0.03100
H 	H 	0.07720 0.25740 0.29320 0.16800
C 	C 	0.86860 0.20280 0.20890 -0.59700
H 	H 	0.84710 0.26830 0.21040 0.15400
H 	H 	0.85980 0.18300 0.16000 0.20900
H 	H 	0.83250 0.16100 0.23210 0.24500
C 	C 	0.96640 0.09800 0.23840 0.05600
H 	H 	0.03140 0.08060 0.26020 -0.02000
H 	H 	0.92460 0.06170 0.26020 0.04200
H 	H 	0.95190 0.08360 0.18810 0.03500
O 	O 	0.91180 0.31270 0.36990 -0.21700
O 	O 	0.94560 0.15100 0.41660 -0.14800
O 	O 	0.04420 0.28610 0.47260 -0.14200
C 	C 	0.87220 0.27780 0.48980 0.33000
C 	C 	0.90270 0.33780 0.55220 -0.05700
H 	H 	0.96380 0.36400 0.56360 0.09000
C 	C 	0.77720 0.24180 0.47470 0.19400
C 	C 	0.75500 0.31430 0.58790 2.97000
Ca	Ca	0.40204 0.95358 0.30658 1.50100
S 	S 	0.44637 0.74547 0.42876 0.87900
O 	O 	0.46580 0.95630 0.65127 -0.63700
O 	O 	0.35310 0.94350 0.70887 -0.54500
O 	O 	0.44300 0.83780 0.39960 -0.35200
O 	O 	0.45550 0.66930 0.37420 -0.12200
O 	O 	0.51250 0.73000 0.49410 -0.26200
C 	C 	0.32780 0.71950 0.43860 -0.65500
C 	C 	0.29600 0.76130 0.49540 -0.64600
C 	C 	0.35540 0.82420 0.54430 0.22500
H 	H 	0.41350 0.84180 0.53570 -0.07800
C 	C 	0.23330 0.84090 0.61210 -2.17400
C 	C 	0.33390 0.85930 0.60110 -1.01800
C 	C 	0.38840 0.92480 0.65820 0.89300
N 	N 	0.46900 0.69370 0.24600 -0.07200
C 	C 	0.52230 0.77020 0.25500 0.10700
H 	H 	0.57720 0.75740 0.29320 0.13100
C 	C 	0.36860 0.70280 0.20890 -0.66900
H 	H 	0.34710 0.76830 0.21040 0.17500
H 	H 	0.35980 0.68300 0.16000 0.23100
H 	H 	0.33250 0.66100 0.23210 0.26900
C 	C 	0.46640 0.59800 0.23840 0.05600
H 	H 	0.53140 0.58060 0.26020 -0.03400
H 	H 	0.42460 0.56170 0.26020 0.04200
H 	H 	0.45190 0.58360 0.18810 0.04000
O 	O 	0.41180 0.81270 0.36990 -0.22700
O 	O 	0.44560 0.65100 0.41660 -0.15100
O 	O 	0.54420 0.78610 0.47260 -0.15700
C 	C 	0.37220 0.77780 0.48980 0.33500
C 	C 	0.40270 0.83780 0.55220 -0.05700
H 	H 	0.46380 0.86400 0.56360 0.10000
C 	C 	0.27720 0.74180 0.47470 0.19400
C 	C 	0.25500 0.81430 0.58790 2.97000
Ca	Ca	0.90204 0.54642 0.80658 1.49700
S 	S 	0.94637 0.75453 0.92876 0.82700
O 	O 	0.96580 0.54370 0.15127 -0.65300
O 	O 	0.85310 0.55650 0.20887 -0.55400
O 	O 	0.94300 0.66220 0.89960 -0.36400
O 	O 	0.95550 0.83070 0.87420 -0.12900
O 	O 	0.01250 0.77000 0.99410 -0.23000
C 	C 	0.82780 0.78050 0.93860 -0.64400
C 	C 	0.79600 0.73870 0.99540 -0.64200
C 	C 	0.85540 0.67580 0.04430 0.21900
H 	H 	0.91350 0.65820 0.03570 -0.07600
C 	C 	0.73330 0.65910 0.11210 -2.17500
C 	C 	0.83390 0.64070 0.10110 -1.01700
C 	C 	0.88840 0.57520 0.15820 0.89300
N 	N 	0.96900 0.80630 0.74600 -0.12400
C 	C 	0.02230 0.72980 0.75500 0.02300
H 	H 	0.07720 0.74260 0.79320 0.17200
C 	C 	0.86860 0.79720 0.70890 -0.58800
H 	H 	0.84710 0.73170 0.71040 0.15100
H 	H 	0.85980 0.81700 0.66000 0.20500
H 	H 	0.83250 0.83900 0.73210 0.24200
C 	C 	0.96640 0.90200 0.73840 0.05600
H 	H 	0.03140 0.91940 0.76020 -0.01800
H 	H 	0.92460 0.93830 0.76020 0.04200
H 	H 	0.95190 0.91640 0.68810 0.03400
O 	O 	0.91180 0.68730 0.86990 -0.21700
O 	O 	0.94560 0.84900 0.91660 -0.14800
O 	O 	0.04420 0.71390 0.97260 -0.14100
C 	C 	0.87220 0.72220 0.98980 0.32700
C 	C 	0.90270 0.66220 0.05220 -0.05700
H 	H 	0.96380 0.63600 0.06360 0.08900
C 	C 	0.77720 0.75820 0.97470 0.19400
C 	C 	0.75500 0.68570 0.08790 2.96200
Ca	Ca	0.40204 0.04642 0.80658 1.50100
S 	S 	0.44637 0.25453 0.92876 0.88100
O 	O 	0.46580 0.04370 0.15127 -0.63600
O 	O 	0.35310 0.05650 0.20887 -0.54500
O 	O 	0.44300 0.16220 0.89960 -0.35300
O 	O 	0.45550 0.33070 0.87420 -0.12200
O 	O 	0.51250 0.27000 0.99410 -0.26400
C 	C 	0.32780 0.28050 0.93860 -0.65000
C 	C 	0.29600 0.23870 0.99540 -0.64600
C 	C 	0.35540 0.17580 0.04430 0.22900
H 	H 	0.41350 0.15820 0.03570 -0.08100
C 	C 	0.23330 0.15910 0.11210 -2.16000
C 	C 	0.33390 0.14070 0.10110 -1.01600
C 	C 	0.38840 0.07520 0.15820 0.89200
N 	N 	0.46900 0.30630 0.74600 -0.07100
C 	C 	0.52230 0.22980 0.75500 0.10600
H 	H 	0.57720 0.24260 0.79320 0.13000
C 	C 	0.36860 0.29720 0.70890 -0.67200
H 	H 	0.34710 0.23170 0.71040 0.17600
H 	H 	0.35980 0.31700 0.66000 0.23300
H 	H 	0.33250 0.33900 0.73210 0.27000
C 	C 	0.46640 0.40200 0.73840 0.05600
H 	H 	0.53140 0.41940 0.76020 -0.03400
H 	H 	0.42460 0.43830 0.76020 0.04200
H 	H 	0.45190 0.41640 0.68810 0.04000
O 	O 	0.41180 0.18730 0.86990 -0.22600
O 	O 	0.44560 0.34900 0.91660 -0.15200
O 	O 	0.54420 0.21390 0.97260 -0.15900
C 	C 	0.37220 0.22220 0.98980 0.32800
C 	C 	0.40270 0.16220 0.05220 -0.05200
H 	H 	0.46380 0.13600 0.06360 0.10000
C 	C 	0.27720 0.25820 0.97470 0.19100
C 	C 	0.25500 0.18570 0.08790 2.95300
Ca	Ca	0.09796 0.54642 0.69342 1.50300
S 	S 	0.05363 0.75453 0.57124 0.92900
O 	O 	0.03420 0.54370 0.34873 -0.62500
O 	O 	0.14690 0.55650 0.29113 -0.54100
O 	O 	0.05700 0.66220 0.60040 -0.34000
O 	O 	0.04450 0.83070 0.62580 -0.11400
O 	O 	0.98750 0.77000 0.50590 -0.29300
C 	C 	0.17220 0.78050 0.56140 -0.66800
C 	C 	0.20400 0.73870 0.50460 -0.64800
C 	C 	0.14460 0.67580 0.45570 0.22500
H 	H 	0.08650 0.65820 0.46430 -0.07900
C 	C 	0.26670 0.65910 0.38790 -2.16700
C 	C 	0.16610 0.64070 0.39890 -1.01000
C 	C 	0.11160 0.57520 0.34180 0.88900
N 	N 	0.03100 0.80630 0.75400 -0.01300
C 	C 	0.97770 0.72980 0.74500 0.16400
H 	H 	0.92280 0.74260 0.70680 0.10100
C 	C 	0.13140 0.79720 0.79110 -0.75800
H 	H 	0.15290 0.73170 0.78960 0.19700
H 	H 	0.14020 0.81700 0.84000 0.25900
H 	H 	0.16750 0.83900 0.76790 0.29700
C 	C 	0.03360 0.90200 0.76160 0.05900
H 	H 	0.96860 0.91940 0.73980 -0.05300
H 	H 	0.07540 0.93830 0.73980 0.04300
H 	H 	0.04810 0.91640 0.81190 0.04600
O 	O 	0.08820 0.68730 0.63010 -0.23900
O 	O 	0.05440 0.84900 0.58340 -0.15200
O 	O 	0.95580 0.71390 0.52740 -0.17200
C 	C 	0.12780 0.72220 0.51020 0.34100
C 	C 	0.09730 0.66220 0.44780 -0.05600
H 	H 	0.03620 0.63600 0.43640 0.10900
C 	C 	0.22280 0.75820 0.52530 0.19700
C 	C 	0.24500 0.68570 0.41210 2.95500
Ca	Ca	0.59796 0.04642 0.69342 1.50000
S 	S 	0.55363 0.25453 0.57124 0.88000
O 	O 	0.53420 0.04370 0.34873 -0.63600
O 	O 	0.64690 0.05650 0.29113 -0.54500
O 	O 	0.55700 0.16220 0.60040 -0.35100
O 	O 	0.54450 0.33070 0.62580 -0.12200
O 	O 	0.48750 0.27000 0.50590 -0.26300
C 	C 	0.67220 0.28050 0.56140 -0.66100
C 	C 	0.70400 0.23870 0.50460 -0.65400
C 	C 	0.64460 0.17580 0.45570 0.22400
H 	H 	0.58650 0.15820 0.46430 -0.08100
C 	C 	0.76670 0.15910 0.38790 -2.16400
C 	C 	0.66610 0.14070 0.39890 -1.01000
C 	C 	0.61160 0.07520 0.34180 0.88900
N 	N 	0.53100 0.30630 0.75400 -0.07300
C 	C 	0.47770 0.22980 0.74500 0.10900
H 	H 	0.42280 0.24260 0.70680 0.13200
C 	C 	0.63140 0.29720 0.79110 -0.65800
H 	H 	0.65290 0.23170 0.78960 0.17000
H 	H 	0.64020 0.31700 0.84000 0.22600
H 	H 	0.66750 0.33900 0.76790 0.26300
C 	C 	0.53360 0.40200 0.76160 0.05600
H 	H 	0.46860 0.41940 0.73980 -0.03400
H 	H 	0.57540 0.43830 0.73980 0.04100
H 	H 	0.54810 0.41640 0.81190 0.03900
O 	O 	0.58820 0.18730 0.63010 -0.22800
O 	O 	0.55440 0.34900 0.58340 -0.15000
O 	O 	0.45580 0.21390 0.52740 -0.15600
C 	C 	0.62780 0.22220 0.51020 0.33900
C 	C 	0.59730 0.16220 0.44780 -0.05500
H 	H 	0.53620 0.13600 0.43640 0.10000
C 	C 	0.72280 0.25820 0.52530 0.19900
C 	C 	0.74500 0.18570 0.41210 2.94500
O 	O 	0.00000 0.35480 0.25000 -0.54000
O 	O 	0.50000 0.85480 0.25000 -0.56700
O 	O 	-0.00000 0.64520 0.75000 -0.53700
O 	O 	0.50000 0.14520 0.75000 -0.56700
