data_crystal

_cell_length_a 9.17890
_cell_length_b 12.92920
_cell_length_c 18.44530
_cell_angle_alpha 71.99830
_cell_angle_beta  75.59270
_cell_angle_gamma 69.20850

_symmetry_space_group_name_	'P 1'
_symmetry_space_group_name_H-M	'P 1'

loop_
_symmetry_equiv_pos_as_xyz
  x,y,z

loop_
_atom_site_label
_atom_site_type_symbol
_atom_site_fract_x
_atom_site_fract_y
_atom_site_fract_z
_atom_site_charge
Yb	Yb	0.84903 0.91163 0.00413 1.49500
Yb	Yb	0.15097 0.08837 0.99587 1.49500
Yb	Yb	0.76479 0.58837 0.49587 1.50000
Yb	Yb	0.23521 0.41163 0.50413 1.50000
Zn	Zn	0.77873 0.58843 0.83675 1.20500
Zn	Zn	0.79609 0.08843 0.33675 1.20400
Zn	Zn	0.20391 0.91157 0.66325 1.20400
Zn	Zn	0.22127 0.41157 0.16325 1.20500
H 	H 	0.26280 0.01380 0.43520 0.30200
H 	H 	0.50180 0.17780 0.13940 0.28700
H 	H 	0.88900 0.89230 0.59310 0.28400
H 	H 	0.40330 0.92760 0.80320 0.27800
H 	H 	0.26920 0.80550 0.46250 0.15200
H 	H 	0.67500 0.16610 0.14470 0.27700
H 	H 	0.73080 0.19450 0.53750 0.15200
H 	H 	0.24210 0.04580 0.34840 0.28800
H 	H 	0.86590 0.42760 0.30320 0.27500
H 	H 	0.73720 0.98620 0.56480 0.30200
H 	H 	0.53720 0.69450 0.03750 0.15100
H 	H 	0.36370 0.54580 0.84840 0.28800
H 	H 	0.01420 0.66610 0.64470 0.27400
H 	H 	0.49820 0.82220 0.86060 0.28700
H 	H 	0.46280 0.30550 0.96250 0.15100
H 	H 	0.81900 0.32220 0.36060 0.28400
H 	H 	0.59670 0.07240 0.19680 0.27800
H 	H 	0.75790 0.95420 0.65160 0.28800
H 	H 	0.63630 0.45420 0.15160 0.28800
H 	H 	0.28820 0.51380 0.93520 0.30100
H 	H 	0.11100 0.10770 0.40690 0.28400
H 	H 	0.32500 0.83390 0.85530 0.27700
H 	H 	0.71180 0.48620 0.06480 0.30100
H 	H 	0.18100 0.67780 0.63940 0.28400
H 	H 	0.98580 0.33390 0.35530 0.27400
H 	H 	0.62560 0.39230 0.09310 0.28400
H 	H 	0.13410 0.57240 0.69680 0.27500
H 	H 	0.37440 0.60770 0.90690 0.28400
C 	C 	0.62467 0.65776 0.70090 -0.06000
C 	C 	0.81190 0.96320 0.59940 -0.89800
C 	C 	0.30503 0.72174 0.04220 -0.00900
C 	C 	0.22820 0.63960 0.06960 -0.08300
C 	C 	0.44684 0.73622 0.59130 0.32700
C 	C 	0.78001 0.85858 0.42400 0.36100
C 	C 	0.74958 0.15254 0.97930 0.30100
C 	C 	0.62550 0.46320 0.09940 -0.90500
C 	C 	0.06260 0.13960 0.56960 -0.08000
C 	C 	0.93740 0.86040 0.43040 -0.08000
C 	C 	0.06259 0.64142 0.07600 0.36800
C 	C 	0.77436 0.76378 0.90870 0.32900
C 	C 	0.10810 0.94790 0.41830 0.34200
C 	C 	0.37533 0.34224 0.29910 -0.06000
C 	C 	0.57810 0.15250 0.17350 -0.89900
C 	C 	0.99656 0.05748 0.18660 0.29400
C 	C 	0.11858 0.65254 0.47930 0.30200
C 	C 	0.25042 0.84746 0.02070 0.30100
C 	C 	0.89190 0.05210 0.58170 0.34200
C 	C 	0.24064 0.44252 0.31340 0.31400
C 	C 	0.88142 0.34746 0.52070 0.30200
C 	C 	0.51737 0.21646 0.23460 0.32200
C 	C 	0.00344 0.94252 0.81340 0.29400
C 	C 	0.96843 0.28354 0.26540 0.31500
C 	C 	0.18810 0.03680 0.40060 -0.89800
C 	C 	0.90410 0.34750 0.32650 -0.89000
C 	C 	0.09590 0.65250 0.67350 -0.89000
C 	C 	0.48263 0.78354 0.76540 0.32200
C 	C 	0.75936 0.55748 0.68660 0.31400
C 	C 	0.22564 0.23622 0.09130 0.32900
C 	C 	0.89547 0.76796 0.83870 -0.07200
C 	C 	0.98333 0.84224 0.79910 -0.04400
C 	C 	0.49787 0.26796 0.33870 -0.06800
C 	C 	0.03157 0.71646 0.73460 0.31500
C 	C 	0.93741 0.35858 0.92400 0.36800
C 	C 	0.77180 0.36040 0.93040 -0.08300
C 	C 	0.52570 0.44790 0.91830 0.34700
C 	C 	0.10453 0.23204 0.16130 -0.07200
C 	C 	0.50213 0.73204 0.66130 -0.06800
C 	C 	0.69497 0.27826 0.95780 -0.00900
C 	C 	0.55316 0.26378 0.40870 0.32700
C 	C 	0.37450 0.53680 0.90060 -0.90500
C 	C 	0.06897 0.77826 0.45780 -0.01100
C 	C 	0.42190 0.84750 0.82650 -0.89900
C 	C 	0.01667 0.15776 0.20090 -0.04400
C 	C 	0.93103 0.22174 0.54220 -0.01100
C 	C 	0.47430 0.55210 0.08170 0.34700
C 	C 	0.21999 0.14142 0.57600 0.36100
N 	N 	0.92696 0.68923 0.79665 -0.27600
N 	N 	0.07304 0.31077 0.20335 -0.27600
N 	N 	0.17414 0.83622 0.44950 -0.24600
N 	N 	0.82586 0.16378 0.55050 -0.24600
N 	N 	0.33477 0.53490 0.09476 -0.27200
N 	N 	0.66523 0.46510 0.90524 -0.27200
N 	N 	0.06684 0.80926 0.73346 -0.29400
N 	N 	0.45986 0.66378 0.05050 -0.24700
N 	N 	0.93316 0.19074 0.26654 -0.29400
N 	N 	0.60956 0.69074 0.76654 -0.29000
N 	N 	0.39044 0.30926 0.23346 -0.29000
N 	N 	0.54014 0.33622 0.94950 -0.24700
N 	N 	0.96443 0.96510 0.40524 -0.27100
N 	N 	0.41284 0.81077 0.70335 -0.28000
N 	N 	0.58716 0.18923 0.29665 -0.28000
N 	N 	0.03557 0.03490 0.59476 -0.27100
O 	O 	0.05260 0.03201 0.12139 -0.40000
O 	O 	0.94740 0.96799 0.87861 -0.40000
O 	O 	0.02025 0.59735 0.49615 -0.50000
O 	O 	0.73657 0.40106 0.51940 -0.40000
O 	O 	0.97067 0.44640 0.88426 -0.41900
O 	O 	0.71384 0.68440 0.92712 -0.42000
O 	O 	0.26854 0.15886 0.05526 -0.42200
O 	O 	0.69867 0.94640 0.38426 -0.42000
O 	O 	0.83821 0.50163 0.73975 -0.39600
O 	O 	0.11375 0.90265 0.00385 -0.50000
O 	O 	0.02933 0.55360 0.11574 -0.41900
O 	O 	0.88625 0.09735 0.99615 -0.50000
O 	O 	0.32536 0.81560 0.57288 -0.42100
O 	O 	0.26539 0.22802 0.54040 -0.45700
O 	O 	0.96619 0.72802 0.04040 -0.46500
O 	O 	0.34297 0.90106 0.01940 -0.40200
O 	O 	0.30133 0.05360 0.61574 -0.42000
O 	O 	0.03381 0.27198 0.95960 -0.46500
O 	O 	0.48266 0.34114 0.44474 -0.42600
O 	O 	0.65703 0.09894 0.98060 -0.40200
O 	O 	0.73146 0.84114 0.94474 -0.42200
O 	O 	0.28616 0.31560 0.07288 -0.42000
O 	O 	0.20600 0.46799 0.37861 -0.41500
O 	O 	0.97975 0.40265 0.50385 -0.50000
O 	O 	0.79400 0.53201 0.62139 -0.41500
O 	O 	0.26343 0.59894 0.48060 -0.40000
O 	O 	0.92041 0.00163 0.23975 -0.39300
O 	O 	0.73461 0.77198 0.45960 -0.45700
O 	O 	0.07959 0.99837 0.76025 -0.39300
O 	O 	0.16179 0.49837 0.26025 -0.39600
O 	O 	0.67464 0.18440 0.42712 -0.42100
O 	O 	0.51734 0.65886 0.55526 -0.42600
