data_crystal

_cell_length_a 9.17740
_cell_length_b 12.93680
_cell_length_c 18.50230
_cell_angle_alpha 71.95000
_cell_angle_beta  75.64030
_cell_angle_gamma 69.22480

_symmetry_space_group_name_	'P 1'
_symmetry_space_group_name_H-M	'P 1'

loop_
_symmetry_equiv_pos_as_xyz
  x,y,z

loop_
_atom_site_label
_atom_site_type_symbol
_atom_site_fract_x
_atom_site_fract_y
_atom_site_fract_z
_atom_site_charge
Ho	Ho	0.23606 0.41166 0.50514 1.66200
Ho	Ho	0.76394 0.58834 0.49486 1.66200
Ho	Ho	0.84714 0.91166 0.00514 1.64000
Ho	Ho	0.15286 0.08834 0.99486 1.64000
Zn	Zn	0.79948 0.08902 0.33532 1.20600
Zn	Zn	0.77618 0.58902 0.83532 1.20600
Zn	Zn	0.20052 0.91098 0.66468 1.20600
Zn	Zn	0.22382 0.41098 0.16468 1.20600
H 	H 	0.75750 0.95420 0.64840 0.28400
H 	H 	0.73360 0.19300 0.53540 0.15100
H 	H 	0.10990 0.10740 0.40940 0.27700
H 	H 	0.36470 0.80290 0.87110 0.25700
H 	H 	0.49630 0.14340 0.15900 0.26500
H 	H 	0.63990 0.45420 0.14840 0.28400
H 	H 	0.96130 0.30290 0.37110 0.25300
H 	H 	0.37330 0.60740 0.90940 0.27700
H 	H 	0.50370 0.85660 0.84100 0.26500
H 	H 	0.34430 0.91860 0.80820 0.25900
H 	H 	0.46200 0.30700 0.96460 0.15000
H 	H 	0.24250 0.04580 0.35160 0.28400
H 	H 	0.63530 0.19710 0.12890 0.25700
H 	H 	0.07110 0.58140 0.69180 0.25400
H 	H 	0.36010 0.54580 0.85160 0.28400
H 	H 	0.71140 0.48740 0.06140 0.29800
H 	H 	0.26640 0.80700 0.46460 0.15100
H 	H 	0.20130 0.64340 0.65900 0.26100
H 	H 	0.92890 0.41860 0.30820 0.25400
H 	H 	0.28860 0.51260 0.93860 0.29800
H 	H 	0.62670 0.39260 0.09060 0.27700
H 	H 	0.89010 0.89260 0.59060 0.27700
H 	H 	0.26020 0.01260 0.43860 0.29900
H 	H 	0.73980 0.98740 0.56140 0.29900
H 	H 	0.65570 0.08140 0.19180 0.25900
H 	H 	0.53800 0.69300 0.03540 0.15000
H 	H 	0.79870 0.35660 0.34100 0.26100
H 	H 	0.03870 0.69710 0.62890 0.25300
C 	C 	0.75570 0.55900 0.68580 0.35900
C 	C 	0.97440 0.28220 0.26540 0.30000
C 	C 	0.30370 0.72100 0.04280 -0.02000
C 	C 	0.02150 0.15800 0.20020 -0.05600
C 	C 	0.78150 0.85930 0.42070 0.40700
C 	C 	0.24430 0.44100 0.31420 0.35900
C 	C 	0.47430 0.55140 0.08080 0.35000
C 	C 	0.21850 0.14070 0.57930 0.40700
C 	C 	0.44340 0.73840 0.59200 0.35300
C 	C 	0.62030 0.65800 0.70020 -0.07300
C 	C 	0.00050 0.94100 0.81420 0.33600
C 	C 	0.62640 0.46370 0.09670 -0.89900
C 	C 	0.89220 0.76790 0.83850 -0.07500
C 	C 	0.58270 0.15430 0.17310 -0.84600
C 	C 	0.91010 0.34570 0.32690 -0.83500
C 	C 	0.69630 0.27900 0.95720 -0.02000
C 	C 	0.88370 0.34630 0.51990 0.34800
C 	C 	0.77240 0.36040 0.92900 -0.09200
C 	C 	0.06150 0.64070 0.07930 0.41400
C 	C 	0.89350 0.05140 0.58080 0.34500
C 	C 	0.06180 0.13960 0.57100 -0.09000
C 	C 	0.99950 0.05900 0.18580 0.33600
C 	C 	0.81320 0.96370 0.59670 -0.89200
C 	C 	0.22620 0.23840 0.09200 0.35400
C 	C 	0.37360 0.53630 0.90330 -0.89900
C 	C 	0.18680 0.03630 0.40330 -0.89200
C 	C 	0.10650 0.94860 0.41920 0.34500
C 	C 	0.77380 0.76160 0.90800 0.35400
C 	C 	0.08990 0.65430 0.67310 -0.83500
C 	C 	0.74990 0.15370 0.98010 0.34600
C 	C 	0.49860 0.73210 0.66150 -0.07100
C 	C 	0.55660 0.26160 0.40800 0.35300
C 	C 	0.50140 0.26790 0.33850 -0.07100
C 	C 	0.10780 0.23210 0.16150 -0.07500
C 	C 	0.47800 0.78220 0.76540 0.30800
C 	C 	0.93820 0.86040 0.42900 -0.09000
C 	C 	0.93250 0.22100 0.54280 -0.02300
C 	C 	0.37970 0.34200 0.29980 -0.07300
C 	C 	0.25010 0.84630 0.01990 0.34600
C 	C 	0.41730 0.84570 0.82690 -0.84600
C 	C 	0.52570 0.44860 0.91920 0.35000
C 	C 	0.93850 0.35930 0.92070 0.41400
C 	C 	0.22760 0.63960 0.07100 -0.09200
C 	C 	0.11630 0.65370 0.48010 0.34800
C 	C 	0.02560 0.71780 0.73460 0.30000
C 	C 	0.52200 0.21780 0.23460 0.30800
C 	C 	0.97850 0.84200 0.79980 -0.05600
C 	C 	0.06750 0.77900 0.45720 -0.02300
N 	N 	0.82770 0.16260 0.54940 -0.24700
N 	N 	0.03490 0.03460 0.59580 -0.27300
N 	N 	0.17230 0.83740 0.45060 -0.24700
N 	N 	0.53970 0.33740 0.95060 -0.24900
N 	N 	0.66530 0.46540 0.90420 -0.27500
N 	N 	0.33470 0.53460 0.09580 -0.27500
N 	N 	0.40845 0.80980 0.70390 -0.28200
N 	N 	0.06250 0.80990 0.73330 -0.29200
N 	N 	0.59155 0.19020 0.29610 -0.28200
N 	N 	0.93750 0.19010 0.26670 -0.29200
N 	N 	0.46030 0.66260 0.04940 -0.24900
N 	N 	0.96510 0.96540 0.40420 -0.27300
N 	N 	0.60570 0.69010 0.76670 -0.28800
N 	N 	0.07785 0.30980 0.20390 -0.27800
N 	N 	0.39430 0.30990 0.23330 -0.28800
N 	N 	0.92215 0.69020 0.79610 -0.27800
O 	O 	0.73964 0.39912 0.51740 -0.43700
O 	O 	0.07728 0.99654 0.76150 -0.41600
O 	O 	0.92272 0.00346 0.23850 -0.41600
O 	O 	0.83532 0.50346 0.73850 -0.42000
O 	O 	0.29830 0.05250 0.61890 -0.43900
O 	O 	0.48461 0.33668 0.44610 -0.46000
O 	O 	0.28721 0.31758 0.07400 -0.42600
O 	O 	0.01967 0.59876 0.49530 -0.54300
O 	O 	0.71279 0.68242 0.92600 -0.42600
O 	O 	0.94567 0.96656 0.87830 -0.43900
O 	O 	0.26739 0.16332 0.05390 -0.45300
O 	O 	0.11373 0.90124 0.00470 -0.53900
O 	O 	0.03030 0.55250 0.11890 -0.43700
O 	O 	0.98033 0.40124 0.50470 -0.54300
O 	O 	0.88627 0.09876 0.99530 -0.53900
O 	O 	0.26350 0.22650 0.54450 -0.50600
O 	O 	0.32121 0.81758 0.57400 -0.42700
O 	O 	0.79053 0.53344 0.62170 -0.45700
O 	O 	0.05433 0.03344 0.12170 -0.43900
O 	O 	0.26036 0.60088 0.48260 -0.43700
O 	O 	0.73650 0.77350 0.45550 -0.50600
O 	O 	0.73261 0.83668 0.94610 -0.45300
O 	O 	0.96970 0.44750 0.88110 -0.43700
O 	O 	0.51539 0.66332 0.55390 -0.46000
O 	O 	0.96550 0.72650 0.04450 -0.51100
O 	O 	0.20947 0.46656 0.37830 -0.45700
O 	O 	0.16468 0.49654 0.26150 -0.42000
O 	O 	0.03450 0.27350 0.95550 -0.51100
O 	O 	0.70170 0.94750 0.38110 -0.43900
O 	O 	0.65616 0.10088 0.98260 -0.43700
O 	O 	0.34384 0.89912 0.01740 -0.43700
O 	O 	0.67879 0.18242 0.42600 -0.42700
