data_crystal

_cell_length_a 13.07210
_cell_length_b 13.07210
_cell_length_c 11.14660
_cell_angle_alpha 90.00000
_cell_angle_beta  90.00000
_cell_angle_gamma 90.00000

_symmetry_space_group_name_	'P 1'
_symmetry_space_group_name_H-M	'P 1'

loop_
_symmetry_equiv_pos_as_xyz
  x,y,z

loop_
_atom_site_label
_atom_site_type_symbol
_atom_site_fract_x
_atom_site_fract_y
_atom_site_fract_z
_atom_site_charge
Mn	Mn	0.75823 0.48857 0.31134 1.29900
Mn	Mn	0.75183 0.71964 0.15987 1.26300
O 	O 	0.64330 0.59450 0.34860 -0.47800
O 	O 	0.59100 0.72980 0.24030 -0.53500
O 	O 	0.37100 0.36510 0.51450 -0.49800
O 	O 	0.25610 0.44490 0.62620 -0.55900
O 	O 	0.86800 0.25680 0.34410 -0.49900
O 	O 	0.87730 0.39860 0.23590 -0.46700
O 	O 	0.16850 0.25530 0.81570 -0.49600
O 	O 	0.12830 0.40860 0.88590 -0.45000
C 	C 	0.57520 0.66060 0.31860 0.40100
C 	C 	0.32670 0.44630 0.54600 0.38600
C 	C 	0.90260 0.30910 0.25990 0.40700
C 	C 	0.13170 0.31340 0.89250 0.43800
C 	C 	0.35360 0.54670 0.48880 -0.15800
C 	C 	0.44560 0.55680 0.43040 0.10300
H 	H 	0.48890 0.50070 0.42300 0.00400
C 	C 	0.47420 0.65230 0.38170 -0.16400
C 	C 	0.41060 0.73500 0.39420 0.08200
H 	H 	0.42950 0.79800 0.36230 0.01300
C 	C 	0.31820 0.72520 0.45430 -0.14100
H 	H 	0.27590 0.78190 0.46310 0.08400
C 	C 	0.28800 0.63150 0.50150 0.07000
H 	H 	0.22370 0.62460 0.54240 0.01400
C 	C 	0.98010 0.26010 0.17890 -0.16100
C 	C 	0.01800 0.31070 0.07850 0.08600
H 	H 	0.99730 0.37740 0.06220 0.01300
C 	C 	0.08640 0.26210 0.00280 -0.16400
C 	C 	0.11900 0.16290 0.02680 -0.00300
H 	H 	0.16390 0.12950 0.97530 0.06100
C 	C 	0.08330 0.11550 0.12860 -0.11000
H 	H 	0.10890 0.05140 0.14870 0.06800
C 	C 	0.01060 0.15980 0.20210 0.05200
H 	H 	0.98260 0.12350 0.26590 0.01500
Mn	Mn	0.24177 0.51143 0.81134 1.30100
Mn	Mn	0.24817 0.28036 0.65987 1.26700
O 	O 	0.35670 0.40550 0.84860 -0.46500
O 	O 	0.40900 0.27020 0.74030 -0.52500
O 	O 	0.62900 0.63490 0.01450 -0.49700
O 	O 	0.74390 0.55510 0.12620 -0.54700
O 	O 	0.13200 0.74320 0.84410 -0.49000
O 	O 	0.12270 0.60140 0.73590 -0.46000
O 	O 	0.83150 0.74470 0.31570 -0.49700
O 	O 	0.87170 0.59140 0.38590 -0.45600
C 	C 	0.42480 0.33940 0.81860 0.37500
C 	C 	0.67330 0.55370 0.04600 0.31500
C 	C 	0.09740 0.69090 0.75990 0.40900
C 	C 	0.86830 0.68660 0.39250 0.41500
C 	C 	0.64640 0.45330 0.98880 -0.00700
C 	C 	0.55440 0.44320 0.93040 0.00600
H 	H 	0.51110 0.49930 0.92300 0.04600
C 	C 	0.52580 0.34770 0.88170 -0.08200
C 	C 	0.58940 0.26500 0.89420 -0.02700
H 	H 	0.57050 0.20200 0.86230 0.05300
C 	C 	0.68180 0.27480 0.95430 0.02500
H 	H 	0.72410 0.21810 0.96310 0.03400
C 	C 	0.71200 0.36850 0.00150 -0.11700
H 	H 	0.77630 0.37540 0.04240 0.06700
C 	C 	0.01990 0.73990 0.67890 -0.16100
C 	C 	0.98200 0.68930 0.57850 0.08600
H 	H 	0.00270 0.62260 0.56220 0.02300
C 	C 	0.91360 0.73790 0.50280 -0.15700
C 	C 	0.88100 0.83710 0.52680 0.07000
H 	H 	0.83610 0.87050 0.47530 0.01400
C 	C 	0.91670 0.88450 0.62860 -0.14800
H 	H 	0.89110 0.94860 0.64870 0.08600
C 	C 	0.98940 0.84020 0.70210 0.07200
H 	H 	0.01740 0.87650 0.76590 0.01400
Mn	Mn	0.51143 0.75823 0.06134 1.28900
Mn	Mn	0.28036 0.75183 0.90987 1.27400
O 	O 	0.40550 0.64330 0.09860 -0.47600
O 	O 	0.27020 0.59100 0.99030 -0.49700
O 	O 	0.63490 0.37100 0.26450 -0.50100
O 	O 	0.55510 0.25610 0.37620 -0.56000
O 	O 	0.74320 0.86800 0.09410 -0.48600
O 	O 	0.60140 0.87730 0.98590 -0.41200
O 	O 	0.74470 0.16850 0.56570 -0.49400
O 	O 	0.59140 0.12830 0.63590 -0.45600
C 	C 	0.33940 0.57520 0.06860 0.35600
C 	C 	0.55370 0.32670 0.29600 0.38400
C 	C 	0.69090 0.90260 0.00990 0.33100
C 	C 	0.68660 0.13170 0.64250 0.41400
C 	C 	0.45330 0.35360 0.23880 -0.15700
C 	C 	0.44320 0.44560 0.18040 0.09200
H 	H 	0.49930 0.48890 0.17300 0.00400
C 	C 	0.34770 0.47420 0.13170 -0.15500
C 	C 	0.26500 0.41060 0.14420 0.07000
H 	H 	0.20200 0.42950 0.11230 0.01000
C 	C 	0.27480 0.31820 0.20430 -0.13800
H 	H 	0.21810 0.27590 0.21310 0.08100
C 	C 	0.36850 0.28800 0.25150 0.06400
H 	H 	0.37540 0.22370 0.29240 0.01400
C 	C 	0.73990 0.98010 0.92890 -0.12500
C 	C 	0.68930 0.01800 0.82850 0.06400
H 	H 	0.62260 0.99730 0.81220 0.03400
C 	C 	0.73790 0.08640 0.75280 -0.15400
C 	C 	0.83710 0.11900 0.77680 0.08500
H 	H 	0.87050 0.16390 0.72530 0.01100
C 	C 	0.88450 0.08330 0.87860 -0.17700
H 	H 	0.94860 0.10890 0.89870 0.10600
C 	C 	0.84020 0.01060 0.95210 0.12500
H 	H 	0.87650 0.98260 0.01590 -0.02900
Mn	Mn	0.48857 0.24177 0.56134 1.30000
Mn	Mn	0.71964 0.24817 0.40987 1.26600
O 	O 	0.59450 0.35670 0.59860 -0.47700
O 	O 	0.72980 0.40900 0.49030 -0.53300
O 	O 	0.36510 0.62900 0.76450 -0.49700
O 	O 	0.44490 0.74390 0.87620 -0.54800
O 	O 	0.25680 0.13200 0.59410 -0.49800
O 	O 	0.39860 0.12270 0.48590 -0.46400
O 	O 	0.25530 0.83150 0.06570 -0.51200
O 	O 	0.40860 0.87170 0.13590 -0.46600
C 	C 	0.66060 0.42480 0.56860 0.40100
C 	C 	0.44630 0.67330 0.79600 0.38500
C 	C 	0.30910 0.09740 0.50990 0.41200
C 	C 	0.31340 0.86830 0.14250 0.42100
C 	C 	0.54670 0.64640 0.73880 -0.15600
C 	C 	0.55680 0.55440 0.68040 0.10200
H 	H 	0.50070 0.51110 0.67300 0.00400
C 	C 	0.65230 0.52580 0.63170 -0.16200
C 	C 	0.73500 0.58940 0.64420 0.08200
H 	H 	0.79800 0.57050 0.61230 0.01400
C 	C 	0.72520 0.68180 0.70430 -0.13800
H 	H 	0.78190 0.72410 0.71310 0.08600
C 	C 	0.63150 0.71200 0.75150 0.07200
H 	H 	0.62460 0.77630 0.79240 0.01700
C 	C 	0.26010 0.01990 0.42890 -0.17200
C 	C 	0.31070 0.98200 0.32850 0.09600
H 	H 	0.37740 0.00270 0.31220 0.01700
C 	C 	0.26210 0.91360 0.25280 -0.16700
C 	C 	0.16290 0.88100 0.27680 0.08000
H 	H 	0.12950 0.83610 0.22530 0.00900
C 	C 	0.11550 0.91670 0.37860 -0.16000
H 	H 	0.05140 0.89110 0.39870 0.08900
C 	C 	0.15980 0.98940 0.45210 0.08200
H 	H 	0.12350 0.01740 0.51590 0.00600
