data_crystal

_cell_length_a 12.33310
_cell_length_b 14.73880
_cell_length_c 14.99460
_cell_angle_alpha 111.54600
_cell_angle_beta  105.07500
_cell_angle_gamma 106.26700

_symmetry_space_group_name_	'P 1'
_symmetry_space_group_name_H-M	'P 1'

loop_
_symmetry_equiv_pos_as_xyz
  x,y,z

loop_
_atom_site_label
_atom_site_type_symbol
_atom_site_fract_x
_atom_site_fract_y
_atom_site_fract_z
_atom_site_charge
U 	U 	0.44523 0.03342 0.45241 0.00100
U 	U 	0.65923 0.79601 0.86780 0.00400
U 	U 	0.69015 0.45513 0.20302 -0.00900
U 	U 	0.13737 0.68460 0.80829 -0.00100
O 	O 	0.60350 0.16990 0.43150 -0.18000
O 	O 	0.59120 0.00600 0.37630 -0.17300
O 	O 	0.65870 0.87320 0.04460 -0.16800
O 	O 	0.75580 0.99050 0.00390 -0.19400
O 	O 	0.43340 0.84650 0.40000 -0.19800
O 	O 	0.30500 0.88980 0.46580 -0.19500
O 	O 	0.14130 0.56850 0.64290 -0.18600
O 	O 	0.23590 0.74180 0.70410 -0.17300
O 	O 	0.30450 0.08920 0.52500 -0.17700
O 	O 	0.44920 0.21600 0.52610 -0.17400
O 	O 	0.55810 0.60050 0.75490 -0.17300
O 	O 	0.53160 0.65470 0.90170 -0.16100
O 	O 	0.77280 0.91100 0.81040 -0.18700
O 	O 	0.68440 0.73820 0.70270 -0.17500
O 	O 	0.83110 0.65440 0.31430 -0.17400
O 	O 	0.69480 0.57870 0.36420 -0.17500
O 	O 	0.53050 0.37390 0.25540 -0.17800
O 	O 	0.54050 0.26760 0.11350 -0.18100
O 	O 	0.23490 0.88140 0.88870 -0.18200
O 	O 	0.14990 0.81600 0.97360 -0.16800
O 	O 	0.03020 0.61220 0.89830 -0.16400
O 	O 	0.01890 0.49250 0.75370 -0.18700
O 	O 	0.70230 0.33720 0.04390 -0.18600
O 	O 	0.83670 0.50570 0.12410 -0.17700
C 	C 	0.73980 0.12260 0.34770 0.14100
C 	C 	0.68450 0.04160 0.23130 -0.22700
H 	H 	0.61430 0.05180 0.19290 0.11300
H 	H 	0.65270 0.96780 0.22230 0.10200
C 	C 	0.78140 0.05570 0.18580 0.14900
C 	C 	0.83020 0.16950 0.19940 -0.29900
H 	H 	0.76200 0.18130 0.16050 0.13800
H 	H 	0.89400 0.17930 0.17080 0.12200
C 	C 	0.88610 0.25050 0.31650 0.20000
H 	H 	0.91650 0.32490 0.32500 -0.02700
C 	C 	0.78990 0.23630 0.36120 -0.30700
H 	H 	0.72130 0.24930 0.32470 0.13900
H 	H 	0.82700 0.28920 0.43660 0.13700
C 	C 	0.84620 0.10420 0.40700 -0.27900
H 	H 	0.81520 0.03010 0.39740 0.12300
H 	H 	0.88150 0.15500 0.48300 0.11200
C 	C 	0.94800 0.12200 0.36300 0.18700
H 	H 	0.01810 0.11080 0.40180 -0.03800
C 	C 	0.89000 0.03780 0.24550 -0.24100
H 	H 	0.85930 0.96450 0.23780 0.09500
H 	H 	0.95300 0.04540 0.21600 0.11400
C 	C 	0.99650 0.23490 0.37590 -0.25900
H 	H 	0.05970 0.24450 0.34670 0.08400
H 	H 	0.03500 0.28850 0.45120 0.09000
C 	C 	0.63880 0.09870 0.38710 0.19100
C 	C 	0.72920 0.97080 0.07230 0.16700
C 	C 	0.29870 0.71530 0.43010 0.14200
C 	C 	0.28090 0.73450 0.53350 -0.26400
H 	H 	0.36210 0.77920 0.59400 0.12500
H 	H 	0.22800 0.77400 0.54170 0.12200
C 	C 	0.22060 0.62730 0.53250 0.14800
C 	C 	0.09420 0.55890 0.43950 -0.29200
H 	H 	0.03980 0.59700 0.44690 0.12400
H 	H 	0.05490 0.49000 0.43870 0.12100
C 	C 	0.10970 0.53710 0.33580 0.19800
H 	H 	0.02720 0.49090 0.27520 -0.02700
C 	C 	0.16720 0.64580 0.33690 -0.28400
H 	H 	0.11350 0.68430 0.34590 0.12800
H 	H 	0.17440 0.63300 0.26960 0.11500
C 	C 	0.37790 0.65480 0.41760 -0.30700
H 	H 	0.46120 0.69900 0.47560 0.12200
H 	H 	0.38720 0.64030 0.35070 0.12600
C 	C 	0.32070 0.54930 0.41800 0.22500
H 	H 	0.37600 0.51140 0.41030 -0.03400
C 	C 	0.30480 0.56710 0.52030 -0.30900
H 	H 	0.38630 0.61000 0.58070 0.14100
H 	H 	0.26690 0.49720 0.51820 0.12000
C 	C 	0.19680 0.48000 0.32530 -0.32400
H 	H 	0.16010 0.40970 0.32280 0.11000
H 	H 	0.20790 0.46720 0.25930 0.11300
C 	C 	0.35040 0.82300 0.43180 0.19500
C 	C 	0.20070 0.64740 0.63140 0.18300
C 	C 	0.36540 0.26800 0.65580 0.15200
C 	C 	0.44070 0.38490 0.68590 -0.27700
H 	H 	0.40660 0.39940 0.62770 0.12200
H 	H 	0.52750 0.39690 0.69760 0.12900
C 	C 	0.43720 0.46240 0.78610 0.16400
C 	C 	0.49220 0.43950 0.87680 -0.31000
H 	H 	0.58000 0.45420 0.89120 0.13200
H 	H 	0.48840 0.48780 0.94130 0.13900
C 	C 	0.42010 0.32260 0.84760 0.22200
H 	H 	0.45720 0.30850 0.90610 -0.02000
C 	C 	0.42120 0.24690 0.74800 -0.30500
H 	H 	0.37260 0.17180 0.73000 0.13400
H 	H 	0.50720 0.25650 0.75900 0.12200
C 	C 	0.23250 0.25070 0.64290 -0.30600
H 	H 	0.19300 0.26240 0.58410 0.11300
H 	H 	0.18480 0.17550 0.62500 0.12000
C 	C 	0.22850 0.32650 0.74240 0.23300
H 	H 	0.14100 0.31460 0.73080 -0.05400
C 	C 	0.30420 0.44280 0.76940 -0.32500
H 	H 	0.26660 0.45660 0.71170 0.14100
H 	H 	0.30250 0.49320 0.83400 0.14200
C 	C 	0.28450 0.30560 0.83100 -0.33800
H 	H 	0.23540 0.23110 0.81410 0.11900
H 	H 	0.28320 0.35520 0.89630 0.12200
C 	C 	0.36740 0.18700 0.56190 0.17800
C 	C 	0.51330 0.57810 0.81490 0.18100
C 	C 	0.79770 0.85280 0.64620 0.14600
C 	C 	0.76700 0.74610 0.55290 -0.27200
H 	H 	0.80470 0.70450 0.57840 0.13500
H 	H 	0.67630 0.70350 0.51740 0.12700
C 	C 	0.81540 0.76570 0.47500 0.13900
C 	C 	0.75280 0.83100 0.43540 -0.27500
H 	H 	0.78290 0.84470 0.38450 0.11300
H 	H 	0.66210 0.78860 0.39940 0.12300
C 	C 	0.78370 0.93780 0.52830 0.16500
H 	H 	0.74360 0.97910 0.50290 -0.01800
C 	C 	0.73690 0.91630 0.60790 -0.27800
H 	H 	0.75720 0.98530 0.66820 0.11100
H 	H 	0.64600 0.87510 0.57410 0.11900
C 	C 	0.93760 0.91940 0.70150 -0.30000
H 	H 	0.97840 0.87990 0.72810 0.13100
H 	H 	0.95760 0.98830 0.76190 0.11000
C 	C 	0.98410 0.94060 0.62220 0.20900
H 	H 	0.07560 0.98430 0.65860 -0.05500
C 	C 	0.95810 0.83450 0.53100 -0.29900
H 	H 	0.99980 0.79550 0.55760 0.13000
H 	H 	0.99000 0.84840 0.48100 0.12900
C 	C 	0.92530 0.00360 0.58370 -0.27100
H 	H 	0.95720 0.01840 0.53400 0.11300
H 	H 	0.94600 0.07310 0.64360 0.10600
C 	C 	0.74830 0.83270 0.72280 0.18700
C 	C 	0.77960 0.66270 0.38110 0.17900
C 	C 	0.35390 0.20130 0.13900 0.14100
C 	C 	0.34200 0.08760 0.07200 -0.26100
H 	H 	0.36320 0.08500 0.01210 0.13000
H 	H 	0.40050 0.07040 0.11500 0.12100
C 	C 	0.21240 0.00650 0.03210 0.11700
C 	C 	0.12240 0.03320 0.96780 -0.21600
H 	H 	0.03690 0.98020 0.94280 0.09200
H 	H 	0.13910 0.02940 0.90570 0.10200
C 	C 	0.13560 0.14710 0.03530 0.16300
H 	H 	0.07590 0.16430 0.99230 -0.02400
C 	C 	0.26470 0.22850 0.07390 -0.28400
H 	H 	0.27250 0.30130 0.11700 0.11100
H 	H 	0.28420 0.22740 0.01350 0.11000
C 	C 	0.32660 0.20420 0.23440 -0.28400
H 	H 	0.38600 0.18710 0.27660 0.13500
H 	H 	0.33530 0.27680 0.27940 0.12200
C 	C 	0.19360 0.12080 0.19450 0.16800
H 	H 	0.17360 0.12310 0.25560 -0.02100
C 	C 	0.17800 0.00710 0.12530 -0.18200
H 	H 	0.09150 0.95500 0.09820 0.07800
H 	H 	0.23270 0.98620 0.16710 0.08200
C 	C 	0.10490 0.14810 0.12870 -0.28900
H 	H 	0.11100 0.22010 0.17260 0.09600
H 	H 	0.01900 0.09520 0.10250 0.11500
C 	C 	0.48240 0.28410 0.17300 0.18400
C 	C 	0.19960 0.89650 0.96290 0.19100
C 	C 	0.95430 0.42810 0.86630 0.18200
C 	C 	0.89030 0.46120 0.94110 -0.27700
H 	H 	0.94730 0.53180 0.00300 0.13300
H 	H 	0.81580 0.46770 0.90450 0.12200
C 	C 	0.85370 0.37560 0.97650 0.16600
C 	C 	0.96880 0.36880 0.03570 -0.27100
H 	H 	0.94620 0.31560 0.06070 0.11100
H 	H 	0.02600 0.43950 0.09750 0.09500
C 	C 	0.03300 0.33420 0.95980 0.20100
H 	H 	0.10820 0.32810 0.99770 -0.04200
C 	C 	0.07190 0.41920 0.92580 -0.32100
H 	H 	0.11460 0.39900 0.87920 0.12000
H 	H 	0.12970 0.48930 0.98800 0.12900
C 	C 	0.86690 0.31980 0.77120 -0.33800
H 	H 	0.79210 0.32460 0.73260 0.14100
H 	H 	0.90790 0.29900 0.72330 0.13900
C 	C 	0.83050 0.23580 0.80570 0.24400
H 	H 	0.77210 0.16490 0.74300 -0.03900
C 	C 	0.76860 0.26820 0.87990 -0.32400
H 	H 	0.69270 0.27260 0.84280 0.12800
H 	H 	0.74410 0.21250 0.90170 0.14500
C 	C 	0.94460 0.22580 0.86580 -0.33500
H 	H 	0.91900 0.17190 0.88940 0.13800
H 	H 	0.98600 0.20170 0.81910 0.12200
C 	C 	0.00140 0.51310 0.83520 0.17100
C 	C 	0.79340 0.40800 0.05150 0.17600
