data_crystal

_cell_length_a 21.15600
_cell_length_b 8.72600
_cell_length_c 15.84700
_cell_angle_alpha 90.00000
_cell_angle_beta  90.00000
_cell_angle_gamma 90.00000

_symmetry_space_group_name_	'P 1'
_symmetry_space_group_name_H-M	'P 1'

loop_
_symmetry_equiv_pos_as_xyz
  x,y,z

loop_
_atom_site_label
_atom_site_type_symbol
_atom_site_fract_x
_atom_site_fract_y
_atom_site_fract_z
_atom_site_charge
O 	O 	0.98353 0.77550 0.87587 -0.33400
O 	O 	0.92914 0.90370 0.78063 -0.33600
C 	C 	0.94139 0.87410 0.85752 0.28300
N 	N 	0.57052 0.57160 0.23478 -0.23700
N 	N 	0.74672 0.24370 0.10909 -0.13200
N 	N 	0.76565 0.22900 0.24986 -0.08200
C 	C 	0.90602 0.95240 0.92642 -0.05400
C 	C 	0.92207 0.92600 0.01044 0.00200
H 	H 	0.95550 0.86100 0.02340 0.06800
C 	C 	0.83765 0.09140 0.05553 0.00800
C 	C 	0.79899 0.16230 0.12195 0.12700
C 	C 	0.72822 0.28130 0.18875 0.08900
C 	C 	0.85578 0.04840 0.90744 -0.00100
H 	H 	0.84510 0.06700 0.85140 0.05100
C 	C 	0.67293 0.37700 0.20521 0.06500
N 	N 	0.81079 0.15330 0.20501 -0.17800
H 	H 	0.84250 0.10610 0.22690 0.14700
C 	C 	0.88838 0.99610 0.07468 -0.05800
H 	H 	0.89970 0.97940 0.13060 0.07300
C 	C 	0.82135 0.11690 0.97180 -0.06200
H 	H 	0.78730 0.18000 0.95880 0.06500
C 	C 	0.65720 0.42200 0.28644 -0.13200
H 	H 	0.68070 0.38830 0.33240 0.08600
C 	C 	0.60579 0.51820 0.29792 0.08800
H 	H 	0.59540 0.54710 0.35270 -0.00100
C 	C 	0.63562 0.43000 0.13947 -0.12700
H 	H 	0.64430 0.40080 0.08420 0.08800
C 	C 	0.58556 0.52630 0.15647 0.07500
H 	H 	0.56110 0.56130 0.11160 0.00400
O 	O 	0.01647 0.77550 0.62413 -0.41600
O 	O 	0.07086 0.90370 0.71937 -0.38000
C 	C 	0.05861 0.87410 0.64248 0.29200
N 	N 	0.42948 0.57160 0.26522 -0.23800
N 	N 	0.25328 0.24370 0.39091 -0.13300
N 	N 	0.23435 0.22900 0.25014 -0.08300
C 	C 	0.09398 0.95240 0.57358 -0.09200
C 	C 	0.07793 0.92600 0.48956 0.01300
H 	H 	0.04450 0.86100 0.47660 0.02600
C 	C 	0.16235 0.09140 0.44447 0.01600
C 	C 	0.20101 0.16230 0.37805 0.12000
C 	C 	0.27178 0.28130 0.31125 0.08900
C 	C 	0.14422 0.04840 0.59256 0.01300
H 	H 	0.15490 0.06700 0.64860 0.04100
C 	C 	0.32707 0.37700 0.29479 0.06500
N 	N 	0.18921 0.15330 0.29499 -0.17600
H 	H 	0.15750 0.10610 0.27310 0.14400
C 	C 	0.11162 0.99610 0.42532 -0.08700
H 	H 	0.10030 0.97940 0.36940 0.06400
C 	C 	0.17865 0.11690 0.52820 -0.08200
H 	H 	0.21270 0.18000 0.54120 0.07000
C 	C 	0.34280 0.42200 0.21356 -0.13100
H 	H 	0.31930 0.38830 0.16760 0.08500
C 	C 	0.39421 0.51820 0.20208 0.08800
H 	H 	0.40460 0.54710 0.14730 -0.00100
C 	C 	0.36438 0.43000 0.36053 -0.12700
H 	H 	0.35570 0.40080 0.41580 0.08700
C 	C 	0.41444 0.52630 0.34353 0.07500
H 	H 	0.43890 0.56130 0.38840 0.00400
O 	O 	0.48353 0.77550 0.12413 -0.38100
O 	O 	0.42914 0.90370 0.21937 -0.36300
C 	C 	0.44139 0.87410 0.14248 0.28700
N 	N 	0.07052 0.57160 0.76522 -0.24900
N 	N 	0.24672 0.24370 0.89091 -0.13300
N 	N 	0.26565 0.22900 0.75014 -0.08300
C 	C 	0.40602 0.95240 0.07358 -0.07400
C 	C 	0.42207 0.92600 0.98956 0.00800
H 	H 	0.45550 0.86100 0.97660 0.04700
C 	C 	0.33765 0.09140 0.94447 0.01200
C 	C 	0.29899 0.16230 0.87805 0.12300
C 	C 	0.22822 0.28130 0.81125 0.08800
C 	C 	0.35578 0.04840 0.09256 0.00600
H 	H 	0.34510 0.06700 0.14860 0.04600
C 	C 	0.17293 0.37700 0.79479 0.06600
N 	N 	0.31079 0.15330 0.79499 -0.17700
H 	H 	0.34250 0.10610 0.77310 0.14600
C 	C 	0.38838 0.99610 0.92532 -0.07300
H 	H 	0.39970 0.97940 0.86940 0.06800
C 	C 	0.32135 0.11690 0.02820 -0.07200
H 	H 	0.28730 0.18000 0.04120 0.06700
C 	C 	0.15720 0.42200 0.71356 -0.13600
H 	H 	0.18070 0.38830 0.66760 0.08500
C 	C 	0.10579 0.51820 0.70208 0.08500
H 	H 	0.09540 0.54710 0.64730 -0.00800
C 	C 	0.13562 0.43000 0.86053 -0.13400
H 	H 	0.14430 0.40080 0.91580 0.08700
C 	C 	0.08556 0.52630 0.84353 0.07400
H 	H 	0.06110 0.56130 0.88840 -0.01600
O 	O 	0.51647 0.77550 0.37587 -0.38100
O 	O 	0.57086 0.90370 0.28063 -0.36300
C 	C 	0.55861 0.87410 0.35752 0.28700
N 	N 	0.92948 0.57160 0.73478 -0.21800
N 	N 	0.75328 0.24370 0.60909 -0.13300
N 	N 	0.73435 0.22900 0.74986 -0.08300
C 	C 	0.59398 0.95240 0.42642 -0.07500
C 	C 	0.57793 0.92600 0.51044 0.00900
H 	H 	0.54450 0.86100 0.52340 0.04700
C 	C 	0.66235 0.09140 0.55553 0.01200
C 	C 	0.70101 0.16230 0.62195 0.12300
C 	C 	0.77178 0.28130 0.68875 0.09000
C 	C 	0.64422 0.04840 0.40744 0.00700
H 	H 	0.65490 0.06700 0.35140 0.04500
C 	C 	0.82707 0.37700 0.70521 0.06400
N 	N 	0.68921 0.15330 0.70501 -0.17700
H 	H 	0.65750 0.10610 0.72690 0.14600
C 	C 	0.61162 0.99610 0.57468 -0.07300
H 	H 	0.60030 0.97940 0.63060 0.06800
C 	C 	0.67865 0.11690 0.47180 -0.07300
H 	H 	0.71270 0.18000 0.45880 0.06700
C 	C 	0.84280 0.42200 0.78644 -0.12600
H 	H 	0.81930 0.38830 0.83240 0.08600
C 	C 	0.89421 0.51820 0.79792 0.09000
H 	H 	0.90460 0.54710 0.85270 0.00800
C 	C 	0.86438 0.43000 0.63947 -0.12000
H 	H 	0.85570 0.40080 0.58420 0.08800
C 	C 	0.91444 0.52630 0.65647 0.07700
H 	H 	0.93890 0.56130 0.61160 0.02600
Ni	Ni	0.50000 0.73025 0.25000 1.09600
Ni	Ni	0.00000 0.73025 0.75000 1.06300
O 	O 	0.51647 0.22450 0.87587 -0.38100
O 	O 	0.57086 0.09630 0.78063 -0.36300
C 	C 	0.55861 0.12590 0.85752 0.28700
N 	N 	0.92948 0.42840 0.23478 -0.21900
N 	N 	0.75328 0.75630 0.10909 -0.13300
N 	N 	0.73435 0.77100 0.24986 -0.08300
C 	C 	0.59398 0.04760 0.92642 -0.07400
C 	C 	0.57793 0.07400 0.01044 0.00800
H 	H 	0.54450 0.13900 0.02340 0.04700
C 	C 	0.66235 0.90860 0.05553 0.01200
C 	C 	0.70101 0.83770 0.12195 0.12300
C 	C 	0.77178 0.71870 0.18875 0.09000
C 	C 	0.64422 0.95160 0.90744 0.00600
H 	H 	0.65490 0.93300 0.85140 0.04500
C 	C 	0.82707 0.62300 0.20521 0.06400
N 	N 	0.68921 0.84670 0.20501 -0.17700
H 	H 	0.65750 0.89390 0.22690 0.14600
C 	C 	0.61162 0.00390 0.07468 -0.07300
H 	H 	0.60030 0.02060 0.13060 0.06800
C 	C 	0.67865 0.88310 0.97180 -0.07300
H 	H 	0.71270 0.82000 0.95880 0.06700
C 	C 	0.84280 0.57800 0.28644 -0.12600
H 	H 	0.81930 0.61170 0.33240 0.08600
C 	C 	0.89421 0.48180 0.29792 0.09000
H 	H 	0.90460 0.45290 0.35270 0.00800
C 	C 	0.86438 0.57000 0.13947 -0.12000
H 	H 	0.85570 0.59920 0.08420 0.08800
C 	C 	0.91444 0.47370 0.15647 0.07700
H 	H 	0.93890 0.43870 0.11160 0.02600
O 	O 	0.48353 0.22450 0.62413 -0.38100
O 	O 	0.42914 0.09630 0.71937 -0.36300
C 	C 	0.44139 0.12590 0.64248 0.28700
N 	N 	0.07052 0.42840 0.26522 -0.24900
N 	N 	0.24672 0.75630 0.39091 -0.13300
N 	N 	0.26565 0.77100 0.25014 -0.08300
C 	C 	0.40602 0.04760 0.57358 -0.07500
C 	C 	0.42207 0.07400 0.48956 0.00900
H 	H 	0.45550 0.13900 0.47660 0.04700
C 	C 	0.33765 0.90860 0.44447 0.01200
C 	C 	0.29899 0.83770 0.37805 0.12300
C 	C 	0.22822 0.71870 0.31125 0.08800
C 	C 	0.35578 0.95160 0.59256 0.00700
H 	H 	0.34510 0.93300 0.64860 0.04500
C 	C 	0.17293 0.62300 0.29479 0.06600
N 	N 	0.31079 0.84670 0.29499 -0.17700
H 	H 	0.34250 0.89390 0.27310 0.14600
C 	C 	0.38838 0.00390 0.42532 -0.07300
H 	H 	0.39970 0.02060 0.36940 0.06800
C 	C 	0.32135 0.88310 0.52820 -0.07300
H 	H 	0.28730 0.82000 0.54120 0.06800
C 	C 	0.15720 0.57800 0.21356 -0.13600
H 	H 	0.18070 0.61170 0.16760 0.08500
C 	C 	0.10579 0.48180 0.20208 0.08500
H 	H 	0.09540 0.45290 0.14730 -0.00800
C 	C 	0.13562 0.57000 0.36053 -0.13400
H 	H 	0.14430 0.59920 0.41580 0.08700
C 	C 	0.08556 0.47370 0.34353 0.07400
H 	H 	0.06110 0.43870 0.38840 -0.01600
O 	O 	0.01647 0.22450 0.12413 -0.41500
O 	O 	0.07086 0.09630 0.21937 -0.38000
C 	C 	0.05861 0.12590 0.14248 0.29200
N 	N 	0.42948 0.42840 0.76522 -0.23800
N 	N 	0.25328 0.75630 0.89091 -0.13300
N 	N 	0.23435 0.77100 0.75014 -0.08300
C 	C 	0.09398 0.04760 0.07358 -0.09100
C 	C 	0.07793 0.07400 0.98956 0.01100
H 	H 	0.04450 0.13900 0.97660 0.02700
C 	C 	0.16235 0.90860 0.94447 0.01400
C 	C 	0.20101 0.83770 0.87805 0.12000
C 	C 	0.27178 0.71870 0.81125 0.08900
C 	C 	0.14422 0.95160 0.09256 0.01200
H 	H 	0.15490 0.93300 0.14860 0.04100
C 	C 	0.32707 0.62300 0.79479 0.06500
N 	N 	0.18921 0.84670 0.79499 -0.17600
H 	H 	0.15750 0.89390 0.77310 0.14500
C 	C 	0.11162 0.00390 0.92532 -0.08600
H 	H 	0.10030 0.02060 0.86940 0.06300
C 	C 	0.17865 0.88310 0.02820 -0.08000
H 	H 	0.21270 0.82000 0.04120 0.06900
C 	C 	0.34280 0.57800 0.71356 -0.13100
H 	H 	0.31930 0.61170 0.66760 0.08500
C 	C 	0.39421 0.48180 0.70208 0.08800
H 	H 	0.40460 0.45290 0.64730 -0.00100
C 	C 	0.36438 0.57000 0.86053 -0.12700
H 	H 	0.35570 0.59920 0.91580 0.08700
C 	C 	0.41444 0.47370 0.84353 0.07500
H 	H 	0.43890 0.43870 0.88840 0.00400
O 	O 	0.98353 0.22450 0.37587 -0.33500
O 	O 	0.92914 0.09630 0.28063 -0.33800
C 	C 	0.94139 0.12590 0.35752 0.28200
N 	N 	0.57052 0.42840 0.73478 -0.23800
N 	N 	0.74672 0.75630 0.60909 -0.13300
N 	N 	0.76565 0.77100 0.74986 -0.08300
C 	C 	0.90602 0.04760 0.42642 -0.05600
C 	C 	0.92207 0.07400 0.51044 0.00500
H 	H 	0.95550 0.13900 0.52340 0.06800
C 	C 	0.83765 0.90860 0.55553 0.00900
C 	C 	0.79899 0.83770 0.62195 0.12600
C 	C 	0.72822 0.71870 0.68875 0.08900
C 	C 	0.85578 0.95160 0.40744 0.00000
H 	H 	0.84510 0.93300 0.35140 0.05000
C 	C 	0.67293 0.62300 0.70521 0.06500
N 	N 	0.81079 0.84670 0.70501 -0.17700
H 	H 	0.84250 0.89390 0.72690 0.14700
C 	C 	0.88838 0.00390 0.57468 -0.05900
H 	H 	0.89970 0.02060 0.63060 0.07400
C 	C 	0.82135 0.88310 0.47180 -0.06400
H 	H 	0.78730 0.82000 0.45880 0.06500
C 	C 	0.65720 0.57800 0.78644 -0.13200
H 	H 	0.68070 0.61170 0.83240 0.08600
C 	C 	0.60579 0.48180 0.79792 0.08800
H 	H 	0.59540 0.45290 0.85270 -0.00100
C 	C 	0.63562 0.57000 0.63947 -0.12700
H 	H 	0.64430 0.59920 0.58420 0.08800
C 	C 	0.58556 0.47370 0.65647 0.07500
H 	H 	0.56110 0.43870 0.61160 0.00400
Ni	Ni	-0.00000 0.26975 0.25000 1.06400
Ni	Ni	0.50000 0.26975 0.75000 1.09600
