data_crystal

_cell_length_a 10.95390
_cell_length_b 17.44920
_cell_length_c 18.70000
_cell_angle_alpha 88.86800
_cell_angle_beta  86.16000
_cell_angle_gamma 76.46200

_symmetry_space_group_name_	'P 1'
_symmetry_space_group_name_H-M	'P 1'

loop_
_symmetry_equiv_pos_as_xyz
  x,y,z

loop_
_atom_site_label
_atom_site_type_symbol
_atom_site_fract_x
_atom_site_fract_y
_atom_site_fract_z
_atom_site_charge
Ba	Ba	0.40167 0.39294 0.49075 2.24300
Ba	Ba	0.44130 0.46473 0.24564 1.62800
Ba	Ba	0.14237 0.64461 0.03220 1.74500
Ba	Ba	0.80156 0.09600 0.98444 2.19900
Ba	Ba	0.11344 0.95874 0.26078 1.57500
Ba	Ba	0.20044 0.17734 0.45978 1.89800
Fe	Fe	0.10873 0.63600 0.36585 1.22500
Fe	Fe	0.39548 0.32055 0.82403 1.22400
Fe	Fe	0.26340 0.14500 0.12777 1.23000
Fe	Fe	0.74537 0.14279 0.32200 1.22500
O 	O 	0.21950 0.56200 0.43180 -0.46700
O 	O 	0.37800 0.55530 0.50130 -0.55600
O 	O 	0.21970 0.70720 0.39260 -0.41200
O 	O 	0.36970 0.71170 0.46740 -0.37600
O 	O 	0.97390 0.68940 0.43890 -0.47100
O 	O 	0.81170 0.66700 0.50710 -0.53500
O 	O 	0.99370 0.55930 0.36630 -0.38300
O 	O 	0.82130 0.53630 0.42560 -0.37700
O 	O 	0.22160 0.58290 0.28220 -0.51500
O 	O 	0.25850 0.59560 0.16420 -0.48300
O 	O 	0.03340 0.70600 0.28620 -0.42000
O 	O 	0.04970 0.72020 0.16660 -0.37600
O 	O 	0.47220 0.39330 0.75530 -0.50700
O 	O 	0.47640 0.42970 0.64010 -0.43600
O 	O 	0.37460 0.27520 0.72880 -0.40300
O 	O 	0.36750 0.30600 0.61270 -0.43300
O 	O 	0.56770 0.24800 0.84040 -0.41300
O 	O 	0.72970 0.23800 0.90970 -0.49000
O 	O 	0.44020 0.37220 0.91000 -0.44000
O 	O 	0.59900 0.36620 0.98140 -0.45600
O 	O 	0.23020 0.40530 0.83110 -0.39300
O 	O 	0.04020 0.42800 0.89530 -0.40700
O 	O 	0.29230 0.25630 0.87860 -0.36200
O 	O 	0.11270 0.27320 0.94540 -0.34800
O 	O 	0.09460 0.21190 0.09920 -0.41400
O 	O 	0.93740 0.20790 0.02900 -0.50800
O 	O 	0.21170 0.06820 0.06270 -0.47900
O 	O 	0.06660 0.05930 0.98830 -0.51400
O 	O 	0.36150 0.19340 0.05420 -0.38500
O 	O 	0.54470 0.16800 0.98920 -0.38900
O 	O 	0.42990 0.06410 0.12940 -0.39200
O 	O 	0.61910 0.03230 0.06930 -0.35700
O 	O 	0.18670 0.09750 0.21370 -0.50900
O 	O 	0.14420 0.11140 0.33170 -0.48300
O 	O 	0.28320 0.21960 0.20480 -0.40600
O 	O 	0.25330 0.24070 0.32290 -0.39300
O 	O 	0.68260 0.18830 0.22860 -0.41300
O 	O 	0.71450 0.17600 0.11050 -0.42500
O 	O 	0.86660 0.06850 0.25290 -0.50500
O 	O 	0.92230 0.05350 0.13620 -0.39800
O 	O 	0.61730 0.07770 0.34200 -0.40400
O 	O 	0.42170 0.08470 0.38980 -0.42000
O 	O 	0.60590 0.22260 0.37450 -0.43700
O 	O 	0.42290 0.23490 0.43860 -0.51900
O 	O 	0.85010 0.22320 0.32580 -0.37700
O 	O 	0.97340 0.26440 0.39970 -0.33200
O 	O 	0.83890 0.10120 0.40840 -0.44700
O 	O 	0.97670 0.13010 0.48050 -0.45600
O 	O 	0.29420 0.39620 0.35110 -0.67000
H 	H 	0.21090 0.42630 0.34400 0.18600
H 	H 	0.28980 0.34320 0.34340 0.20400
O 	O 	0.56710 0.38270 0.36040 -0.68300
H 	H 	0.65130 0.39010 0.35700 0.19600
H 	H 	0.57730 0.32730 0.35590 0.20400
O 	O 	0.68490 0.07640 0.85190 -0.66900
H 	H 	0.63870 0.03660 0.84930 0.20700
H 	H 	0.62440 0.12430 0.84410 0.21200
O 	O 	0.95920 0.11760 0.85590 -0.68600
H 	H 	0.95320 0.17060 0.84100 0.21000
H 	H 	0.04770 0.09580 0.85780 0.20600
C 	C 	0.29890 0.59140 0.46090 0.26900
C 	C 	0.29750 0.67870 0.44000 0.21800
C 	C 	0.89360 0.64940 0.45740 0.25400
C 	C 	0.90190 0.57380 0.41340 0.23300
C 	C 	0.19810 0.61590 0.22040 0.24100
C 	C 	0.08310 0.68710 0.22350 0.21900
C 	C 	0.45240 0.38660 0.68980 0.22700
C 	C 	0.39230 0.31670 0.67440 0.25800
C 	C 	0.62330 0.27090 0.89200 0.24900
C 	C 	0.54880 0.34350 0.93160 0.24700
C 	C 	0.14620 0.38430 0.87480 0.20000
C 	C 	0.18450 0.29830 0.90350 0.22700
C 	C 	0.03990 0.17930 0.05420 0.25900
C 	C 	0.11030 0.09590 0.03200 0.23500
C 	C 	0.47160 0.15210 0.03670 0.25600
C 	C 	0.51350 0.07580 0.08120 0.22100
C 	C 	0.24410 0.20520 0.26860 0.23700
C 	C 	0.18470 0.13250 0.27420 0.24900
C 	C 	0.74090 0.15550 0.17190 0.25400
C 	C 	0.85410 0.08570 0.18670 0.23300
C 	C 	0.51370 0.11230 0.37670 0.21700
C 	C 	0.51130 0.19720 0.40050 0.26400
C 	C 	0.91440 0.21670 0.38190 0.19300
C 	C 	0.91180 0.14320 0.42880 0.25100
Ba	Ba	0.59833 0.60706 0.50925 2.24400
Ba	Ba	0.55870 0.53527 0.75436 1.62900
Ba	Ba	0.85763 0.35539 0.96780 1.74500
Ba	Ba	0.19844 0.90400 0.01556 2.19900
Ba	Ba	0.88656 0.04126 0.73922 1.57500
Ba	Ba	0.79956 0.82266 0.54022 1.89800
Fe	Fe	0.89127 0.36400 0.63415 1.22500
Fe	Fe	0.60452 0.67945 0.17597 1.22400
Fe	Fe	0.73660 0.85500 0.87223 1.23000
Fe	Fe	0.25463 0.85721 0.67800 1.22500
O 	O 	0.78050 0.43800 0.56820 -0.46700
O 	O 	0.62200 0.44470 0.49870 -0.55600
O 	O 	0.78030 0.29280 0.60740 -0.41200
O 	O 	0.63030 0.28830 0.53260 -0.37600
O 	O 	0.02610 0.31060 0.56110 -0.47100
O 	O 	0.18830 0.33300 0.49290 -0.53500
O 	O 	0.00630 0.44070 0.63370 -0.38300
O 	O 	0.17870 0.46370 0.57440 -0.37700
O 	O 	0.77840 0.41710 0.71780 -0.51500
O 	O 	0.74150 0.40440 0.83580 -0.48300
O 	O 	0.96660 0.29400 0.71380 -0.42000
O 	O 	0.95030 0.27980 0.83340 -0.37600
O 	O 	0.52780 0.60670 0.24470 -0.50700
O 	O 	0.52360 0.57030 0.35990 -0.43600
O 	O 	0.62540 0.72480 0.27120 -0.40300
O 	O 	0.63250 0.69400 0.38730 -0.43300
O 	O 	0.43230 0.75200 0.15960 -0.41300
O 	O 	0.27030 0.76200 0.09030 -0.49000
O 	O 	0.55980 0.62780 0.09000 -0.44000
O 	O 	0.40100 0.63380 0.01860 -0.45600
O 	O 	0.76980 0.59470 0.16890 -0.39300
O 	O 	0.95980 0.57200 0.10470 -0.40700
O 	O 	0.70770 0.74370 0.12140 -0.36200
O 	O 	0.88730 0.72680 0.05460 -0.34800
O 	O 	0.90540 0.78810 0.90080 -0.41400
O 	O 	0.06260 0.79210 0.97100 -0.50800
O 	O 	0.78830 0.93180 0.93730 -0.47900
O 	O 	0.93340 0.94070 0.01170 -0.51400
O 	O 	0.63850 0.80660 0.94580 -0.38500
O 	O 	0.45530 0.83200 0.01080 -0.38900
O 	O 	0.57010 0.93590 0.87060 -0.39200
O 	O 	0.38090 0.96770 0.93070 -0.35700
O 	O 	0.81330 0.90250 0.78630 -0.50900
O 	O 	0.85580 0.88860 0.66830 -0.48300
O 	O 	0.71680 0.78040 0.79520 -0.40600
O 	O 	0.74670 0.75930 0.67710 -0.39300
O 	O 	0.31740 0.81170 0.77140 -0.41300
O 	O 	0.28550 0.82400 0.88950 -0.42500
O 	O 	0.13340 0.93150 0.74710 -0.50500
O 	O 	0.07770 0.94650 0.86380 -0.39800
O 	O 	0.38270 0.92230 0.65800 -0.40400
O 	O 	0.57830 0.91530 0.61020 -0.42000
O 	O 	0.39410 0.77740 0.62550 -0.43700
O 	O 	0.57710 0.76510 0.56140 -0.51900
O 	O 	0.14990 0.77680 0.67420 -0.37700
O 	O 	0.02660 0.73560 0.60030 -0.33200
O 	O 	0.16110 0.89880 0.59160 -0.44700
O 	O 	0.02330 0.86990 0.51950 -0.45600
O 	O 	0.70580 0.60380 0.64890 -0.67000
H 	H 	0.78910 0.57370 0.65600 0.18600
H 	H 	0.71020 0.65680 0.65660 0.20400
O 	O 	0.43290 0.61730 0.63960 -0.68300
H 	H 	0.34870 0.60990 0.64300 0.19600
H 	H 	0.42270 0.67270 0.64410 0.20400
O 	O 	0.31510 0.92360 0.14810 -0.66900
H 	H 	0.36130 0.96340 0.15070 0.20700
H 	H 	0.37560 0.87570 0.15590 0.21200
O 	O 	0.04080 0.88240 0.14410 -0.68600
H 	H 	0.04680 0.82940 0.15900 0.21000
H 	H 	0.95230 0.90420 0.14220 0.20600
C 	C 	0.70110 0.40860 0.53910 0.26900
C 	C 	0.70250 0.32130 0.56000 0.21800
C 	C 	0.10640 0.35060 0.54260 0.25400
C 	C 	0.09810 0.42620 0.58660 0.23300
C 	C 	0.80190 0.38410 0.77960 0.24100
C 	C 	0.91690 0.31290 0.77650 0.21900
C 	C 	0.54760 0.61340 0.31020 0.22700
C 	C 	0.60770 0.68330 0.32560 0.25800
C 	C 	0.37670 0.72910 0.10800 0.24900
C 	C 	0.45120 0.65650 0.06840 0.24700
C 	C 	0.85380 0.61570 0.12520 0.20000
C 	C 	0.81550 0.70170 0.09650 0.22700
C 	C 	0.96010 0.82070 0.94580 0.25900
C 	C 	0.88970 0.90410 0.96800 0.23500
C 	C 	0.52840 0.84790 0.96330 0.25600
C 	C 	0.48650 0.92420 0.91880 0.22100
C 	C 	0.75590 0.79480 0.73140 0.23700
C 	C 	0.81530 0.86750 0.72580 0.24900
C 	C 	0.25910 0.84450 0.82810 0.25400
C 	C 	0.14590 0.91430 0.81330 0.23300
C 	C 	0.48630 0.88770 0.62330 0.21700
C 	C 	0.48870 0.80280 0.59950 0.26400
C 	C 	0.08560 0.78330 0.61810 0.19300
C 	C 	0.08820 0.85680 0.57120 0.25100
