data_crystal

_cell_length_a 14.42900
_cell_length_b 17.91600
_cell_length_c 17.44100
_cell_angle_alpha 90.00000
_cell_angle_beta  90.00000
_cell_angle_gamma 90.00000

_symmetry_space_group_name_	'P 1'
_symmetry_space_group_name_H-M	'P 1'

loop_
_symmetry_equiv_pos_as_xyz
  x,y,z

loop_
_atom_site_label
_atom_site_type_symbol
_atom_site_fract_x
_atom_site_fract_y
_atom_site_fract_z
_atom_site_charge
Cd	Cd	0.50869 0.17135 0.18253 1.17600
O 	O 	0.00200 0.56550 0.86590 -0.37500
O 	O 	0.10940 0.56980 0.77480 -0.39800
N 	N 	0.41470 0.25180 0.11100 -0.23200
N 	N 	0.59940 0.27160 0.12980 -0.22700
N 	N 	0.34790 0.14080 0.19510 -0.24000
C 	C 	0.45530 0.30880 0.07070 0.05400
C 	C 	0.40470 0.35630 0.02720 -0.13000
H 	H 	0.43400 0.39480 0.00090 0.07700
C 	C 	0.31050 0.34820 0.02160 0.05600
C 	C 	0.26900 0.28910 0.06270 -0.12300
H 	H 	0.20540 0.28110 0.06050 0.05700
C 	C 	0.32540 0.24360 0.10600 0.06800
C 	C 	0.55740 0.31900 0.08290 0.05000
C 	C 	0.60650 0.37560 0.04720 -0.11400
H 	H 	0.57720 0.40710 0.01240 0.07300
C 	C 	0.70070 0.38490 0.06410 0.02900
H 	H 	0.73460 0.42300 0.04120 0.01700
C 	C 	0.74240 0.33670 0.11530 -0.11700
H 	H 	0.80430 0.34230 0.12880 0.03900
C 	C 	0.69100 0.28160 0.14490 0.05600
H 	H 	0.71980 0.24800 0.17780 -0.01600
C 	C 	0.28530 0.18170 0.15490 0.04600
C 	C 	0.19040 0.16770 0.15980 -0.12000
H 	H 	0.14860 0.19530 0.13080 0.04400
C 	C 	0.16000 0.11270 0.20790 0.04800
H 	H 	0.09690 0.10400 0.21390 -0.00600
C 	C 	0.22360 0.07020 0.24750 -0.13900
H 	H 	0.20460 0.03130 0.27920 0.07300
C 	C 	0.31600 0.08710 0.23880 0.08200
H 	H 	0.35880 0.05840 0.26570 -0.03700
C 	C 	0.25060 0.40130 0.97650 0.02200
C 	C 	0.28800 0.44500 0.91680 -0.09900
H 	H 	0.35100 0.44170 0.90610 0.07300
C 	C 	0.23410 0.49200 0.87430 0.02200
H 	H 	0.26080 0.52140 0.83630 0.03000
C 	C 	0.13990 0.49570 0.88790 -0.08300
C 	C 	0.10150 0.45460 0.94480 -0.00400
H 	H 	0.03830 0.45840 0.95410 0.03200
C 	C 	0.15610 0.40560 0.99050 -0.07200
H 	H 	0.12890 0.37710 0.02900 0.02800
C 	C 	0.07890 0.54650 0.84060 0.29000
Cd	Cd	0.99677 0.66250 0.76687 1.17800
O 	O 	0.66420 0.10550 0.16170 -0.37400
O 	O 	0.53730 0.08110 0.09410 -0.42200
N 	N 	0.91600 0.74160 0.84670 -0.23100
N 	N 	0.83690 0.64470 0.75060 -0.24100
N 	N 	0.09710 0.72480 0.84830 -0.23400
C 	C 	0.82110 0.74340 0.84200 0.04000
C 	C 	0.77270 0.79740 0.88430 -0.10800
H 	H 	0.70830 0.79850 0.88250 0.05300
C 	C 	0.81840 0.84770 0.92780 0.05200
C 	C 	0.91500 0.84520 0.93200 -0.12800
H 	H 	0.94810 0.87920 0.96140 0.07200
C 	C 	0.95950 0.78940 0.89010 0.05500
C 	C 	0.77880 0.68720 0.79150 0.05700
C 	C 	0.68440 0.67640 0.78670 -0.12000
H 	H 	0.64480 0.70630 0.81550 0.04300
C 	C 	0.64870 0.62270 0.74030 0.04300
H 	H 	0.58490 0.61560 0.73750 0.00000
C 	C 	0.70830 0.57830 0.69700 -0.11900
H 	H 	0.68550 0.54150 0.66450 0.07400
C 	C 	0.80170 0.59070 0.70400 0.06000
H 	H 	0.84250 0.56120 0.67600 -0.02400
C 	C 	0.06280 0.77620 0.89390 0.05700
C 	C 	0.11730 0.81850 0.94330 -0.12800
H 	H 	0.09120 0.85550 0.97380 0.07700
C 	C 	0.21150 0.80400 0.94560 0.04600
H 	H 	0.24960 0.83100 0.97860 0.00900
C 	C 	0.24840 0.75040 0.90000 -0.12800
H 	H 	0.31150 0.74020 0.90140 0.05200
C 	C 	0.19030 0.71090 0.85110 0.05200
H 	H 	0.21530 0.67420 0.81960 -0.00500
C 	C 	0.76750 0.90790 0.97320 0.03100
C 	C 	0.67730 0.92680 0.95700 -0.10000
H 	H 	0.64670 0.90320 0.91680 0.04500
C 	C 	0.63190 0.97960 0.99900 0.01900
H 	H 	0.57070 0.99130 0.98720 0.02400
C 	C 	0.67570 0.01620 0.05900 -0.09600
C 	C 	0.76710 0.00050 0.07330 0.02700
H 	H 	0.79830 0.02590 0.11200 0.02700
C 	C 	0.81290 0.94730 0.03050 -0.10600
H 	H 	0.87520 0.93770 0.04020 0.06600
C 	C 	0.62210 0.07220 0.10790 0.29900
Cd	Cd	0.49677 0.33750 0.76687 1.17900
O 	O 	0.16420 0.89450 0.16170 -0.37500
O 	O 	0.03730 0.91890 0.09410 -0.42400
N 	N 	0.41600 0.25840 0.84670 -0.23000
N 	N 	0.33690 0.35530 0.75060 -0.24100
N 	N 	0.59710 0.27520 0.84830 -0.23400
C 	C 	0.32110 0.25660 0.84200 0.04000
C 	C 	0.27270 0.20260 0.88430 -0.10400
H 	H 	0.20830 0.20150 0.88250 0.05200
C 	C 	0.31840 0.15230 0.92780 0.04700
C 	C 	0.41500 0.15480 0.93200 -0.12600
H 	H 	0.44810 0.12080 0.96140 0.07200
C 	C 	0.45950 0.21060 0.89010 0.05800
C 	C 	0.27880 0.31280 0.79150 0.05800
C 	C 	0.18440 0.32360 0.78670 -0.12000
H 	H 	0.14480 0.29370 0.81550 0.04400
C 	C 	0.14870 0.37730 0.74030 0.04400
H 	H 	0.08490 0.38440 0.73750 0.00100
C 	C 	0.20830 0.42170 0.69700 -0.11900
H 	H 	0.18550 0.45850 0.66450 0.07400
C 	C 	0.30170 0.40930 0.70400 0.06000
H 	H 	0.34250 0.43880 0.67600 -0.02400
C 	C 	0.56280 0.22380 0.89390 0.05300
C 	C 	0.61730 0.18150 0.94330 -0.12600
H 	H 	0.59120 0.14450 0.97380 0.07500
C 	C 	0.71150 0.19600 0.94560 0.04400
H 	H 	0.74960 0.16900 0.97860 0.00800
C 	C 	0.74840 0.24960 0.90000 -0.12700
H 	H 	0.81150 0.25980 0.90140 0.05100
C 	C 	0.69030 0.28910 0.85110 0.05000
H 	H 	0.71530 0.32580 0.81960 -0.00400
C 	C 	0.26750 0.09210 0.97320 0.04600
C 	C 	0.17730 0.07320 0.95700 -0.11400
H 	H 	0.14670 0.09680 0.91680 0.05100
C 	C 	0.13190 0.02040 0.99900 0.03700
H 	H 	0.07070 0.00870 0.98720 0.02000
C 	C 	0.17570 0.98380 0.05900 -0.11100
C 	C 	0.26710 0.99950 0.07330 0.04100
H 	H 	0.29830 0.97410 0.11200 0.02200
C 	C 	0.31290 0.05270 0.03050 -0.12400
H 	H 	0.37520 0.06230 0.04020 0.07100
C 	C 	0.12210 0.92780 0.10790 0.30300
Cd	Cd	0.00869 0.82865 0.18253 1.17400
O 	O 	0.50200 0.43450 0.86590 -0.37800
O 	O 	0.60940 0.43020 0.77480 -0.40000
N 	N 	0.91470 0.74820 0.11100 -0.23300
N 	N 	0.09940 0.72840 0.12980 -0.22700
N 	N 	0.84790 0.85920 0.19510 -0.23900
C 	C 	0.95530 0.69120 0.07070 0.06100
C 	C 	0.90470 0.64370 0.02720 -0.13500
H 	H 	0.93400 0.60520 0.00090 0.08100
C 	C 	0.81050 0.65180 0.02160 0.06300
C 	C 	0.76900 0.71090 0.06270 -0.12600
H 	H 	0.70540 0.71890 0.06050 0.05900
C 	C 	0.82540 0.75640 0.10600 0.07000
C 	C 	0.05740 0.68100 0.08290 0.04400
C 	C 	0.10650 0.62440 0.04720 -0.11000
H 	H 	0.07720 0.59290 0.01240 0.06900
C 	C 	0.20070 0.61510 0.06410 0.02600
H 	H 	0.23460 0.57700 0.04120 0.01700
C 	C 	0.24240 0.66330 0.11530 -0.11500
H 	H 	0.30430 0.65770 0.12880 0.03700
C 	C 	0.19100 0.71840 0.14490 0.05400
H 	H 	0.21980 0.75200 0.17780 -0.01600
C 	C 	0.78530 0.81830 0.15490 0.04600
C 	C 	0.69040 0.83230 0.15980 -0.11900
H 	H 	0.64860 0.80470 0.13080 0.04400
C 	C 	0.66000 0.88730 0.20790 0.04800
H 	H 	0.59690 0.89600 0.21390 -0.00600
C 	C 	0.72360 0.92980 0.24750 -0.13800
H 	H 	0.70460 0.96870 0.27920 0.07300
C 	C 	0.81600 0.91290 0.23880 0.08200
H 	H 	0.85880 0.94160 0.26570 -0.03600
C 	C 	0.75060 0.59870 0.97650 0.02000
C 	C 	0.78800 0.55500 0.91680 -0.09900
H 	H 	0.85100 0.55830 0.90610 0.07200
C 	C 	0.73410 0.50800 0.87430 0.02300
H 	H 	0.76080 0.47860 0.83630 0.03000
C 	C 	0.63990 0.50430 0.88790 -0.08600
C 	C 	0.60150 0.54540 0.94480 0.00000
H 	H 	0.53830 0.54160 0.95410 0.02900
C 	C 	0.65610 0.59440 0.99050 -0.08200
H 	H 	0.62890 0.62290 0.02900 0.03400
C 	C 	0.57890 0.45350 0.84060 0.29000
Cd	Cd	0.49131 0.82865 0.68253 1.17500
O 	O 	0.99800 0.43450 0.36590 -0.37800
O 	O 	0.89060 0.43020 0.27480 -0.39900
N 	N 	0.58530 0.74820 0.61100 -0.23300
N 	N 	0.40060 0.72840 0.62980 -0.22800
N 	N 	0.65210 0.85920 0.69510 -0.24000
C 	C 	0.54470 0.69120 0.57070 0.05500
C 	C 	0.59530 0.64370 0.52720 -0.13200
H 	H 	0.56600 0.60520 0.50090 0.08000
C 	C 	0.68950 0.65180 0.52160 0.06100
C 	C 	0.73100 0.71090 0.56270 -0.12400
H 	H 	0.79460 0.71890 0.56050 0.05900
C 	C 	0.67460 0.75640 0.60600 0.06900
C 	C 	0.44260 0.68100 0.58290 0.05000
C 	C 	0.39350 0.62440 0.54720 -0.11300
H 	H 	0.42280 0.59290 0.51240 0.07300
C 	C 	0.29930 0.61510 0.56410 0.02900
H 	H 	0.26540 0.57700 0.54120 0.01700
C 	C 	0.25760 0.66330 0.61530 -0.11700
H 	H 	0.19570 0.65770 0.62880 0.03900
C 	C 	0.30900 0.71840 0.64490 0.05600
H 	H 	0.28020 0.75200 0.67780 -0.01600
C 	C 	0.71470 0.81830 0.65490 0.04600
C 	C 	0.80960 0.83230 0.65980 -0.11900
H 	H 	0.85140 0.80470 0.63080 0.04500
C 	C 	0.84000 0.88730 0.70790 0.04800
H 	H 	0.90310 0.89600 0.71390 -0.00600
C 	C 	0.77640 0.92980 0.74750 -0.13900
H 	H 	0.79540 0.96870 0.77920 0.07300
C 	C 	0.68400 0.91290 0.73880 0.08200
H 	H 	0.64120 0.94160 0.76570 -0.03700
C 	C 	0.74940 0.59870 0.47650 0.02300
C 	C 	0.71200 0.55500 0.41680 -0.10200
H 	H 	0.64900 0.55830 0.40610 0.07300
C 	C 	0.76590 0.50800 0.37430 0.02600
H 	H 	0.73920 0.47860 0.33630 0.02900
C 	C 	0.86010 0.50430 0.38790 -0.08800
C 	C 	0.89850 0.54540 0.44480 0.00400
H 	H 	0.96170 0.54160 0.45410 0.02700
C 	C 	0.84390 0.59440 0.49050 -0.08800
H 	H 	0.87110 0.62290 0.52900 0.03700
C 	C 	0.92110 0.45350 0.34060 0.29100
Cd	Cd	0.00323 0.33750 0.26687 1.17900
O 	O 	0.33580 0.89450 0.66170 -0.37300
O 	O 	0.46270 0.91890 0.59410 -0.42000
N 	N 	0.08400 0.25840 0.34670 -0.23100
N 	N 	0.16310 0.35530 0.25060 -0.24100
N 	N 	0.90290 0.27520 0.34830 -0.23400
C 	C 	0.17890 0.25660 0.34200 0.04100
C 	C 	0.22730 0.20260 0.38430 -0.10900
H 	H 	0.29170 0.20150 0.38250 0.05300
C 	C 	0.18160 0.15230 0.42780 0.05400
C 	C 	0.08500 0.15480 0.43200 -0.13000
H 	H 	0.05190 0.12080 0.46140 0.07300
C 	C 	0.04050 0.21060 0.39010 0.05900
C 	C 	0.22120 0.31280 0.29150 0.05700
C 	C 	0.31560 0.32360 0.28670 -0.12000
H 	H 	0.35520 0.29370 0.31550 0.04300
C 	C 	0.35130 0.37730 0.24030 0.04300
H 	H 	0.41510 0.38440 0.23750 0.00000
C 	C 	0.29170 0.42170 0.19700 -0.11900
H 	H 	0.31450 0.45850 0.16450 0.07400
C 	C 	0.19830 0.40930 0.20400 0.06000
H 	H 	0.15750 0.43880 0.17600 -0.02500
C 	C 	0.93720 0.22380 0.39390 0.05300
C 	C 	0.88270 0.18150 0.44330 -0.12600
H 	H 	0.90880 0.14450 0.47380 0.07400
C 	C 	0.78850 0.19600 0.44560 0.04400
H 	H 	0.75040 0.16900 0.47860 0.00800
C 	C 	0.75160 0.24960 0.40000 -0.12700
H 	H 	0.68850 0.25980 0.40140 0.05200
C 	C 	0.80970 0.28910 0.35110 0.05000
H 	H 	0.78470 0.32580 0.31960 -0.00400
C 	C 	0.23250 0.09210 0.47320 0.02700
C 	C 	0.32270 0.07320 0.45700 -0.09600
H 	H 	0.35330 0.09680 0.41680 0.04300
C 	C 	0.36810 0.02040 0.49900 0.01300
H 	H 	0.42930 0.00870 0.48720 0.02500
C 	C 	0.32430 0.98380 0.55900 -0.09100
C 	C 	0.23290 0.99950 0.57330 0.02300
H 	H 	0.20170 0.97410 0.61200 0.02800
C 	C 	0.18710 0.05270 0.53050 -0.10100
H 	H 	0.12480 0.06230 0.54020 0.06400
C 	C 	0.37790 0.92780 0.60790 0.29700
Cd	Cd	0.50323 0.66250 0.26687 1.17900
O 	O 	0.83580 0.10550 0.66170 -0.37400
O 	O 	0.96270 0.08110 0.59410 -0.42000
N 	N 	0.58400 0.74160 0.34670 -0.23100
N 	N 	0.66310 0.64470 0.25060 -0.24000
N 	N 	0.40290 0.72480 0.34830 -0.23400
C 	C 	0.67890 0.74340 0.34200 0.04100
C 	C 	0.72730 0.79740 0.38430 -0.10900
H 	H 	0.79170 0.79850 0.38250 0.05300
C 	C 	0.68160 0.84770 0.42780 0.05400
C 	C 	0.58500 0.84520 0.43200 -0.13000
H 	H 	0.55190 0.87920 0.46140 0.07300
C 	C 	0.54050 0.78940 0.39010 0.05900
C 	C 	0.72120 0.68720 0.29150 0.05700
C 	C 	0.81560 0.67640 0.28670 -0.11900
H 	H 	0.85520 0.70630 0.31550 0.04300
C 	C 	0.85130 0.62270 0.24030 0.04300
H 	H 	0.91510 0.61560 0.23750 0.00100
C 	C 	0.79170 0.57830 0.19700 -0.11900
H 	H 	0.81450 0.54150 0.16450 0.07400
C 	C 	0.69830 0.59070 0.20400 0.06000
H 	H 	0.65750 0.56120 0.17600 -0.02400
C 	C 	0.43720 0.77620 0.39390 0.05200
C 	C 	0.38270 0.81850 0.44330 -0.12600
H 	H 	0.40880 0.85550 0.47380 0.07400
C 	C 	0.28850 0.80400 0.44560 0.04300
H 	H 	0.25040 0.83100 0.47860 0.00800
C 	C 	0.25160 0.75040 0.40000 -0.12600
H 	H 	0.18850 0.74020 0.40140 0.05100
C 	C 	0.30970 0.71090 0.35110 0.05000
H 	H 	0.28470 0.67420 0.31960 -0.00400
C 	C 	0.73250 0.90790 0.47320 0.02700
C 	C 	0.82270 0.92680 0.45700 -0.09600
H 	H 	0.85330 0.90320 0.41680 0.04400
C 	C 	0.86810 0.97960 0.49900 0.01400
H 	H 	0.92930 0.99130 0.48720 0.02600
C 	C 	0.82430 0.01620 0.55900 -0.09200
C 	C 	0.73290 0.00050 0.57330 0.02300
H 	H 	0.70170 0.02590 0.61200 0.02800
C 	C 	0.68710 0.94730 0.53050 -0.10100
H 	H 	0.62480 0.93770 0.54020 0.06400
C 	C 	0.87790 0.07220 0.60790 0.29700
Cd	Cd	0.99131 0.17135 0.68253 1.17500
O 	O 	0.49800 0.56550 0.36590 -0.37900
O 	O 	0.39060 0.56980 0.27480 -0.40000
N 	N 	0.08530 0.25180 0.61100 -0.23300
N 	N 	0.90060 0.27160 0.62980 -0.22800
N 	N 	0.15210 0.14080 0.69510 -0.24000
C 	C 	0.04470 0.30880 0.57070 0.05700
C 	C 	0.09530 0.35630 0.52720 -0.13200
H 	H 	0.06600 0.39480 0.50090 0.08000
C 	C 	0.18950 0.34820 0.52160 0.06200
C 	C 	0.23100 0.28910 0.56270 -0.12500
H 	H 	0.29460 0.28110 0.56050 0.05900
C 	C 	0.17460 0.24360 0.60600 0.07000
C 	C 	0.94260 0.31900 0.58290 0.04900
C 	C 	0.89350 0.37560 0.54720 -0.11300
H 	H 	0.92280 0.40710 0.51240 0.07300
C 	C 	0.79930 0.38490 0.56410 0.02900
H 	H 	0.76540 0.42300 0.54120 0.01700
C 	C 	0.75760 0.33670 0.61530 -0.11700
H 	H 	0.69570 0.34230 0.62880 0.03800
C 	C 	0.80900 0.28160 0.64490 0.05600
H 	H 	0.78020 0.24800 0.67780 -0.01600
C 	C 	0.21470 0.18170 0.65490 0.04600
C 	C 	0.30960 0.16770 0.65980 -0.11900
H 	H 	0.35140 0.19530 0.63080 0.04400
C 	C 	0.34000 0.11270 0.70790 0.04800
H 	H 	0.40310 0.10400 0.71390 -0.00600
C 	C 	0.27640 0.07020 0.74750 -0.13900
H 	H 	0.29540 0.03130 0.77920 0.07300
C 	C 	0.18400 0.08710 0.73880 0.08200
H 	H 	0.14120 0.05840 0.76570 -0.03600
C 	C 	0.24940 0.40130 0.47650 0.02300
C 	C 	0.21200 0.44500 0.41680 -0.10200
H 	H 	0.14900 0.44170 0.40610 0.07300
C 	C 	0.26590 0.49200 0.37430 0.02600
H 	H 	0.23920 0.52140 0.33630 0.02900
C 	C 	0.36010 0.49570 0.38790 -0.08900
C 	C 	0.39850 0.45460 0.44480 0.00400
H 	H 	0.46170 0.45840 0.45410 0.02700
C 	C 	0.34390 0.40560 0.49050 -0.08800
H 	H 	0.37110 0.37710 0.52900 0.03700
C 	C 	0.42110 0.54650 0.34060 0.29100
