data_crystal

_cell_length_a 14.42400
_cell_length_b 17.79800
_cell_length_c 17.19500
_cell_angle_alpha 90.00000
_cell_angle_beta  90.00000
_cell_angle_gamma 90.00000

_symmetry_space_group_name_	'P 1'
_symmetry_space_group_name_H-M	'P 1'

loop_
_symmetry_equiv_pos_as_xyz
  x,y,z

loop_
_atom_site_label
_atom_site_type_symbol
_atom_site_fract_x
_atom_site_fract_y
_atom_site_fract_z
_atom_site_charge
Mn	Mn	0.99799 0.83640 0.75170 1.27200
Mn	Mn	0.50776 0.32636 0.16425 1.27200
S 	S 	0.00260 0.76437 0.45091 0.04900
O 	O 	0.54170 0.41232 0.08160 -0.41300
O 	O 	0.67100 0.39151 0.14890 -0.31900
O 	O 	0.10660 0.92709 0.75370 -0.39200
O 	O 	0.00120 0.93210 0.84560 -0.38300
O 	O 	0.03790 0.73660 0.67600 -0.38000
O 	O 	0.99380 0.83540 0.60850 -0.36500
O 	O 	0.00810 0.74080 0.28030 -0.38300
O 	O 	0.02750 0.61780 0.28180 -0.37900
N 	N 	0.91770 0.76030 0.82830 -0.23000
N 	N 	0.84490 0.85760 0.73270 -0.23200
N 	N 	0.10010 0.77620 0.83170 -0.22000
N 	N 	0.41760 0.24800 0.09390 -0.23000
N 	N 	0.35150 0.35940 0.17860 -0.22000
N 	N 	0.59950 0.23080 0.11660 -0.22100
C 	C 	0.82450 0.75700 0.82420 0.06100
C 	C 	0.77460 0.70330 0.86570 -0.12300
H 	H 	0.71020 0.70260 0.86270 0.07400
C 	C 	0.82020 0.65070 0.91160 0.06600
C 	C 	0.91780 0.65600 0.91520 -0.12600
H 	H 	0.95120 0.62200 0.94510 0.07200
C 	C 	0.96380 0.71160 0.87430 0.05700
C 	C 	0.78340 0.81500 0.77270 0.05900
C 	C 	0.68770 0.82590 0.76510 -0.12400
H 	H 	0.64660 0.79530 0.79210 0.08300
C 	C 	0.65470 0.88180 0.71770 0.05900
H 	H 	0.59130 0.88980 0.71230 0.01800
C 	C 	0.71810 0.92650 0.67780 -0.12600
H 	H 	0.69790 0.96550 0.64610 0.08600
C 	C 	0.81270 0.91160 0.68630 0.07700
H 	H 	0.85490 0.94060 0.65850 -0.00600
C 	C 	0.06540 0.72220 0.87800 0.06600
C 	C 	0.12240 0.68020 0.92660 -0.13000
H 	H 	0.09720 0.64310 0.95830 0.07900
C 	C 	0.21560 0.69390 0.92750 0.06100
H 	H 	0.25440 0.66590 0.95950 0.01500
C 	C 	0.25210 0.75010 0.88000 -0.13600
H 	H 	0.31510 0.76100 0.88040 0.08800
C 	C 	0.19230 0.78900 0.83250 0.08100
H 	H 	0.21630 0.82570 0.79960 0.00200
C 	C 	0.77070 0.58980 0.95590 -0.00500
C 	C 	0.67870 0.57270 0.94150 -0.06300
H 	H 	0.64710 0.59750 0.90200 0.05600
C 	C 	0.63330 0.51900 0.98540 -0.02100
H 	H 	0.57130 0.50880 0.97500 0.04600
C 	C 	0.67800 0.47980 0.04490 -0.05300
C 	C 	0.77120 0.49520 0.05740 -0.01000
H 	H 	0.80350 0.46880 0.09530 0.05100
C 	C 	0.81680 0.54930 0.01390 -0.05200
H 	H 	0.87910 0.55900 0.02350 0.05400
C 	C 	0.62850 0.42480 0.09560 0.28400
C 	C 	0.32610 0.25770 0.08920 0.06400
C 	C 	0.26930 0.21120 0.04440 -0.11400
H 	H 	0.20590 0.22030 0.04130 0.07400
C 	C 	0.30930 0.15010 0.00370 0.05400
C 	C 	0.40550 0.14120 0.00980 -0.10300
H 	H 	0.43490 0.10230 0.98330 0.06700
C 	C 	0.45720 0.19060 0.05560 0.05800
C 	C 	0.28730 0.31960 0.13820 0.05400
C 	C 	0.19310 0.33490 0.14330 -0.11300
H 	H 	0.15050 0.30720 0.11460 0.07200
C 	C 	0.16360 0.39210 0.19220 0.04800
H 	H 	0.10070 0.40250 0.19750 0.02400
C 	C 	0.22840 0.43350 0.23260 -0.12400
H 	H 	0.21010 0.47270 0.26500 0.08800
C 	C 	0.32050 0.41570 0.22420 0.07000
H 	H 	0.36380 0.44410 0.25150 0.00600
C 	C 	0.55920 0.18110 0.06700 0.04700
C 	C 	0.60920 0.12430 0.03240 -0.08600
H 	H 	0.58130 0.09240 0.99660 0.06000
C 	C 	0.70180 0.11550 0.05180 0.03000
H 	H 	0.73640 0.07690 0.02970 0.03000
C 	C 	0.74250 0.16420 0.10380 -0.11400
H 	H 	0.80420 0.15870 0.11840 0.07600
C 	C 	0.68830 0.22170 0.13360 0.07400
H 	H 	0.71580 0.25570 0.16750 0.01000
C 	C 	0.25100 0.09730 0.95810 0.04000
C 	C 	0.15600 0.09210 0.97110 -0.12500
H 	H 	0.12920 0.12090 0.01020 0.09200
C 	C 	0.10000 0.04450 0.92690 0.03800
H 	H 	0.03680 0.04130 0.93710 0.03000
C 	C 	0.13900 0.00180 0.86730 -0.10200
C 	C 	0.23490 0.00450 0.85590 0.03500
H 	H 	0.26200 0.97450 0.81790 0.03300
C 	C 	0.28960 0.05140 0.90030 -0.11200
H 	H 	0.35330 0.05250 0.89180 0.08100
C 	C 	0.07840 0.95150 0.81880 0.30600
C 	C 	0.02780 0.72430 0.53920 -0.08100
C 	C 	0.05400 0.64970 0.53090 -0.01800
H 	H 	0.06900 0.61840 0.57230 0.05100
C 	C 	0.05500 0.62710 0.45250 -0.02000
H 	H 	0.07230 0.57930 0.43620 0.04900
C 	C 	0.02800 0.68260 0.40280 -0.08000
C 	C 	0.01950 0.76840 0.61180 0.29800
C 	C 	0.02040 0.68060 0.31600 0.29300
Mn	Mn	0.49799 0.16360 0.75170 1.27200
Mn	Mn	0.00776 0.67364 0.16425 1.27100
S 	S 	0.50260 0.23563 0.45091 0.04600
O 	O 	0.04170 0.58768 0.08160 -0.41500
O 	O 	0.17100 0.60849 0.14890 -0.32000
O 	O 	0.60660 0.07291 0.75370 -0.39300
O 	O 	0.50120 0.06790 0.84560 -0.38600
O 	O 	0.53790 0.26340 0.67600 -0.38000
O 	O 	0.49380 0.16460 0.60850 -0.36300
O 	O 	0.50810 0.25920 0.28030 -0.38300
O 	O 	0.52750 0.38220 0.28180 -0.37900
N 	N 	0.41770 0.23970 0.82830 -0.22900
N 	N 	0.34490 0.14240 0.73270 -0.23200
N 	N 	0.60010 0.22380 0.83170 -0.22000
N 	N 	0.91760 0.75200 0.09390 -0.22900
N 	N 	0.85150 0.64060 0.17860 -0.21900
N 	N 	0.09950 0.76920 0.11660 -0.22200
C 	C 	0.32450 0.24300 0.82420 0.06100
C 	C 	0.27460 0.29670 0.86570 -0.12100
H 	H 	0.21020 0.29740 0.86270 0.07300
C 	C 	0.32020 0.34930 0.91160 0.06300
C 	C 	0.41780 0.34400 0.91520 -0.12600
H 	H 	0.45120 0.37800 0.94510 0.07300
C 	C 	0.46380 0.28840 0.87430 0.06100
C 	C 	0.28340 0.18500 0.77270 0.05900
C 	C 	0.18770 0.17410 0.76510 -0.12500
H 	H 	0.14660 0.20470 0.79210 0.08400
C 	C 	0.15470 0.11820 0.71770 0.05900
H 	H 	0.09130 0.11020 0.71230 0.01800
C 	C 	0.21810 0.07350 0.67780 -0.12600
H 	H 	0.19790 0.03450 0.64610 0.08600
C 	C 	0.31270 0.08840 0.68630 0.07700
H 	H 	0.35490 0.05940 0.65850 -0.00600
C 	C 	0.56540 0.27780 0.87800 0.06100
C 	C 	0.62240 0.31980 0.92660 -0.12700
H 	H 	0.59720 0.35690 0.95830 0.07600
C 	C 	0.71560 0.30610 0.92750 0.05900
H 	H 	0.75440 0.33410 0.95950 0.01500
C 	C 	0.75210 0.24990 0.88000 -0.13500
H 	H 	0.81510 0.23900 0.88040 0.08800
C 	C 	0.69230 0.21100 0.83250 0.08000
H 	H 	0.71630 0.17430 0.79960 0.00300
C 	C 	0.27070 0.41020 0.95590 0.00500
C 	C 	0.17870 0.42730 0.94150 -0.07200
H 	H 	0.14710 0.40250 0.90200 0.06000
C 	C 	0.13330 0.48100 0.98540 -0.00800
H 	H 	0.07130 0.49120 0.97500 0.04300
C 	C 	0.17800 0.52020 0.04490 -0.06400
C 	C 	0.27120 0.50480 0.05740 -0.00100
H 	H 	0.30350 0.53120 0.09530 0.04700
C 	C 	0.31680 0.45070 0.01390 -0.06400
H 	H 	0.37910 0.44100 0.02350 0.05700
C 	C 	0.12850 0.57520 0.09560 0.28700
C 	C 	0.82610 0.74230 0.08920 0.06400
C 	C 	0.76930 0.78880 0.04440 -0.11300
H 	H 	0.70590 0.77970 0.04130 0.07500
C 	C 	0.80930 0.84990 0.00370 0.05400
C 	C 	0.90550 0.85880 0.00980 -0.09500
H 	H 	0.93490 0.89770 0.98330 0.06100
C 	C 	0.95720 0.80940 0.05560 0.05600
C 	C 	0.78730 0.68040 0.13820 0.05400
C 	C 	0.69310 0.66510 0.14330 -0.11300
H 	H 	0.65050 0.69280 0.11460 0.07300
C 	C 	0.66360 0.60790 0.19220 0.04800
H 	H 	0.60070 0.59750 0.19750 0.02500
C 	C 	0.72840 0.56650 0.23260 -0.12400
H 	H 	0.71010 0.52730 0.26500 0.08800
C 	C 	0.82050 0.58430 0.22420 0.07000
H 	H 	0.86380 0.55590 0.25150 0.00600
C 	C 	0.05920 0.81890 0.06700 0.05100
C 	C 	0.10920 0.87570 0.03240 -0.09800
H 	H 	0.08130 0.90760 0.99660 0.06800
C 	C 	0.20180 0.88450 0.05180 0.03800
H 	H 	0.23640 0.92310 0.02970 0.02600
C 	C 	0.24250 0.83580 0.10380 -0.11900
H 	H 	0.30420 0.84130 0.11840 0.07800
C 	C 	0.18830 0.77830 0.13360 0.07600
H 	H 	0.21580 0.74430 0.16750 0.00900
C 	C 	0.75100 0.90270 0.95810 0.04000
C 	C 	0.65600 0.90790 0.97110 -0.13400
H 	H 	0.62920 0.87910 0.01020 0.09700
C 	C 	0.60000 0.95550 0.92690 0.04200
H 	H 	0.53680 0.95870 0.93710 0.02800
C 	C 	0.63900 0.99820 0.86730 -0.10300
C 	C 	0.73490 0.99550 0.85590 0.03500
H 	H 	0.76200 0.02550 0.81790 0.03200
C 	C 	0.78960 0.94860 0.90030 -0.11300
H 	H 	0.85330 0.94750 0.89180 0.08000
C 	C 	0.57840 0.04850 0.81880 0.30500
C 	C 	0.52780 0.27570 0.53920 -0.08000
C 	C 	0.55400 0.35030 0.53090 -0.01900
H 	H 	0.56900 0.38160 0.57230 0.05100
C 	C 	0.55500 0.37290 0.45250 -0.02000
H 	H 	0.57230 0.42070 0.43620 0.04900
C 	C 	0.52800 0.31740 0.40280 -0.07900
C 	C 	0.51950 0.23160 0.61180 0.29500
C 	C 	0.52040 0.31940 0.31600 0.29300
Mn	Mn	0.00201 0.16360 0.25170 1.27100
Mn	Mn	0.49224 0.67364 0.66425 1.27100
S 	S 	0.99740 0.23563 0.95091 0.03100
O 	O 	0.45830 0.58768 0.58160 -0.42000
O 	O 	0.32900 0.60849 0.64890 -0.32200
O 	O 	0.89340 0.07291 0.25370 -0.39100
O 	O 	0.99880 0.06790 0.34560 -0.38300
O 	O 	0.96210 0.26340 0.17600 -0.38000
O 	O 	0.00620 0.16460 0.10850 -0.36600
O 	O 	0.99190 0.25920 0.78030 -0.38200
O 	O 	0.97250 0.38220 0.78180 -0.37800
N 	N 	0.08230 0.23970 0.32830 -0.22800
N 	N 	0.15510 0.14240 0.23270 -0.23200
N 	N 	0.89990 0.22380 0.33170 -0.22000
N 	N 	0.58240 0.75200 0.59390 -0.23100
N 	N 	0.64850 0.64060 0.67860 -0.22000
N 	N 	0.40050 0.76920 0.61660 -0.22400
C 	C 	0.17550 0.24300 0.32420 0.05900
C 	C 	0.22540 0.29670 0.36570 -0.11400
H 	H 	0.28980 0.29740 0.36270 0.07100
C 	C 	0.17980 0.34930 0.41160 0.05400
C 	C 	0.08220 0.34400 0.41520 -0.11800
H 	H 	0.04880 0.37800 0.44510 0.07300
C 	C 	0.03620 0.28840 0.37430 0.05700
C 	C 	0.21660 0.18500 0.27270 0.06000
C 	C 	0.31230 0.17410 0.26510 -0.12500
H 	H 	0.35340 0.20470 0.29210 0.08400
C 	C 	0.34530 0.11820 0.21770 0.05900
H 	H 	0.40870 0.11020 0.21230 0.01800
C 	C 	0.28190 0.07350 0.17780 -0.12700
H 	H 	0.30210 0.03450 0.14610 0.08700
C 	C 	0.18730 0.08840 0.18630 0.07700
H 	H 	0.14510 0.05940 0.15850 -0.00600
C 	C 	0.93460 0.27780 0.37800 0.06600
C 	C 	0.87760 0.31980 0.42660 -0.12900
H 	H 	0.90280 0.35690 0.45830 0.08000
C 	C 	0.78440 0.30610 0.42750 0.06200
H 	H 	0.74560 0.33410 0.45950 0.01800
C 	C 	0.74790 0.24990 0.38000 -0.13400
H 	H 	0.68490 0.23900 0.38040 0.08900
C 	C 	0.80770 0.21100 0.33250 0.08100
H 	H 	0.78370 0.17430 0.29960 0.00200
C 	C 	0.22930 0.41020 0.45590 0.03300
C 	C 	0.32130 0.42730 0.44150 -0.09600
H 	H 	0.35290 0.40250 0.40200 0.06800
C 	C 	0.36670 0.48100 0.48540 0.02300
H 	H 	0.42870 0.49120 0.47500 0.03400
C 	C 	0.32200 0.52020 0.54490 -0.09000
C 	C 	0.22880 0.50480 0.55740 0.02300
H 	H 	0.19650 0.53120 0.59530 0.03800
C 	C 	0.18320 0.45070 0.51390 -0.09600
H 	H 	0.12090 0.44100 0.52350 0.06500
C 	C 	0.37150 0.57520 0.59560 0.29500
C 	C 	0.67390 0.74230 0.58920 0.06300
C 	C 	0.73070 0.78880 0.54440 -0.11500
H 	H 	0.79410 0.77970 0.54130 0.07300
C 	C 	0.69070 0.84990 0.50370 0.05300
C 	C 	0.59450 0.85880 0.50980 -0.12100
H 	H 	0.56510 0.89770 0.48330 0.07900
C 	C 	0.54280 0.80940 0.55560 0.05800
C 	C 	0.71270 0.68040 0.63820 0.05300
C 	C 	0.80690 0.66510 0.64330 -0.11300
H 	H 	0.84950 0.69280 0.61460 0.07200
C 	C 	0.83640 0.60790 0.69220 0.04700
H 	H 	0.89930 0.59750 0.69750 0.02400
C 	C 	0.77160 0.56650 0.73260 -0.12400
H 	H 	0.78990 0.52730 0.76500 0.08800
C 	C 	0.67950 0.58430 0.72420 0.07000
H 	H 	0.63620 0.55590 0.75150 0.00600
C 	C 	0.44080 0.81890 0.56700 0.05500
C 	C 	0.39080 0.87570 0.53240 -0.12000
H 	H 	0.41870 0.90760 0.49660 0.07900
C 	C 	0.29820 0.88450 0.55180 0.05100
H 	H 	0.26360 0.92310 0.52970 0.01900
C 	C 	0.25750 0.83580 0.60380 -0.12800
H 	H 	0.19580 0.84130 0.61840 0.08100
C 	C 	0.31170 0.77830 0.63360 0.08100
H 	H 	0.28420 0.74430 0.66750 0.00700
C 	C 	0.74900 0.90270 0.45810 0.04000
C 	C 	0.84400 0.90790 0.47110 -0.10600
H 	H 	0.87080 0.87910 0.51020 0.08000
C 	C 	0.90000 0.95550 0.42690 0.02700
H 	H 	0.96320 0.95870 0.43710 0.03400
C 	C 	0.86100 0.99820 0.36730 -0.09700
C 	C 	0.76510 0.99550 0.35590 0.03200
H 	H 	0.73800 0.02550 0.31790 0.03400
C 	C 	0.71040 0.94860 0.40030 -0.10800
H 	H 	0.64670 0.94750 0.39180 0.08100
C 	C 	0.92160 0.04850 0.31880 0.30400
C 	C 	0.97220 0.27570 0.03920 -0.07500
C 	C 	0.94600 0.35030 0.03090 0.00500
H 	H 	0.93100 0.38160 0.07230 0.04400
C 	C 	0.94500 0.37290 0.95250 -0.04700
H 	H 	0.92770 0.42070 0.93620 0.05500
C 	C 	0.97200 0.31740 0.90280 -0.06900
C 	C 	0.98050 0.23160 0.11180 0.30100
C 	C 	0.97960 0.31940 0.81600 0.28900
Mn	Mn	0.50201 0.83640 0.25170 1.27200
Mn	Mn	0.99224 0.32636 0.66425 1.27100
S 	S 	0.49740 0.76437 0.95091 0.03300
O 	O 	0.95830 0.41232 0.58160 -0.41900
O 	O 	0.82900 0.39151 0.64890 -0.32200
O 	O 	0.39340 0.92709 0.25370 -0.39200
O 	O 	0.49880 0.93210 0.34560 -0.38500
O 	O 	0.46210 0.73660 0.17600 -0.38000
O 	O 	0.50620 0.83540 0.10850 -0.36100
O 	O 	0.49190 0.74080 0.78030 -0.38200
O 	O 	0.47250 0.61780 0.78180 -0.37800
N 	N 	0.58230 0.76030 0.32830 -0.22800
N 	N 	0.65510 0.85760 0.23270 -0.23200
N 	N 	0.39990 0.77620 0.33170 -0.22000
N 	N 	0.08240 0.24800 0.59390 -0.23000
N 	N 	0.14850 0.35940 0.67860 -0.22000
N 	N 	0.90050 0.23080 0.61660 -0.22500
C 	C 	0.67550 0.75700 0.32420 0.06000
C 	C 	0.72540 0.70330 0.36570 -0.11500
H 	H 	0.78980 0.70260 0.36270 0.07100
C 	C 	0.67980 0.65070 0.41160 0.05500
C 	C 	0.58220 0.65600 0.41520 -0.12000
H 	H 	0.54880 0.62200 0.44510 0.07300
C 	C 	0.53620 0.71160 0.37430 0.06000
C 	C 	0.71660 0.81500 0.27270 0.06000
C 	C 	0.81230 0.82590 0.26510 -0.12500
H 	H 	0.85340 0.79530 0.29210 0.08400
C 	C 	0.84530 0.88180 0.21770 0.05900
H 	H 	0.90870 0.88980 0.21230 0.01900
C 	C 	0.78190 0.92650 0.17780 -0.12600
H 	H 	0.80210 0.96550 0.14610 0.08700
C 	C 	0.68730 0.91160 0.18630 0.07700
H 	H 	0.64510 0.94060 0.15850 -0.00500
C 	C 	0.43460 0.72220 0.37800 0.06300
C 	C 	0.37760 0.68020 0.42660 -0.12700
H 	H 	0.40280 0.64310 0.45830 0.07900
C 	C 	0.28440 0.69390 0.42750 0.06000
H 	H 	0.24560 0.66590 0.45950 0.01800
C 	C 	0.24790 0.75010 0.38000 -0.13400
H 	H 	0.18490 0.76100 0.38040 0.08800
C 	C 	0.30770 0.78900 0.33250 0.08100
H 	H 	0.28370 0.82570 0.29960 0.00300
C 	C 	0.72930 0.58980 0.45590 0.03200
C 	C 	0.82130 0.57270 0.44150 -0.09600
H 	H 	0.85290 0.59750 0.40200 0.06800
C 	C 	0.86670 0.51900 0.48540 0.02300
H 	H 	0.92870 0.50880 0.47500 0.03500
C 	C 	0.82200 0.47980 0.54490 -0.08900
C 	C 	0.72880 0.49520 0.55740 0.02200
H 	H 	0.69650 0.46880 0.59530 0.03800
C 	C 	0.68320 0.54930 0.51390 -0.09600
H 	H 	0.62090 0.55900 0.52350 0.06500
C 	C 	0.87150 0.42480 0.59560 0.29500
C 	C 	0.17390 0.25770 0.58920 0.06300
C 	C 	0.23070 0.21120 0.54440 -0.11500
H 	H 	0.29410 0.22030 0.54130 0.07300
C 	C 	0.19070 0.15010 0.50370 0.05300
C 	C 	0.09450 0.14120 0.50980 -0.12000
H 	H 	0.06510 0.10230 0.48330 0.07900
C 	C 	0.04280 0.19060 0.55560 0.05700
C 	C 	0.21270 0.31960 0.63820 0.05300
C 	C 	0.30690 0.33490 0.64330 -0.11300
H 	H 	0.34950 0.30720 0.61460 0.07200
C 	C 	0.33640 0.39210 0.69220 0.04700
H 	H 	0.39930 0.40250 0.69750 0.02500
C 	C 	0.27160 0.43350 0.73260 -0.12400
H 	H 	0.28990 0.47270 0.76500 0.08800
C 	C 	0.17950 0.41570 0.72420 0.07000
H 	H 	0.13620 0.44410 0.75150 0.00600
C 	C 	0.94080 0.18110 0.56700 0.05700
C 	C 	0.89080 0.12430 0.53240 -0.12100
H 	H 	0.91870 0.09240 0.49660 0.08100
C 	C 	0.79820 0.11550 0.55180 0.05200
H 	H 	0.76360 0.07690 0.52970 0.01800
C 	C 	0.75750 0.16420 0.60380 -0.12900
H 	H 	0.69580 0.15870 0.61840 0.08000
C 	C 	0.81170 0.22170 0.63360 0.08100
H 	H 	0.78420 0.25570 0.66750 0.00700
C 	C 	0.24900 0.09730 0.45810 0.03900
C 	C 	0.34400 0.09210 0.47110 -0.10500
H 	H 	0.37080 0.12090 0.51020 0.07900
C 	C 	0.40000 0.04450 0.42690 0.02600
H 	H 	0.46320 0.04130 0.43710 0.03500
C 	C 	0.36100 0.00180 0.36730 -0.09500
C 	C 	0.26510 0.00450 0.35590 0.03000
H 	H 	0.23800 0.97450 0.31790 0.03500
C 	C 	0.21040 0.05140 0.40030 -0.10700
H 	H 	0.14670 0.05250 0.39180 0.08000
C 	C 	0.42160 0.95150 0.31880 0.30300
C 	C 	0.47220 0.72430 0.03920 -0.07600
C 	C 	0.44600 0.64970 0.03090 -0.00200
H 	H 	0.43100 0.61840 0.07230 0.04600
C 	C 	0.44500 0.62710 0.95250 -0.04000
H 	H 	0.42770 0.57930 0.93620 0.05300
C 	C 	0.47200 0.68260 0.90280 -0.07100
C 	C 	0.48050 0.76840 0.11180 0.29500
C 	C 	0.47960 0.68060 0.81600 0.29000
