data_crystal

_cell_length_a 11.51780
_cell_length_b 12.41260
_cell_length_c 13.17080
_cell_angle_alpha 94.26100
_cell_angle_beta  92.97800
_cell_angle_gamma 93.13400

_symmetry_space_group_name_	'P 1'
_symmetry_space_group_name_H-M	'P 1'

loop_
_symmetry_equiv_pos_as_xyz
  x,y,z

loop_
_atom_site_label
_atom_site_type_symbol
_atom_site_fract_x
_atom_site_fract_y
_atom_site_fract_z
_atom_site_charge
Cd	Cd	0.72349 0.04160 0.47506 1.18200
Cd	Cd	0.12088 0.46578 0.72660 1.18800
Cd	Cd	0.47107 0.68328 0.12148 1.16800
C 	C 	0.43690 0.45280 0.34000 -0.12500
N 	N 	0.85210 0.17770 0.55360 -0.18500
O 	O 	0.21280 0.50710 0.57790 -0.39900
N 	N 	0.99320 0.32550 0.64710 -0.18200
O 	O 	0.28170 0.37500 0.65900 -0.42900
O 	O 	0.63160 0.17340 0.35150 -0.38200
C 	C 	0.27930 0.43140 0.58360 0.33800
O 	O 	0.52170 0.77580 0.96760 -0.41100
O 	O 	0.57730 0.15350 0.50580 -0.43300
O 	O 	0.77510 0.90910 0.56990 -0.45100
C 	C 	0.49890 0.29740 0.42160 -0.13400
O 	O 	0.51460 0.50930 0.18640 -0.40300
C 	C 	0.50270 0.36350 0.34190 0.07300
H 	H 	0.55050 0.34760 0.28870 0.02100
C 	C 	0.57290 0.20200 0.42500 0.33900
C 	C 	0.42700 0.32170 0.50040 0.07800
H 	H 	0.42500 0.27830 0.55490 0.00800
O 	O 	0.38930 0.61150 0.26160 -0.42800
C 	C 	0.35860 0.40880 0.49910 -0.13100
C 	C 	0.94760 0.60570 0.76300 0.32800
C 	C 	0.60800 0.71970 0.95720 0.32700
O 	O 	0.63030 0.64820 0.01800 -0.43200
O 	O 	0.97360 0.54370 0.83170 -0.41100
C 	C 	0.44690 0.52910 0.25750 0.33100
C 	C 	0.68620 0.73610 0.87240 -0.13000
C 	C 	0.82750 0.75630 0.70790 0.05200
H 	H 	0.87290 0.76150 0.65190 0.03100
C 	C 	0.36370 0.47490 0.41890 0.06700
H 	H 	0.31800 0.53430 0.41780 0.03400
C 	C 	0.66750 0.81460 0.80410 0.05400
H 	H 	0.60720 0.86070 0.81330 0.02800
C 	C 	0.77860 0.66930 0.85740 0.05700
H 	H 	0.79250 0.61670 0.90260 0.01600
O 	O 	0.00230 0.60720 0.68490 -0.40400
O 	O 	0.64110 0.97660 0.66650 -0.35100
C 	C 	0.84950 0.67970 0.77720 -0.12700
C 	C 	0.71570 0.90990 0.64680 0.33900
C 	C 	0.73790 0.82490 0.72230 -0.12100
C 	C 	0.96880 0.13660 0.57000 -0.06300
H 	H 	0.00020 0.11700 0.50470 0.01600
H 	H 	0.96300 0.07220 0.60730 0.01000
C 	C 	0.81070 0.21190 0.65490 -0.07100
H 	H 	0.80840 0.15090 0.69690 0.02700
H 	H 	0.73240 0.23640 0.64710 0.04400
C 	C 	0.89140 0.30270 0.70670 -0.04600
H 	H 	0.84870 0.36770 0.71590 0.03600
H 	H 	0.91760 0.28300 0.77360 0.00500
C 	C 	0.95100 0.35820 0.54830 -0.07300
H 	H 	0.01630 0.36850 0.50570 0.05700
H 	H 	0.91470 0.42660 0.55790 0.05600
C 	C 	0.86260 0.27300 0.49450 -0.05300
H 	H 	0.78730 0.30370 0.48680 0.05300
H 	H 	0.88750 0.25170 0.42710 0.03200
C 	C 	0.05120 0.22310 0.63030 -0.05200
H 	H 	0.07500 0.19740 0.69560 0.00200
H 	H 	0.12040 0.23550 0.59290 0.02700
Cd	Cd	0.27651 0.95840 0.52494 1.18300
Cd	Cd	0.87912 0.53422 0.27340 1.18900
Cd	Cd	0.52893 0.31672 0.87852 1.16900
C 	C 	0.56310 0.54720 0.66000 -0.12400
N 	N 	0.14790 0.82230 0.44640 -0.18400
O 	O 	0.78720 0.49290 0.42210 -0.39800
N 	N 	0.00680 0.67450 0.35290 -0.18200
O 	O 	0.71830 0.62500 0.34100 -0.42900
O 	O 	0.36840 0.82660 0.64850 -0.38200
C 	C 	0.72070 0.56860 0.41640 0.33800
O 	O 	0.47830 0.22420 0.03240 -0.41100
O 	O 	0.42270 0.84650 0.49420 -0.43300
O 	O 	0.22490 0.09090 0.43010 -0.45100
C 	C 	0.50110 0.70260 0.57840 -0.13400
O 	O 	0.48540 0.49070 0.81360 -0.40300
C 	C 	0.49730 0.63650 0.65810 0.07300
H 	H 	0.44950 0.65240 0.71130 0.02100
C 	C 	0.42710 0.79800 0.57500 0.33900
C 	C 	0.57300 0.67830 0.49960 0.07800
H 	H 	0.57500 0.72170 0.44510 0.00800
O 	O 	0.61070 0.38850 0.73840 -0.42800
C 	C 	0.64140 0.59120 0.50090 -0.13100
C 	C 	0.05240 0.39430 0.23700 0.32800
C 	C 	0.39200 0.28030 0.04280 0.32700
O 	O 	0.36970 0.35180 0.98200 -0.43200
O 	O 	0.02640 0.45630 0.16830 -0.41100
C 	C 	0.55310 0.47090 0.74250 0.33100
C 	C 	0.31380 0.26390 0.12760 -0.13000
C 	C 	0.17250 0.24370 0.29210 0.05200
H 	H 	0.12710 0.23850 0.34810 0.03100
C 	C 	0.63630 0.52510 0.58110 0.06700
H 	H 	0.68200 0.46570 0.58220 0.03400
C 	C 	0.33250 0.18540 0.19590 0.05400
H 	H 	0.39280 0.13930 0.18670 0.02800
C 	C 	0.22140 0.33070 0.14260 0.05700
H 	H 	0.20750 0.38330 0.09740 0.01600
O 	O 	0.99770 0.39280 0.31510 -0.40400
O 	O 	0.35890 0.02340 0.33350 -0.35100
C 	C 	0.15050 0.32030 0.22280 -0.12700
C 	C 	0.28430 0.09010 0.35320 0.33900
C 	C 	0.26210 0.17510 0.27770 -0.12100
C 	C 	0.03120 0.86340 0.43000 -0.06300
H 	H 	0.99980 0.88300 0.49530 0.01600
H 	H 	0.03700 0.92780 0.39270 0.01000
C 	C 	0.18930 0.78810 0.34510 -0.07100
H 	H 	0.19160 0.84910 0.30310 0.02700
H 	H 	0.26760 0.76360 0.35290 0.04400
C 	C 	0.10860 0.69730 0.29330 -0.04600
H 	H 	0.15130 0.63230 0.28410 0.03600
H 	H 	0.08240 0.71700 0.22640 0.00500
C 	C 	0.04900 0.64180 0.45170 -0.07300
H 	H 	0.98370 0.63150 0.49430 0.05700
H 	H 	0.08530 0.57340 0.44210 0.05600
C 	C 	0.13740 0.72700 0.50550 -0.05300
H 	H 	0.21270 0.69630 0.51320 0.05300
H 	H 	0.11250 0.74830 0.57290 0.03200
C 	C 	0.94880 0.77690 0.36970 -0.05200
H 	H 	0.92500 0.80260 0.30440 0.00200
H 	H 	0.87960 0.76450 0.40710 0.02700
