data_crystal

_cell_length_a 16.04450
_cell_length_b 11.89850
_cell_length_c 18.38960
_cell_angle_alpha 90.00000
_cell_angle_beta  104.45200
_cell_angle_gamma 90.00000

_symmetry_space_group_name_	'P 1'
_symmetry_space_group_name_H-M	'P 1'

loop_
_symmetry_equiv_pos_as_xyz
  x,y,z

loop_
_atom_site_label
_atom_site_type_symbol
_atom_site_fract_x
_atom_site_fract_y
_atom_site_fract_z
_atom_site_charge
Mn	Mn	0.14315 0.70904 0.43777 1.32100
O 	O 	0.98450 0.70620 0.15080 -0.32500
O 	O 	0.32840 0.33250 0.14120 -0.39100
O 	O 	0.21310 0.58930 0.39000 -0.41100
C 	C 	0.21290 0.44980 0.15140 -0.12000
O 	O 	0.34010 0.59070 0.36210 -0.25100
C 	C 	0.09490 0.57030 0.15720 -0.07700
O 	O 	0.21640 0.33820 0.04580 -0.50300
O 	O 	0.96220 0.57710 0.06340 -0.33700
C 	C 	0.21610 0.55390 0.26460 -0.10400
C 	C 	0.13270 0.49420 0.11850 0.05300
H 	H 	0.10410 0.47280 0.07010 0.05100
C 	C 	0.25930 0.58120 0.34530 0.36100
O 	O 	0.08640 0.83300 0.49700 -0.46700
H 	H 	0.11870 0.84420 0.53860 0.28400
C 	C 	0.25510 0.36840 0.10960 0.40800
C 	C 	0.25490 0.48200 0.22390 0.06500
H 	H 	0.30990 0.45480 0.24540 0.05500
C 	C 	0.00870 0.62060 0.12110 0.30300
C 	C 	0.13570 0.59830 0.23100 0.04300
H 	H 	0.10910 0.64690 0.25780 0.04800
Mn	Mn	0.64315 0.20904 0.43777 1.32000
O 	O 	0.48450 0.20620 0.15080 -0.32800
O 	O 	0.82840 0.83250 0.14120 -0.39200
O 	O 	0.71310 0.08930 0.39000 -0.41200
C 	C 	0.71290 0.94980 0.15140 -0.12100
O 	O 	0.84010 0.09070 0.36210 -0.25200
C 	C 	0.59490 0.07030 0.15720 -0.08000
O 	O 	0.71640 0.83820 0.04580 -0.50200
O 	O 	0.46220 0.07710 0.06340 -0.34000
C 	C 	0.71610 0.05390 0.26460 -0.10500
C 	C 	0.63270 0.99420 0.11850 0.05400
H 	H 	0.60410 0.97280 0.07010 0.05100
C 	C 	0.75930 0.08120 0.34530 0.36200
O 	O 	0.58640 0.33300 0.49700 -0.46700
H 	H 	0.61870 0.34420 0.53860 0.28400
C 	C 	0.75510 0.86840 0.10960 0.40800
C 	C 	0.75490 0.98200 0.22390 0.06600
H 	H 	0.80990 0.95480 0.24540 0.05500
C 	C 	0.50870 0.12060 0.12110 0.30800
C 	C 	0.63570 0.09830 0.23100 0.04400
H 	H 	0.60910 0.14690 0.25780 0.04700
Mn	Mn	0.85685 0.70904 0.06223 1.32000
O 	O 	0.01550 0.70620 0.34920 -0.32900
O 	O 	0.67160 0.33250 0.35880 -0.39200
O 	O 	0.78690 0.58930 0.11000 -0.41200
C 	C 	0.78710 0.44980 0.34860 -0.12100
O 	O 	0.65990 0.59070 0.13790 -0.25200
C 	C 	0.90510 0.57030 0.34280 -0.08000
O 	O 	0.78360 0.33820 0.45420 -0.50300
O 	O 	0.03780 0.57710 0.43660 -0.34000
C 	C 	0.78390 0.55390 0.23540 -0.10500
C 	C 	0.86730 0.49420 0.38150 0.05400
H 	H 	0.89590 0.47280 0.42990 0.05100
C 	C 	0.74070 0.58120 0.15470 0.36200
O 	O 	0.91360 0.83300 0.00300 -0.46400
H 	H 	0.88130 0.84420 0.96140 0.28100
C 	C 	0.74490 0.36840 0.39040 0.40800
C 	C 	0.74510 0.48200 0.27610 0.06600
H 	H 	0.69010 0.45480 0.25460 0.05500
C 	C 	0.99130 0.62060 0.37890 0.30900
C 	C 	0.86430 0.59830 0.26900 0.04400
H 	H 	0.89090 0.64690 0.24220 0.04700
Mn	Mn	0.35685 0.20904 0.06223 1.32000
O 	O 	0.51550 0.20620 0.34920 -0.32800
O 	O 	0.17160 0.83250 0.35880 -0.39200
O 	O 	0.28690 0.08930 0.11000 -0.41200
C 	C 	0.28710 0.94980 0.34860 -0.12200
O 	O 	0.15990 0.09070 0.13790 -0.25200
C 	C 	0.40510 0.07030 0.34280 -0.07900
O 	O 	0.28360 0.83820 0.45420 -0.50300
O 	O 	0.53780 0.07710 0.43660 -0.34000
C 	C 	0.28390 0.05390 0.23540 -0.10500
C 	C 	0.36730 0.99420 0.38150 0.05400
H 	H 	0.39590 0.97280 0.42990 0.05100
C 	C 	0.24070 0.08120 0.15470 0.36200
O 	O 	0.41360 0.33300 0.00300 -0.46800
H 	H 	0.38130 0.34420 0.96140 0.28500
C 	C 	0.24490 0.86840 0.39040 0.40800
C 	C 	0.24510 0.98200 0.27610 0.06600
H 	H 	0.19010 0.95480 0.25460 0.05500
C 	C 	0.49130 0.12060 0.37890 0.30800
C 	C 	0.36430 0.09830 0.26900 0.04400
H 	H 	0.39090 0.14690 0.24220 0.04700
Mn	Mn	0.85685 0.29096 0.56223 1.32000
O 	O 	0.01550 0.29380 0.84920 -0.32600
O 	O 	0.67160 0.66750 0.85880 -0.39200
O 	O 	0.78690 0.41070 0.61000 -0.41200
C 	C 	0.78710 0.55020 0.84860 -0.12100
O 	O 	0.65990 0.40930 0.63790 -0.25200
C 	C 	0.90510 0.42970 0.84280 -0.07800
O 	O 	0.78360 0.66180 0.95420 -0.50400
O 	O 	0.03780 0.42290 0.93660 -0.33700
C 	C 	0.78390 0.44610 0.73540 -0.10400
C 	C 	0.86730 0.50580 0.88150 0.05300
H 	H 	0.89590 0.52720 0.92990 0.05100
C 	C 	0.74070 0.41880 0.65470 0.36100
O 	O 	0.91360 0.16700 0.50300 -0.46700
H 	H 	0.88130 0.15580 0.46140 0.28400
C 	C 	0.74490 0.63160 0.89040 0.40800
C 	C 	0.74510 0.51800 0.77610 0.06500
H 	H 	0.69010 0.54520 0.75460 0.05500
C 	C 	0.99130 0.37940 0.87890 0.30300
C 	C 	0.86430 0.40170 0.76900 0.04300
H 	H 	0.89090 0.35310 0.74220 0.04800
Mn	Mn	0.35685 0.79096 0.56223 1.32000
O 	O 	0.51550 0.79380 0.84920 -0.32800
O 	O 	0.17160 0.16750 0.85880 -0.39200
O 	O 	0.28690 0.91070 0.61000 -0.41200
C 	C 	0.28710 0.05020 0.84860 -0.12100
O 	O 	0.15990 0.90930 0.63790 -0.25200
C 	C 	0.40510 0.92970 0.84280 -0.08000
O 	O 	0.28360 0.16180 0.95420 -0.50200
O 	O 	0.53780 0.92290 0.93660 -0.34000
C 	C 	0.28390 0.94610 0.73540 -0.10500
C 	C 	0.36730 0.00580 0.88150 0.05400
H 	H 	0.39590 0.02720 0.92990 0.05100
C 	C 	0.24070 0.91880 0.65470 0.36200
O 	O 	0.41360 0.66700 0.50300 -0.46700
H 	H 	0.38130 0.65580 0.46140 0.28400
C 	C 	0.24490 0.13160 0.89040 0.40800
C 	C 	0.24510 0.01800 0.77610 0.06600
H 	H 	0.19010 0.04520 0.75460 0.05500
C 	C 	0.49130 0.87940 0.87890 0.30800
C 	C 	0.36430 0.90170 0.76900 0.04400
H 	H 	0.39090 0.85310 0.74220 0.04700
Mn	Mn	0.14315 0.29096 0.93777 1.32000
O 	O 	0.98450 0.29380 0.65080 -0.32900
O 	O 	0.32840 0.66750 0.64120 -0.39200
O 	O 	0.21310 0.41070 0.89000 -0.41200
C 	C 	0.21290 0.55020 0.65140 -0.12100
O 	O 	0.34010 0.40930 0.86210 -0.25200
C 	C 	0.09490 0.42970 0.65720 -0.08000
O 	O 	0.21640 0.66180 0.54580 -0.50300
O 	O 	0.96220 0.42290 0.56340 -0.34000
C 	C 	0.21610 0.44610 0.76460 -0.10500
C 	C 	0.13270 0.50580 0.61850 0.05400
H 	H 	0.10410 0.52720 0.57010 0.05100
C 	C 	0.25930 0.41880 0.84530 0.36200
O 	O 	0.08640 0.16700 0.99700 -0.46400
H 	H 	0.11870 0.15580 0.03860 0.28100
C 	C 	0.25510 0.63160 0.60960 0.40800
C 	C 	0.25490 0.51800 0.72390 0.06600
H 	H 	0.30990 0.54520 0.74540 0.05500
C 	C 	0.00870 0.37940 0.62110 0.30900
C 	C 	0.13570 0.40170 0.73100 0.04400
H 	H 	0.10910 0.35310 0.75780 0.04700
Mn	Mn	0.64315 0.79096 0.93777 1.32000
O 	O 	0.48450 0.79380 0.65080 -0.32800
O 	O 	0.82840 0.16750 0.64120 -0.39200
O 	O 	0.71310 0.91070 0.89000 -0.41200
C 	C 	0.71290 0.05020 0.65140 -0.12200
O 	O 	0.84010 0.90930 0.86210 -0.25200
C 	C 	0.59490 0.92970 0.65720 -0.07900
O 	O 	0.71640 0.16180 0.54580 -0.50300
O 	O 	0.46220 0.92290 0.56340 -0.34000
C 	C 	0.71610 0.94610 0.76460 -0.10500
C 	C 	0.63270 0.00580 0.61850 0.05400
H 	H 	0.60410 0.02720 0.57010 0.05100
C 	C 	0.75930 0.91880 0.84530 0.36200
O 	O 	0.58640 0.66700 0.99700 -0.46800
H 	H 	0.61870 0.65580 0.03860 0.28500
C 	C 	0.75510 0.13160 0.60960 0.40800
C 	C 	0.75490 0.01800 0.72390 0.06600
H 	H 	0.80990 0.04520 0.74540 0.05500
C 	C 	0.50870 0.87940 0.62110 0.30800
C 	C 	0.63570 0.90170 0.73100 0.04400
H 	H 	0.60910 0.85310 0.75780 0.04700
