data_crystal

_cell_length_a 15.40350
_cell_length_b 16.23110
_cell_length_c 26.26800
_cell_angle_alpha 90.00000
_cell_angle_beta  95.18700
_cell_angle_gamma 90.00000

_symmetry_space_group_name_	'P 1'
_symmetry_space_group_name_H-M	'P 1'

loop_
_symmetry_equiv_pos_as_xyz
  x,y,z

loop_
_atom_site_label
_atom_site_type_symbol
_atom_site_fract_x
_atom_site_fract_y
_atom_site_fract_z
_atom_site_charge
Mn	Mn	0.83428 0.23169 0.65592 1.28400
O 	O 	0.64050 0.33170 0.59980 -0.47000
Mn	Mn	0.67876 0.24091 0.54724 1.28200
O 	O 	0.79050 0.31910 0.52949 -0.59000
Mn	Mn	0.75278 0.04704 0.61445 1.30100
O 	O 	0.07450 0.66290 0.55790 -0.48500
O 	O 	0.11240 0.54760 0.60090 -0.46800
O 	O 	0.77440 0.16580 0.58846 -0.64200
O 	O 	0.72700 0.30910 0.67010 -0.48500
O 	O 	0.87540 0.32800 0.60320 -0.47000
O 	O 	0.73930 0.56510 0.42300 -0.43300
C 	C 	0.84450 0.35580 0.56120 0.49200
C 	C 	0.68730 0.46000 0.71010 0.13600
C 	C 	0.64130 0.42860 0.66670 -0.20700
C 	C 	0.66270 0.53550 0.73030 -0.18500
C 	C 	0.94880 0.47560 0.56890 0.27100
C 	C 	0.97400 0.55250 0.55430 -0.30300
O 	O 	0.39890 0.53650 0.62540 -0.41600
C 	C 	0.87220 0.44060 0.54700 -0.37600
C 	C 	0.56790 0.46840 0.64720 0.18700
O 	O 	0.45000 0.65800 0.65300 -0.45100
C 	C 	0.84490 0.56190 0.49520 -0.39100
C 	C 	0.67320 0.35020 0.64330 0.45400
C 	C 	0.82140 0.48580 0.51040 0.46200
C 	C 	0.92080 0.59540 0.51750 0.32800
C 	C 	0.06120 0.59010 0.57260 0.46500
C 	C 	0.54080 0.54140 0.66650 -0.20300
C 	C 	0.45780 0.58160 0.64660 0.41700
C 	C 	0.70870 0.56820 0.77840 0.40400
C 	C 	0.59080 0.57650 0.70800 0.14000
C 	C 	0.79310 0.60530 0.45220 0.45900
O 	O 	0.74860 0.51560 0.80830 -0.43000
O 	O 	0.70320 0.64240 0.78920 -0.48200
O 	O 	0.80260 0.68030 0.44810 -0.25600
H 	H 	0.55200 0.44900 0.62100 -0.01700
H 	H 	0.98200 0.44500 0.59200 -0.03800
H 	H 	0.56900 0.62300 0.71900 -0.01000
H 	H 	0.94000 0.64100 0.51300 -0.07600
H 	H 	0.77800 0.47000 0.50000 -0.20900
H 	H 	0.74000 0.43000 0.70900 0.01100
Mn	Mn	0.33428 0.73169 0.65592 1.28300
O 	O 	0.14050 0.83170 0.59980 -0.47200
Mn	Mn	0.17876 0.74091 0.54724 1.28100
O 	O 	0.29050 0.81910 0.52949 -0.59100
Mn	Mn	0.25278 0.54704 0.61445 1.30100
O 	O 	0.57450 0.16290 0.55790 -0.48600
O 	O 	0.61240 0.04760 0.60090 -0.46900
O 	O 	0.27440 0.66580 0.58846 -0.64200
O 	O 	0.22700 0.80910 0.67010 -0.48600
O 	O 	0.37540 0.82800 0.60320 -0.47100
O 	O 	0.23930 0.06510 0.42300 -0.43500
C 	C 	0.34450 0.85580 0.56120 0.49800
C 	C 	0.18730 0.96000 0.71010 0.14300
C 	C 	0.14130 0.92860 0.66670 -0.21300
C 	C 	0.16270 0.03550 0.73030 -0.19100
C 	C 	0.44880 0.97560 0.56890 0.28700
C 	C 	0.47400 0.05250 0.55430 -0.31700
O 	O 	0.89890 0.03650 0.62540 -0.41700
C 	C 	0.37220 0.94060 0.54700 -0.39100
C 	C 	0.06790 0.96840 0.64720 0.19800
O 	O 	0.95000 0.15800 0.65300 -0.45200
C 	C 	0.34490 0.06190 0.49520 -0.41000
C 	C 	0.17320 0.85020 0.64330 0.45700
C 	C 	0.32140 0.98580 0.51040 0.49100
C 	C 	0.42080 0.09540 0.51750 0.34700
C 	C 	0.56120 0.09010 0.57260 0.47000
C 	C 	0.04080 0.04140 0.66650 -0.21100
C 	C 	0.95780 0.08160 0.64660 0.42000
C 	C 	0.20870 0.06820 0.77840 0.40600
C 	C 	0.09080 0.07650 0.70800 0.14700
C 	C 	0.29310 0.10530 0.45220 0.46600
O 	O 	0.24860 0.01560 0.80830 -0.43100
O 	O 	0.20320 0.14240 0.78920 -0.48300
O 	O 	0.30260 0.18030 0.44810 -0.25800
H 	H 	0.05200 0.94900 0.62100 -0.02200
H 	H 	0.48200 0.94500 0.59200 -0.04300
H 	H 	0.06900 0.12300 0.71900 -0.01200
H 	H 	0.44000 0.14100 0.51300 -0.08400
H 	H 	0.27800 0.97000 0.50000 -0.22200
H 	H 	0.24000 0.93000 0.70900 0.01000
Mn	Mn	0.16572 0.23169 0.84408 1.28300
O 	O 	0.35950 0.33170 0.90020 -0.47200
Mn	Mn	0.32124 0.24091 0.95276 1.28000
O 	O 	0.20950 0.31910 0.97051 -0.58500
Mn	Mn	0.24722 0.04704 0.88555 1.30100
O 	O 	0.92550 0.66290 0.94210 -0.48200
O 	O 	0.88760 0.54760 0.89910 -0.46300
O 	O 	0.22560 0.16580 0.91154 -0.64200
O 	O 	0.27300 0.30910 0.82990 -0.48500
O 	O 	0.12460 0.32800 0.89680 -0.46400
O 	O 	0.26070 0.56510 0.07700 -0.42400
C 	C 	0.15550 0.35580 0.93880 0.46400
C 	C 	0.31270 0.46000 0.78990 0.13700
C 	C 	0.35870 0.42860 0.83330 -0.20800
C 	C 	0.33730 0.53550 0.76970 -0.18600
C 	C 	0.05120 0.47560 0.93110 0.21000
C 	C 	0.02600 0.55250 0.94570 -0.25000
O 	O 	0.60110 0.53650 0.87460 -0.41600
C 	C 	0.12780 0.44060 0.95300 -0.30200
C 	C 	0.43210 0.46840 0.85280 0.18800
O 	O 	0.55000 0.65800 0.84700 -0.45100
C 	C 	0.15510 0.56190 0.00480 -0.29700
C 	C 	0.32680 0.35020 0.85670 0.45500
C 	C 	0.17860 0.48580 0.98960 0.31400
C 	C 	0.07920 0.59540 0.98250 0.23600
C 	C 	0.93880 0.59010 0.92740 0.44600
C 	C 	0.45920 0.54140 0.83350 -0.20400
C 	C 	0.54220 0.58160 0.85340 0.41700
C 	C 	0.29130 0.56820 0.72160 0.40400
C 	C 	0.40920 0.57650 0.79200 0.14100
C 	C 	0.20690 0.60530 0.04780 0.42400
O 	O 	0.25140 0.51560 0.69170 -0.43000
O 	O 	0.29680 0.64240 0.71080 -0.48300
O 	O 	0.19740 0.68030 0.05190 -0.24600
H 	H 	0.44800 0.44900 0.87900 -0.01800
H 	H 	0.01800 0.44500 0.90800 -0.01800
H 	H 	0.43100 0.62300 0.78100 -0.01000
H 	H 	0.06000 0.64100 0.98700 -0.03800
H 	H 	0.22200 0.47000 -0.00000 -0.13500
H 	H 	0.26000 0.43000 0.79100 0.01100
Mn	Mn	0.66572 0.73169 0.84408 1.28300
O 	O 	0.85950 0.83170 0.90020 -0.47300
Mn	Mn	0.82124 0.74091 0.95276 1.28000
O 	O 	0.70950 0.81910 0.97051 -0.58600
Mn	Mn	0.74722 0.54704 0.88555 1.30100
O 	O 	0.42550 0.16290 0.94210 -0.48300
O 	O 	0.38760 0.04760 0.89910 -0.46400
O 	O 	0.72560 0.66580 0.91154 -0.64200
O 	O 	0.77300 0.80910 0.82990 -0.48600
O 	O 	0.62460 0.82800 0.89680 -0.46500
O 	O 	0.76070 0.06510 0.07700 -0.42600
C 	C 	0.65550 0.85580 0.93880 0.47000
C 	C 	0.81270 0.96000 0.78990 0.14200
C 	C 	0.85870 0.92860 0.83330 -0.21200
C 	C 	0.83730 0.03550 0.76970 -0.19000
C 	C 	0.55120 0.97560 0.93110 0.22300
C 	C 	0.52600 0.05250 0.94570 -0.26100
O 	O 	0.10110 0.03650 0.87460 -0.41700
C 	C 	0.62780 0.94060 0.95300 -0.31500
C 	C 	0.93210 0.96840 0.85280 0.19700
O 	O 	0.05000 0.15800 0.84700 -0.45200
C 	C 	0.65510 0.06190 0.00480 -0.31400
C 	C 	0.82680 0.85020 0.85670 0.45600
C 	C 	0.67860 0.98580 0.98960 0.34100
C 	C 	0.57920 0.09540 0.98250 0.25200
C 	C 	0.43880 0.09010 0.92740 0.45000
C 	C 	0.95920 0.04140 0.83350 -0.20900
C 	C 	0.04220 0.08160 0.85340 0.41800
C 	C 	0.79130 0.06820 0.72160 0.40500
C 	C 	0.90920 0.07650 0.79200 0.14500
C 	C 	0.70690 0.10530 0.04780 0.43000
O 	O 	0.75140 0.01560 0.69170 -0.43100
O 	O 	0.79680 0.14240 0.71080 -0.48300
O 	O 	0.69740 0.18030 0.05190 -0.24800
H 	H 	0.94800 0.94900 0.87900 -0.02100
H 	H 	0.51800 0.94500 0.90800 -0.02100
H 	H 	0.93100 0.12300 0.78100 -0.01100
H 	H 	0.56000 0.14100 0.98700 -0.04500
H 	H 	0.72200 0.97000 -0.00000 -0.14700
H 	H 	0.76000 0.93000 0.79100 0.01000
Mn	Mn	0.16572 0.76831 0.34408 1.28300
O 	O 	0.35950 0.66830 0.40020 -0.47100
Mn	Mn	0.32124 0.75909 0.45276 1.28100
O 	O 	0.20950 0.68090 0.47051 -0.59000
Mn	Mn	0.24722 0.95296 0.38555 1.30100
O 	O 	0.92550 0.33710 0.44210 -0.48500
O 	O 	0.88760 0.45240 0.39910 -0.46800
O 	O 	0.22560 0.83420 0.41154 -0.64200
O 	O 	0.27300 0.69090 0.32990 -0.48500
O 	O 	0.12460 0.67200 0.39680 -0.47000
O 	O 	0.26070 0.43490 0.57700 -0.43300
C 	C 	0.15550 0.64420 0.43880 0.49400
C 	C 	0.31270 0.54000 0.28990 0.13700
C 	C 	0.35870 0.57140 0.33330 -0.20700
C 	C 	0.33730 0.46450 0.26970 -0.18600
C 	C 	0.05120 0.52440 0.43110 0.27600
C 	C 	0.02600 0.44750 0.44570 -0.30800
O 	O 	0.60110 0.46350 0.37460 -0.41600
C 	C 	0.12780 0.55940 0.45300 -0.38000
C 	C 	0.43210 0.53160 0.35280 0.18700
O 	O 	0.55000 0.34200 0.34700 -0.45100
C 	C 	0.15510 0.43810 0.50480 -0.39600
C 	C 	0.32680 0.64980 0.35670 0.45400
C 	C 	0.17860 0.51420 0.48960 0.47000
C 	C 	0.07920 0.40460 0.48250 0.33400
C 	C 	0.93880 0.40990 0.42740 0.46800
C 	C 	0.45920 0.45860 0.33350 -0.20300
C 	C 	0.54220 0.41840 0.35340 0.41700
C 	C 	0.29130 0.43180 0.22160 0.40400
C 	C 	0.40920 0.42350 0.29200 0.14000
C 	C 	0.20690 0.39470 0.54780 0.46100
O 	O 	0.25140 0.48440 0.19170 -0.43000
O 	O 	0.29680 0.35760 0.21080 -0.48300
O 	O 	0.19740 0.31970 0.55190 -0.25700
H 	H 	0.44800 0.55100 0.37900 -0.01700
H 	H 	0.01800 0.55500 0.40800 -0.04000
H 	H 	0.43100 0.37700 0.28100 -0.01000
H 	H 	0.06000 0.35900 0.48700 -0.07900
H 	H 	0.22200 0.53000 0.50000 -0.21200
H 	H 	0.26000 0.57000 0.29100 0.01100
Mn	Mn	0.66572 0.26831 0.34408 1.28300
O 	O 	0.85950 0.16830 0.40020 -0.47100
Mn	Mn	0.82124 0.25909 0.45276 1.28100
O 	O 	0.70950 0.18090 0.47051 -0.58900
Mn	Mn	0.74722 0.45296 0.38555 1.30100
O 	O 	0.42550 0.83710 0.44210 -0.48400
O 	O 	0.38760 0.95240 0.39910 -0.46600
O 	O 	0.72560 0.33420 0.41154 -0.64200
O 	O 	0.77300 0.19090 0.32990 -0.48400
O 	O 	0.62460 0.17200 0.39680 -0.46900
O 	O 	0.76070 0.93490 0.57700 -0.43100
C 	C 	0.65550 0.14420 0.43880 0.48800
C 	C 	0.81270 0.04000 0.28990 0.13100
C 	C 	0.85870 0.07140 0.33330 -0.20100
C 	C 	0.83730 0.96450 0.26970 -0.18000
C 	C 	0.55120 0.02440 0.43110 0.26000
C 	C 	0.52600 0.94750 0.44570 -0.29300
O 	O 	0.10110 0.96350 0.37460 -0.41500
C 	C 	0.62780 0.05940 0.45300 -0.36400
C 	C 	0.93210 0.03160 0.35280 0.17500
O 	O 	0.05000 0.84200 0.34700 -0.45000
C 	C 	0.65510 0.93810 0.50480 -0.37600
C 	C 	0.82680 0.14980 0.35670 0.45200
C 	C 	0.67860 0.01420 0.48960 0.44000
C 	C 	0.57920 0.90460 0.48250 0.31400
C 	C 	0.43880 0.90990 0.42740 0.46200
C 	C 	0.95920 0.95860 0.33350 -0.19500
C 	C 	0.04220 0.91840 0.35340 0.41300
C 	C 	0.79130 0.93180 0.22160 0.40200
C 	C 	0.90920 0.92350 0.29200 0.13400
C 	C 	0.70690 0.89470 0.54780 0.45400
O 	O 	0.75140 0.98440 0.19170 -0.42900
O 	O 	0.79680 0.85760 0.21080 -0.48200
O 	O 	0.69740 0.81970 0.55190 -0.25500
H 	H 	0.94800 0.05100 0.37900 -0.01200
H 	H 	0.51800 0.05500 0.40800 -0.03400
H 	H 	0.93100 0.87700 0.28100 -0.00700
H 	H 	0.56000 0.85900 0.48700 -0.07000
H 	H 	0.72200 0.03000 0.50000 -0.19800
H 	H 	0.76000 0.07000 0.29100 0.01300
Mn	Mn	0.83428 0.76831 0.15592 1.28300
O 	O 	0.64050 0.66830 0.09980 -0.47100
Mn	Mn	0.67876 0.75909 0.04724 1.28200
O 	O 	0.79050 0.68090 0.02949 -0.59200
Mn	Mn	0.75278 0.95296 0.11445 1.30000
O 	O 	0.07450 0.33710 0.05790 -0.48600
O 	O 	0.11240 0.45240 0.10090 -0.47000
O 	O 	0.77440 0.83420 0.08846 -0.64200
O 	O 	0.72700 0.69090 0.17010 -0.48500
O 	O 	0.87540 0.67200 0.10320 -0.47300
O 	O 	0.73930 0.43490 0.92300 -0.43800
C 	C 	0.84450 0.64420 0.06120 0.50600
C 	C 	0.68730 0.54000 0.21010 0.13600
C 	C 	0.64130 0.57140 0.16670 -0.20700
C 	C 	0.66270 0.46450 0.23030 -0.18500
C 	C 	0.94880 0.52440 0.06890 0.30500
C 	C 	0.97400 0.44750 0.05430 -0.33300
O 	O 	0.39890 0.46350 0.12540 -0.41700
C 	C 	0.87220 0.55940 0.04700 -0.41300
C 	C 	0.56790 0.53160 0.14720 0.18600
O 	O 	0.45000 0.34200 0.15300 -0.45100
C 	C 	0.84490 0.43810 0.99520 -0.44400
C 	C 	0.67320 0.64980 0.14330 0.45400
C 	C 	0.82140 0.51420 0.01040 0.53700
C 	C 	0.92080 0.40460 0.01750 0.38100
C 	C 	0.06120 0.40990 0.07260 0.47700
C 	C 	0.54080 0.45860 0.16650 -0.20300
C 	C 	0.45780 0.41840 0.14660 0.41700
C 	C 	0.70870 0.43180 0.27840 0.40400
C 	C 	0.59080 0.42350 0.20800 0.14000
C 	C 	0.79310 0.39470 0.95220 0.47800
O 	O 	0.74860 0.48440 0.30830 -0.43000
O 	O 	0.70320 0.35760 0.28920 -0.48200
O 	O 	0.80260 0.31970 0.94810 -0.26200
H 	H 	0.55200 0.55100 0.12100 -0.01600
H 	H 	0.98200 0.55500 0.09200 -0.04900
H 	H 	0.56900 0.37700 0.21900 -0.00900
H 	H 	0.94000 0.35900 0.01300 -0.09700
H 	H 	0.77800 0.53000 -0.00000 -0.24300
H 	H 	0.74000 0.57000 0.20900 0.01100
Mn	Mn	0.33428 0.26831 0.15592 1.28300
O 	O 	0.14050 0.16830 0.09980 -0.47100
Mn	Mn	0.17876 0.25909 0.04724 1.28200
O 	O 	0.29050 0.18090 0.02949 -0.59100
Mn	Mn	0.25278 0.45296 0.11445 1.30000
O 	O 	0.57450 0.83710 0.05790 -0.48500
O 	O 	0.61240 0.95240 0.10090 -0.46900
O 	O 	0.27440 0.33420 0.08846 -0.64300
O 	O 	0.22700 0.19090 0.17010 -0.48500
O 	O 	0.37540 0.17200 0.10320 -0.47200
O 	O 	0.23930 0.93490 0.92300 -0.43600
C 	C 	0.34450 0.14420 0.06120 0.50200
C 	C 	0.18730 0.04000 0.21010 0.13200
C 	C 	0.14130 0.07140 0.16670 -0.20300
C 	C 	0.16270 0.96450 0.23030 -0.18200
C 	C 	0.44880 0.02440 0.06890 0.29300
C 	C 	0.47400 0.94750 0.05430 -0.32300
O 	O 	0.89890 0.96350 0.12540 -0.41600
C 	C 	0.37220 0.05940 0.04700 -0.40200
C 	C 	0.06790 0.03160 0.14720 0.17900
O 	O 	0.95000 0.84200 0.15300 -0.45100
C 	C 	0.34490 0.93810 0.99520 -0.42900
C 	C 	0.17320 0.14980 0.14330 0.45300
C 	C 	0.32140 0.01420 0.01040 0.51400
C 	C 	0.42080 0.90460 0.01750 0.36700
C 	C 	0.56120 0.90990 0.07260 0.47400
C 	C 	0.04080 0.95860 0.16650 -0.19900
C 	C 	0.95780 0.91840 0.14660 0.41600
C 	C 	0.20870 0.93180 0.27840 0.40300
C 	C 	0.09080 0.92350 0.20800 0.13700
C 	C 	0.29310 0.89470 0.95220 0.47300
O 	O 	0.24860 0.98440 0.30830 -0.42900
O 	O 	0.20320 0.85760 0.28920 -0.48200
O 	O 	0.30260 0.81970 0.94810 -0.26100
H 	H 	0.05200 0.05100 0.12100 -0.01400
H 	H 	0.48200 0.05500 0.09200 -0.04600
H 	H 	0.06900 0.87700 0.21900 -0.00900
H 	H 	0.44000 0.85900 0.01300 -0.09200
H 	H 	0.27800 0.03000 -0.00000 -0.23300
H 	H 	0.24000 0.07000 0.20900 0.01200
