data_crystal

_cell_length_a 6.66870
_cell_length_b 12.24500
_cell_length_c 9.03050
_cell_angle_alpha 90.00000
_cell_angle_beta  110.43900
_cell_angle_gamma 90.00000

_symmetry_space_group_name_	'P 1'
_symmetry_space_group_name_H-M	'P 1'

loop_
_symmetry_equiv_pos_as_xyz
  x,y,z

loop_
_atom_site_label
_atom_site_type_symbol
_atom_site_fract_x
_atom_site_fract_y
_atom_site_fract_z
_atom_site_charge
N 	N 	0.41800 0.12340 0.14680 -0.17800
N 	N 	0.20900 0.12480 0.14060 -0.24800
N 	N 	0.52200 0.19640 0.24890 -0.05200
C 	C 	0.20400 0.20180 0.24250 0.07100
N 	N 	0.39900 0.24790 0.31270 -0.18300
N 	N 	0.99710 0.23360 0.27000 -0.26500
H 	H 	0.87900 0.20110 0.21850 0.16800
H 	H 	0.99930 0.28400 0.33700 0.23400
F 	F 	0.20410 0.38420 0.52060 -0.68400
N 	N 	0.58200 0.12340 0.85320 -0.09600
N 	N 	0.79100 0.12480 0.85940 -0.13500
N 	N 	0.47800 0.19640 0.75110 -0.03900
C 	C 	0.79600 0.20180 0.75750 0.31300
N 	N 	0.60100 0.24790 0.68730 -0.19400
N 	N 	0.00290 0.23360 0.73000 -0.38800
H 	H 	0.12100 0.20110 0.78150 0.20400
H 	H 	0.00070 0.28400 0.66300 0.17000
F 	F 	0.79590 0.38420 0.47940 -0.59900
N 	N 	0.58200 0.87660 0.85320 -0.06600
N 	N 	0.79100 0.87520 0.85940 -0.11000
N 	N 	0.47800 0.80360 0.75110 -0.02800
C 	C 	0.79600 0.79820 0.75750 0.32900
N 	N 	0.60100 0.75210 0.68730 -0.19100
N 	N 	0.00290 0.76640 0.73000 -0.38900
H 	H 	0.12100 0.79890 0.78150 0.22000
H 	H 	0.00070 0.71600 0.66300 0.17500
F 	F 	0.79590 0.61580 0.47940 -0.59700
N 	N 	0.41800 0.87660 0.14680 -0.14300
N 	N 	0.20900 0.87520 0.14060 -0.21500
N 	N 	0.52200 0.80360 0.24890 -0.04100
C 	C 	0.20400 0.79820 0.24250 0.09100
N 	N 	0.39900 0.75210 0.31270 -0.18000
N 	N 	0.99710 0.76640 0.27000 -0.26700
H 	H 	0.87900 0.79890 0.21850 0.18700
H 	H 	0.99930 0.71600 0.33700 0.23900
F 	F 	0.20410 0.61580 0.52060 -0.68200
Fe	Fe	0.50000 0.00000 -0.00000 1.06900
F 	F 	0.19000 0.00000 0.86390 -0.63500
F 	F 	0.81000 0.00000 0.13610 -0.68000
Fe	Fe	-0.00000 0.00000 -0.00000 0.99000
Fe	Fe	0.50000 0.36593 0.50000 1.25500
Fe	Fe	0.50000 0.63407 0.50000 1.25800
O 	O 	0.58700 0.50000 0.66060 -0.31300
F 	F 	0.41300 0.50000 0.33940 -0.61500
Fe	Fe	0.00000 0.50000 0.50000 1.24000
