data_crystal

_cell_length_a 14.20790
_cell_length_b 17.22950
_cell_length_c 26.15840
_cell_angle_alpha 88.76400
_cell_angle_beta  74.47000
_cell_angle_gamma 70.37700

_symmetry_space_group_name_	'P 1'
_symmetry_space_group_name_H-M	'P 1'

loop_
_symmetry_equiv_pos_as_xyz
  x,y,z

loop_
_atom_site_label
_atom_site_type_symbol
_atom_site_fract_x
_atom_site_fract_y
_atom_site_fract_z
_atom_site_charge
Zn	Zn	0.11005 0.79977 0.42005 1.21600
Zn	Zn	0.17306 0.61911 0.47782 1.21500
Zn	Zn	0.46896 0.21843 0.70865 1.17500
Zn	Zn	0.66620 0.11612 0.00883 1.21400
Zn	Zn	0.85584 0.27887 0.19851 1.18900
Zn	Zn	0.57025 0.31381 0.07135 1.21700
C 	C 	0.32640 0.67100 0.39530 0.11300
C 	C 	0.32380 0.78720 0.36320 0.08500
H 	H 	0.29900 0.84250 0.35630 -0.03700
C 	C 	0.42550 0.66120 0.36330 -0.04600
C 	C 	0.50240 0.58440 0.35330 0.16400
C 	C 	0.38410 0.53600 0.40900 0.11500
H 	H 	0.37290 0.49100 0.42650 -0.01300
C 	C 	0.05750 0.82940 0.58820 -0.15900
C 	C 	0.08420 0.79400 0.63230 0.09700
H 	H 	0.12260 0.73800 0.63040 0.03100
C 	C 	0.05410 0.84160 0.67900 -0.15600
C 	C 	0.00560 0.92710 0.67980 0.08600
H 	H 	0.98490 0.95970 0.71150 0.02800
C 	C 	0.98820 0.96380 0.63420 -0.14300
C 	C 	0.01370 0.91520 0.58880 0.08600
H 	H 	0.00190 0.93930 0.55790 0.03200
C 	C 	0.08690 0.77980 0.53720 0.39900
C 	C 	0.08290 0.80950 0.72750 0.38400
C 	C 	0.93750 0.05570 0.63470 0.35000
C 	C 	0.18990 0.42070 0.57310 -0.11700
C 	C 	0.24500 0.37600 0.60730 0.06000
H 	H 	0.29870 0.39020 0.61360 0.03500
C 	C 	0.22020 0.31000 0.63190 -0.13000
C 	C 	0.13790 0.29170 0.62400 0.06900
H 	H 	0.11920 0.24890 0.64080 0.03800
C 	C 	0.08340 0.33770 0.59070 -0.13400
C 	C 	0.10850 0.40330 0.56600 0.06800
H 	H 	0.06930 0.43490 0.54470 0.04000
C 	C 	0.21410 0.49280 0.54520 0.35000
C 	C 	0.27920 0.26160 0.66890 0.36800
C 	C 	0.99520 0.31610 0.58100 0.38500
C 	C 	0.52740 0.31650 0.82970 -0.10700
C 	C 	0.57160 0.26990 0.86750 0.06100
H 	H 	0.59620 0.21250 0.86290 0.04300
C 	C 	0.57860 0.30780 0.91060 -0.13000
C 	C 	0.55310 0.39230 0.91490 0.05300
H 	H 	0.55800 0.41790 0.94460 0.04500
C 	C 	0.51950 0.44050 0.87410 -0.10400
C 	C 	0.50480 0.40170 0.83360 0.04900
H 	H 	0.47900 0.43300 0.80780 0.03400
C 	C 	0.51130 0.27560 0.78590 0.30100
C 	C 	0.61560 0.26020 0.95470 0.40100
C 	C 	0.48960 0.53380 0.87990 0.33400
C 	C 	0.16530 0.23170 0.12240 -0.13100
C 	C 	0.17540 0.15310 0.09800 0.04700
H 	H 	0.11770 0.13730 0.10140 0.03800
C 	C 	0.27830 0.10030 0.06820 -0.10700
C 	C 	0.36090 0.12110 0.06390 0.06400
H 	H 	0.42600 0.08520 0.04500 0.03800
C 	C 	0.35250 0.19700 0.08750 -0.13900
C 	C 	0.25620 0.25040 0.11690 0.07500
H 	H 	0.25190 0.29940 0.13320 0.03700
C 	C 	0.06510 0.28280 0.15340 0.36400
C 	C 	0.28330 0.02160 0.04330 0.31300
C 	C 	0.82720 0.15910 0.11680 -0.04700
C 	C 	0.44920 0.21770 0.08030 0.39600
C 	C 	0.70770 0.27570 0.14120 0.08200
H 	H 	0.66600 0.32610 0.16000 -0.04200
C 	C 	0.76130 0.17100 0.08600 0.11700
C 	C 	0.85570 0.04960 0.04100 0.10100
H 	H 	0.86800 0.01150 0.01320 -0.00500
C 	C 	0.91010 0.08540 0.10760 0.15800
N 	N 	0.92620 0.02960 0.06760 -0.14700
N 	N 	0.97960 0.06660 0.13680 -0.32700
H 	H 	0.03130 0.02080 0.12950 0.18300
H 	H 	0.97210 0.10040 0.16250 0.17700
N 	N 	0.79390 0.22840 0.15268 -0.25900
N 	N 	0.68460 0.24670 0.10150 -0.29600
N 	N 	0.76960 0.11540 0.04740 -0.30000
N 	N 	0.30130 0.60720 0.42060 -0.30600
N 	N 	0.26210 0.74860 0.39510 -0.30600
N 	N 	0.42180 0.73900 0.34310 -0.23800
N 	N 	0.60020 0.56520 0.32270 -0.31900
H 	H 	0.64230 0.51500 0.31910 0.16200
H 	H 	0.62100 0.60300 0.30660 0.16100
N 	N 	0.47570 0.52090 0.37740 -0.15200
O 	O 	0.05950 0.81390 0.49839 -0.49500
O 	O 	0.13820 0.70160 0.53611 -0.47900
O 	O 	0.13110 0.73030 0.72750 -0.45500
O 	O 	0.06130 0.84930 0.76760 -0.40300
O 	O 	0.89020 0.10280 0.67550 -0.29400
O 	O 	0.94270 0.08400 0.58846 -0.44700
O 	O 	0.27310 0.52360 0.55940 -0.28500
O 	O 	0.17550 0.51450 0.50765 -0.45400
O 	O 	0.94430 0.36130 0.55147 -0.49700
O 	O 	0.97440 0.25300 0.60208 -0.47500
O 	O 	0.24980 0.20830 0.69380 -0.30800
O 	O 	0.35830 0.27670 0.67165 -0.47200
O 	O 	0.49020 0.57150 0.83620 -0.30000
O 	O 	0.46900 0.56720 0.92400 -0.45300
O 	O 	0.43460 0.31770 0.76710 -0.39500
O 	O 	0.55930 0.20110 0.77018 -0.38900
O 	O 	0.62200 0.30000 0.99361 -0.50000
O 	O 	0.63460 0.18490 0.95030 -0.47600
O 	O 	0.05950 0.33770 0.18700 -0.27500
O 	O 	0.98640 0.27080 0.14650 -0.47200
O 	O 	0.21310 0.99140 0.05740 -0.34500
O 	O 	0.36420 0.98550 0.00590 -0.40700
O 	O 	0.53360 0.16370 0.06840 -0.52100
O 	O 	0.43560 0.29590 0.08840 -0.45200
Zn	Zn	0.88995 0.20023 0.57995 1.21700
Zn	Zn	0.82694 0.38089 0.52218 1.21600
Zn	Zn	0.53104 0.78157 0.29135 1.17600
Zn	Zn	0.33380 0.88388 0.99117 1.21500
Zn	Zn	0.14416 0.72113 0.80149 1.19000
Zn	Zn	0.42975 0.68619 0.92865 1.21800
C 	C 	0.67360 0.32900 0.60470 0.11300
C 	C 	0.67620 0.21280 0.63680 0.08500
H 	H 	0.70100 0.15750 0.64370 -0.03700
C 	C 	0.57450 0.33880 0.63670 -0.04600
C 	C 	0.49760 0.41560 0.64670 0.16400
C 	C 	0.61590 0.46400 0.59100 0.11500
H 	H 	0.62710 0.50900 0.57350 -0.01300
C 	C 	0.94250 0.17060 0.41180 -0.15900
C 	C 	0.91580 0.20600 0.36770 0.09700
H 	H 	0.87740 0.26200 0.36960 0.03100
C 	C 	0.94590 0.15840 0.32100 -0.15600
C 	C 	0.99440 0.07290 0.32020 0.08600
H 	H 	0.01510 0.04030 0.28850 0.02800
C 	C 	0.01180 0.03620 0.36580 -0.14300
C 	C 	0.98630 0.08480 0.41120 0.08600
H 	H 	0.99810 0.06070 0.44210 0.03200
C 	C 	0.91310 0.22020 0.46280 0.39900
C 	C 	0.91710 0.19050 0.27250 0.38400
C 	C 	0.06250 0.94430 0.36530 0.35000
C 	C 	0.81010 0.57930 0.42690 -0.11700
C 	C 	0.75500 0.62400 0.39270 0.06000
H 	H 	0.70130 0.60980 0.38640 0.03500
C 	C 	0.77980 0.69000 0.36810 -0.13000
C 	C 	0.86210 0.70830 0.37600 0.06900
H 	H 	0.88080 0.75110 0.35920 0.03800
C 	C 	0.91660 0.66230 0.40930 -0.13400
C 	C 	0.89150 0.59670 0.43400 0.06800
H 	H 	0.93070 0.56510 0.45530 0.04000
C 	C 	0.78590 0.50720 0.45480 0.35000
C 	C 	0.72080 0.73840 0.33110 0.36800
C 	C 	0.00480 0.68390 0.41900 0.38500
C 	C 	0.47260 0.68350 0.17030 -0.10700
C 	C 	0.42840 0.73010 0.13250 0.06100
H 	H 	0.40380 0.78750 0.13710 0.04300
C 	C 	0.42140 0.69220 0.08940 -0.13000
C 	C 	0.44690 0.60770 0.08510 0.05300
H 	H 	0.44200 0.58210 0.05540 0.04500
C 	C 	0.48050 0.55950 0.12590 -0.10400
C 	C 	0.49520 0.59830 0.16640 0.04900
H 	H 	0.52100 0.56700 0.19220 0.03400
C 	C 	0.48870 0.72440 0.21410 0.30100
C 	C 	0.38440 0.73980 0.04530 0.40100
C 	C 	0.51040 0.46620 0.12010 0.33400
C 	C 	0.83470 0.76830 0.87760 -0.13100
C 	C 	0.82460 0.84690 0.90200 0.04700
H 	H 	0.88230 0.86270 0.89860 0.03800
C 	C 	0.72170 0.89970 0.93180 -0.10700
C 	C 	0.63910 0.87890 0.93610 0.06400
H 	H 	0.57400 0.91480 0.95500 0.03800
C 	C 	0.64750 0.80300 0.91250 -0.13900
C 	C 	0.74380 0.74960 0.88310 0.07500
H 	H 	0.74810 0.70060 0.86680 0.03700
C 	C 	0.93490 0.71720 0.84660 0.36400
C 	C 	0.71670 0.97840 0.95670 0.31300
C 	C 	0.17280 0.84090 0.88320 -0.04700
C 	C 	0.55080 0.78230 0.91970 0.39600
C 	C 	0.29230 0.72430 0.85880 0.08200
H 	H 	0.33400 0.67390 0.84000 -0.04200
C 	C 	0.23870 0.82900 0.91400 0.11700
C 	C 	0.14430 0.95040 0.95900 0.10100
H 	H 	0.13200 0.98850 0.98680 -0.00500
C 	C 	0.08990 0.91460 0.89240 0.15800
N 	N 	0.07380 0.97040 0.93240 -0.14700
N 	N 	0.02040 0.93340 0.86320 -0.32700
H 	H 	0.96870 0.97920 0.87050 0.18300
H 	H 	0.02790 0.89960 0.83750 0.17700
N 	N 	0.20610 0.77160 0.84732 -0.25900
N 	N 	0.31540 0.75330 0.89850 -0.29600
N 	N 	0.23040 0.88460 0.95260 -0.30000
N 	N 	0.69870 0.39280 0.57940 -0.30600
N 	N 	0.73790 0.25140 0.60490 -0.30600
N 	N 	0.57820 0.26100 0.65690 -0.23800
N 	N 	0.39980 0.43480 0.67730 -0.31900
H 	H 	0.35770 0.48500 0.68090 0.16200
H 	H 	0.37900 0.39700 0.69340 0.16100
N 	N 	0.52430 0.47910 0.62260 -0.15200
O 	O 	0.94050 0.18610 0.50161 -0.49500
O 	O 	0.86180 0.29840 0.46389 -0.47900
O 	O 	0.86890 0.26970 0.27250 -0.45500
O 	O 	0.93870 0.15070 0.23240 -0.40300
O 	O 	0.10980 0.89720 0.32450 -0.29400
O 	O 	0.05730 0.91600 0.41154 -0.44700
O 	O 	0.72690 0.47640 0.44060 -0.28500
O 	O 	0.82450 0.48550 0.49235 -0.45400
O 	O 	0.05570 0.63870 0.44853 -0.49700
O 	O 	0.02560 0.74700 0.39792 -0.47500
O 	O 	0.75020 0.79170 0.30620 -0.30800
O 	O 	0.64170 0.72330 0.32835 -0.47200
O 	O 	0.50980 0.42850 0.16380 -0.30000
O 	O 	0.53100 0.43280 0.07600 -0.45300
O 	O 	0.56540 0.68230 0.23290 -0.39500
O 	O 	0.44070 0.79890 0.22982 -0.38900
O 	O 	0.37800 0.70000 0.00639 -0.50000
O 	O 	0.36540 0.81510 0.04970 -0.47600
O 	O 	0.94050 0.66230 0.81300 -0.27500
O 	O 	0.01360 0.72920 0.85350 -0.47200
O 	O 	0.78690 0.00860 0.94260 -0.34500
O 	O 	0.63580 0.01450 0.99410 -0.40700
O 	O 	0.46640 0.83630 0.93160 -0.52100
O 	O 	0.56440 0.70410 0.91160 -0.45200
