data_crystal

_cell_length_a 37.68980
_cell_length_b 37.68980
_cell_length_c 14.25760
_cell_angle_alpha 90.00000
_cell_angle_beta  90.00000
_cell_angle_gamma 90.00000

_symmetry_space_group_name_	'P 1'
_symmetry_space_group_name_H-M	'P 1'

loop_
_symmetry_equiv_pos_as_xyz
  x,y,z

loop_
_atom_site_label
_atom_site_type_symbol
_atom_site_fract_x
_atom_site_fract_y
_atom_site_fract_z
_atom_site_charge
Cu	Cu	0.74181 0.71656 0.07992 0.71100
Cu	Cu	0.74108 0.78402 0.04424 0.70900
I 	I 	0.68093 0.75016 0.09254 -0.64800
I 	I 	0.79855 0.75338 0.13481 -0.64600
Mn	Mn	0.75107 0.00104 0.35318 1.35400
Mo	Mo	0.70374 0.03959 0.18231 1.02700
Mo	Mo	0.66257 0.00622 0.37134 1.02000
Mo	Mo	0.70948 0.96718 0.54164 1.03100
Mo	Mo	0.79225 0.03386 0.16307 1.02500
Mo	Mo	0.83961 0.99571 0.33460 1.02300
Mo	Mo	0.79781 0.96294 0.52487 1.02600
O 	O 	0.71086 0.98806 0.27290 -0.54600
O 	O 	0.74987 0.95640 0.41920 -0.54900
O 	O 	0.75137 0.04629 0.28740 -0.55300
O 	O 	0.71531 0.01839 0.45080 -0.53900
O 	O 	0.79210 0.01426 0.43310 -0.55100
O 	O 	0.67716 0.04643 0.29870 -0.60300
O 	O 	0.74474 0.01941 0.12570 -0.59800
O 	O 	0.67719 0.96473 0.43750 -0.61100
O 	O 	0.82378 0.95685 0.40800 -0.60900
O 	O 	0.75570 0.98173 0.57970 -0.60700
O 	O 	0.78732 0.98368 0.25550 -0.54100
O 	O 	0.82499 0.03723 0.26740 -0.60500
N 	N 	0.73710 0.83090 0.10860 -0.26000
N 	N 	0.75960 0.17240 0.59020 -0.25300
C 	C 	0.75590 0.07739 0.34360 0.16900
H 	H 	0.73620 0.09400 0.32970 -0.05600
H 	H 	0.77830 0.08910 0.32520 -0.05400
C 	C 	0.75670 0.07050 0.45130 -0.21500
C 	C 	0.71140 0.95330 0.22880 0.15100
H 	H 	0.71050 0.95620 0.15980 -0.05600
H 	H 	0.69010 0.93980 0.24830 -0.05900
C 	C 	0.77920 0.94880 0.21820 0.15600
H 	H 	0.79950 0.93280 0.23180 -0.05600
H 	H 	0.77710 0.95070 0.14920 -0.05600
C 	C 	0.78880 0.04840 0.47710 0.17500
H 	H 	0.81030 0.06240 0.46200 -0.06200
H 	H 	0.78850 0.04480 0.54590 -0.06100
C 	C 	0.72310 0.05340 0.48880 0.16000
H 	H 	0.72520 0.05150 0.55780 -0.05400
H 	H 	0.70290 0.06930 0.47510 -0.05600
C 	C 	0.74560 0.93190 0.25630 -0.19400
C 	C 	0.74630 0.92430 0.36180 0.14500
H 	H 	0.72410 0.91190 0.37950 -0.04900
H 	H 	0.76640 0.90820 0.37570 -0.05100
C 	C 	0.75890 0.10680 0.49740 0.14500
C 	C 	0.73590 0.86280 0.06040 0.05700
H 	H 	0.73370 0.86270 0.99400 -0.02800
C 	C 	0.74080 0.89630 0.20630 0.12600
C 	C 	0.73760 0.89370 0.10640 -0.17600
H 	H 	0.73670 0.91510 0.07100 0.05600
C 	C 	0.73570 0.16510 0.52320 0.07000
H 	H 	0.71830 0.18240 0.50820 -0.02700
C 	C 	0.78450 0.11510 0.56380 -0.19200
H 	H 	0.80180 0.09790 0.58070 0.06100
C 	C 	0.73560 0.13290 0.47470 -0.19400
H 	H 	0.71910 0.12920 0.42540 0.06900
C 	C 	0.78490 0.14820 0.60560 0.07700
H 	H 	0.80390 0.15400 0.64680 -0.04100
C 	C 	0.73950 0.83280 0.19710 0.10000
H 	H 	0.74020 0.81110 0.23080 -0.04500
C 	C 	0.74130 0.86420 0.24950 -0.19800
H 	H 	0.74280 0.86300 0.31600 0.06900
Cu	Cu	0.25819 0.28344 0.57992 0.71000
Cu	Cu	0.25892 0.21598 0.54424 0.70800
I 	I 	0.31907 0.24984 0.59254 -0.64900
I 	I 	0.20145 0.24662 0.63481 -0.64700
Mn	Mn	0.24893 0.99896 0.85318 1.35300
Mo	Mo	0.29626 0.96041 0.68231 1.02600
Mo	Mo	0.33743 0.99378 0.87134 1.01900
Mo	Mo	0.29052 0.03282 0.04164 1.02900
Mo	Mo	0.20775 0.96614 0.66307 1.02400
Mo	Mo	0.16039 0.00429 0.83460 1.02200
Mo	Mo	0.20219 0.03706 0.02487 1.02500
O 	O 	0.28914 0.01194 0.77290 -0.54700
O 	O 	0.25013 0.04360 0.91920 -0.55000
O 	O 	0.24863 0.95371 0.78740 -0.55400
O 	O 	0.28469 0.98161 0.95080 -0.53900
O 	O 	0.20790 0.98574 0.93310 -0.55100
O 	O 	0.32284 0.95357 0.79870 -0.60300
O 	O 	0.25526 0.98059 0.62570 -0.59800
O 	O 	0.32281 0.03527 0.93750 -0.61100
O 	O 	0.17622 0.04315 0.90800 -0.60900
O 	O 	0.24430 0.01827 0.07970 -0.60700
O 	O 	0.21268 0.01632 0.75550 -0.54100
O 	O 	0.17501 0.96277 0.76740 -0.60500
N 	N 	0.26290 0.16910 0.60860 -0.26000
N 	N 	0.24040 0.82760 0.09020 -0.25300
C 	C 	0.24410 0.92261 0.84360 0.17000
H 	H 	0.26380 0.90600 0.82970 -0.05600
H 	H 	0.22170 0.91090 0.82520 -0.05400
C 	C 	0.24330 0.92950 0.95130 -0.21600
C 	C 	0.28860 0.04670 0.72880 0.15100
H 	H 	0.28950 0.04380 0.65980 -0.05600
H 	H 	0.30990 0.06020 0.74830 -0.05900
C 	C 	0.22080 0.05120 0.71820 0.15600
H 	H 	0.20050 0.06720 0.73180 -0.05600
H 	H 	0.22290 0.04930 0.64920 -0.05600
C 	C 	0.21120 0.95160 0.97710 0.17600
H 	H 	0.18970 0.93760 0.96200 -0.06200
H 	H 	0.21150 0.95520 0.04590 -0.06100
C 	C 	0.27690 0.94660 0.98880 0.16100
H 	H 	0.27480 0.94850 0.05780 -0.05500
H 	H 	0.29710 0.93070 0.97510 -0.05600
C 	C 	0.25440 0.06810 0.75630 -0.19400
C 	C 	0.25370 0.07570 0.86180 0.14500
H 	H 	0.27590 0.08810 0.87950 -0.04900
H 	H 	0.23360 0.09180 0.87570 -0.05100
C 	C 	0.24110 0.89320 0.99740 0.14600
C 	C 	0.26410 0.13720 0.56040 0.05700
H 	H 	0.26630 0.13730 0.49400 -0.02800
C 	C 	0.25920 0.10370 0.70630 0.12600
C 	C 	0.26240 0.10630 0.60640 -0.17600
H 	H 	0.26330 0.08490 0.57100 0.05600
C 	C 	0.26430 0.83490 0.02320 0.06900
H 	H 	0.28170 0.81760 0.00820 -0.02700
C 	C 	0.21550 0.88490 0.06380 -0.19300
H 	H 	0.19820 0.90210 0.08070 0.06100
C 	C 	0.26440 0.86710 0.97470 -0.19200
H 	H 	0.28090 0.87080 0.92540 0.06900
C 	C 	0.21510 0.85180 0.10560 0.07800
H 	H 	0.19610 0.84600 0.14680 -0.04100
C 	C 	0.26050 0.16720 0.69710 0.09900
H 	H 	0.25980 0.18890 0.73080 -0.04500
C 	C 	0.25870 0.13580 0.74950 -0.19800
H 	H 	0.25720 0.13700 0.81600 0.06900
Cu	Cu	0.78344 0.24181 0.82992 0.71000
Cu	Cu	0.71598 0.24108 0.79424 0.70800
I 	I 	0.74984 0.18093 0.84254 -0.64900
I 	I 	0.74662 0.29855 0.88481 -0.64800
Mn	Mn	0.49896 0.25107 0.10318 1.35300
Mo	Mo	0.46041 0.20374 0.93231 1.02600
Mo	Mo	0.49378 0.16257 0.12134 1.01900
Mo	Mo	0.53282 0.20948 0.29164 1.03000
Mo	Mo	0.46614 0.29225 0.91307 1.02400
Mo	Mo	0.50429 0.33961 0.08460 1.02200
Mo	Mo	0.53706 0.29781 0.27487 1.02500
O 	O 	0.51194 0.21086 0.02290 -0.54700
O 	O 	0.54360 0.24987 0.16920 -0.55000
O 	O 	0.45371 0.25137 0.03740 -0.55400
O 	O 	0.48161 0.21531 0.20080 -0.53900
O 	O 	0.48574 0.29210 0.18310 -0.55100
O 	O 	0.45357 0.17716 0.04870 -0.60300
O 	O 	0.48059 0.24474 0.87570 -0.59800
O 	O 	0.53527 0.17719 0.18750 -0.61100
O 	O 	0.54315 0.32378 0.15800 -0.60900
O 	O 	0.51827 0.25570 0.32970 -0.60700
O 	O 	0.51632 0.28732 0.00550 -0.54000
O 	O 	0.46277 0.32499 0.01740 -0.60500
N 	N 	0.66910 0.23710 0.85860 -0.26000
N 	N 	0.32760 0.25960 0.34020 -0.25300
C 	C 	0.42261 0.25590 0.09360 0.16900
H 	H 	0.40600 0.23620 0.07970 -0.05600
H 	H 	0.41090 0.27830 0.07520 -0.05400
C 	C 	0.42950 0.25670 0.20130 -0.21500
C 	C 	0.54670 0.21140 0.97880 0.14800
H 	H 	0.54380 0.21050 0.90980 -0.05500
H 	H 	0.56020 0.19010 0.99830 -0.05800
C 	C 	0.55120 0.27920 0.96820 0.15300
H 	H 	0.56720 0.29950 0.98180 -0.05600
H 	H 	0.54930 0.27710 0.89920 -0.05500
C 	C 	0.45160 0.28880 0.22710 0.17500
H 	H 	0.43760 0.31030 0.21200 -0.06200
H 	H 	0.45520 0.28850 0.29590 -0.06100
C 	C 	0.44660 0.22310 0.23880 0.16000
H 	H 	0.44850 0.22520 0.30780 -0.05400
H 	H 	0.43070 0.20290 0.22510 -0.05600
C 	C 	0.56810 0.24560 0.00630 -0.19100
C 	C 	0.57570 0.24630 0.11180 0.14300
H 	H 	0.58810 0.22410 0.12950 -0.04900
H 	H 	0.59180 0.26640 0.12570 -0.05000
C 	C 	0.39320 0.25890 0.24740 0.14500
C 	C 	0.63720 0.23590 0.81040 0.05600
H 	H 	0.63730 0.23370 0.74400 -0.02800
C 	C 	0.60370 0.24080 0.95630 0.12500
C 	C 	0.60630 0.23760 0.85640 -0.17500
H 	H 	0.58490 0.23670 0.82100 0.05500
C 	C 	0.33490 0.23570 0.27320 0.07000
H 	H 	0.31760 0.21830 0.25820 -0.02700
C 	C 	0.38490 0.28450 0.31380 -0.19200
H 	H 	0.40210 0.30180 0.33070 0.06100
C 	C 	0.36710 0.23560 0.22470 -0.19400
H 	H 	0.37080 0.21910 0.17540 0.06900
C 	C 	0.35180 0.28490 0.35560 0.07700
H 	H 	0.34600 0.30390 0.39680 -0.04100
C 	C 	0.66720 0.23950 0.94710 0.10000
H 	H 	0.68890 0.24020 0.98080 -0.04500
C 	C 	0.63580 0.24130 0.99950 -0.20000
H 	H 	0.63700 0.24280 0.06600 0.07100
Cu	Cu	0.21656 0.75819 0.32992 0.71000
Cu	Cu	0.28402 0.75892 0.29424 0.70800
I 	I 	0.25016 0.81907 0.34254 -0.64800
I 	I 	0.25338 0.70145 0.38481 -0.64700
Mn	Mn	0.50104 0.74893 0.60318 1.35300
Mo	Mo	0.53959 0.79626 0.43231 1.02600
Mo	Mo	0.50622 0.83743 0.62134 1.01900
Mo	Mo	0.46718 0.79052 0.79164 1.03000
Mo	Mo	0.53386 0.70775 0.41307 1.02400
Mo	Mo	0.49571 0.66039 0.58460 1.02100
Mo	Mo	0.46294 0.70219 0.77487 1.02500
O 	O 	0.48806 0.78914 0.52290 -0.54800
O 	O 	0.45640 0.75013 0.66920 -0.55000
O 	O 	0.54629 0.74863 0.53740 -0.55400
O 	O 	0.51839 0.78469 0.70080 -0.53900
O 	O 	0.51426 0.70790 0.68310 -0.55100
O 	O 	0.54643 0.82284 0.54870 -0.60300
O 	O 	0.51941 0.75526 0.37570 -0.59800
O 	O 	0.46473 0.82281 0.68750 -0.61100
O 	O 	0.45685 0.67622 0.65800 -0.60900
O 	O 	0.48173 0.74430 0.82970 -0.60700
O 	O 	0.48368 0.71268 0.50550 -0.54100
O 	O 	0.53723 0.67501 0.51740 -0.60500
N 	N 	0.33090 0.76290 0.35860 -0.26000
N 	N 	0.67240 0.74040 0.84020 -0.25300
C 	C 	0.57739 0.74410 0.59360 0.16900
H 	H 	0.59400 0.76380 0.57970 -0.05600
H 	H 	0.58910 0.72170 0.57520 -0.05400
C 	C 	0.57050 0.74330 0.70130 -0.21500
C 	C 	0.45330 0.78860 0.47880 0.15100
H 	H 	0.45620 0.78950 0.40980 -0.05600
H 	H 	0.43980 0.80990 0.49830 -0.05900
C 	C 	0.44880 0.72080 0.46820 0.15600
H 	H 	0.43280 0.70050 0.48180 -0.05600
H 	H 	0.45070 0.72290 0.39920 -0.05600
C 	C 	0.54840 0.71120 0.72710 0.17500
H 	H 	0.56240 0.68970 0.71200 -0.06200
H 	H 	0.54480 0.71150 0.79590 -0.06100
C 	C 	0.55340 0.77690 0.73880 0.16000
H 	H 	0.55150 0.77480 0.80780 -0.05400
H 	H 	0.56930 0.79710 0.72510 -0.05600
C 	C 	0.43190 0.75440 0.50630 -0.19400
C 	C 	0.42430 0.75370 0.61180 0.14500
H 	H 	0.41190 0.77590 0.62950 -0.04900
H 	H 	0.40820 0.73360 0.62570 -0.05100
C 	C 	0.60680 0.74110 0.74740 0.14500
C 	C 	0.36280 0.76410 0.31040 0.05700
H 	H 	0.36270 0.76630 0.24400 -0.02800
C 	C 	0.39630 0.75920 0.45630 0.12600
C 	C 	0.39370 0.76240 0.35640 -0.17600
H 	H 	0.41510 0.76330 0.32100 0.05600
C 	C 	0.66510 0.76430 0.77320 0.07000
H 	H 	0.68240 0.78170 0.75820 -0.02700
C 	C 	0.61510 0.71550 0.81380 -0.19200
H 	H 	0.59790 0.69820 0.83070 0.06100
C 	C 	0.63290 0.76440 0.72470 -0.19400
H 	H 	0.62920 0.78090 0.67540 0.06900
C 	C 	0.64820 0.71510 0.85560 0.07700
H 	H 	0.65400 0.69610 0.89680 -0.04100
C 	C 	0.33280 0.76050 0.44710 0.10000
H 	H 	0.31110 0.75980 0.48080 -0.04500
C 	C 	0.36420 0.75870 0.49950 -0.19800
H 	H 	0.36300 0.75720 0.56600 0.06900
Cu	Cu	0.75819 0.21656 0.67008 0.71000
Cu	Cu	0.75892 0.28402 0.70576 0.70800
I 	I 	0.81907 0.25016 0.65746 -0.64800
I 	I 	0.70145 0.25338 0.61519 -0.64700
Mn	Mn	0.74893 0.50104 0.39682 1.35300
Mo	Mo	0.79626 0.53959 0.56769 1.02600
Mo	Mo	0.83743 0.50622 0.37866 1.01900
Mo	Mo	0.79052 0.46718 0.20836 1.03000
Mo	Mo	0.70775 0.53386 0.58693 1.02400
Mo	Mo	0.66039 0.49571 0.41540 1.02100
Mo	Mo	0.70219 0.46294 0.22513 1.02500
O 	O 	0.78914 0.48806 0.47710 -0.54800
O 	O 	0.75013 0.45640 0.33080 -0.55000
O 	O 	0.74863 0.54629 0.46260 -0.55400
O 	O 	0.78469 0.51839 0.29920 -0.53900
O 	O 	0.70790 0.51426 0.31690 -0.55100
O 	O 	0.82284 0.54643 0.45130 -0.60300
O 	O 	0.75526 0.51941 0.62430 -0.59800
O 	O 	0.82281 0.46473 0.31250 -0.61100
O 	O 	0.67622 0.45685 0.34200 -0.60900
O 	O 	0.74430 0.48173 0.17030 -0.60700
O 	O 	0.71268 0.48368 0.49450 -0.54100
O 	O 	0.67501 0.53723 0.48260 -0.60500
N 	N 	0.76290 0.33090 0.64140 -0.26000
N 	N 	0.74040 0.67240 0.15980 -0.25300
C 	C 	0.74410 0.57739 0.40640 0.16900
H 	H 	0.76380 0.59400 0.42030 -0.05600
H 	H 	0.72170 0.58910 0.42480 -0.05400
C 	C 	0.74330 0.57050 0.29870 -0.21500
C 	C 	0.78860 0.45330 0.52120 0.15100
H 	H 	0.78950 0.45620 0.59020 -0.05600
H 	H 	0.80990 0.43980 0.50170 -0.05900
C 	C 	0.72080 0.44880 0.53180 0.15600
H 	H 	0.70050 0.43280 0.51820 -0.05600
H 	H 	0.72290 0.45070 0.60080 -0.05600
C 	C 	0.71120 0.54840 0.27290 0.17500
H 	H 	0.68970 0.56240 0.28800 -0.06200
H 	H 	0.71150 0.54480 0.20410 -0.06100
C 	C 	0.77690 0.55340 0.26120 0.16000
H 	H 	0.77480 0.55150 0.19220 -0.05400
H 	H 	0.79710 0.56930 0.27490 -0.05600
C 	C 	0.75440 0.43190 0.49370 -0.19400
C 	C 	0.75370 0.42430 0.38820 0.14500
H 	H 	0.77590 0.41190 0.37050 -0.04900
H 	H 	0.73360 0.40820 0.37430 -0.05100
C 	C 	0.74110 0.60680 0.25260 0.14500
C 	C 	0.76410 0.36280 0.68960 0.05700
H 	H 	0.76630 0.36270 0.75600 -0.02800
C 	C 	0.75920 0.39630 0.54370 0.12600
C 	C 	0.76240 0.39370 0.64360 -0.17600
H 	H 	0.76330 0.41510 0.67900 0.05600
C 	C 	0.76430 0.66510 0.22680 0.07000
H 	H 	0.78170 0.68240 0.24180 -0.02700
C 	C 	0.71550 0.61510 0.18620 -0.19200
H 	H 	0.69820 0.59790 0.16930 0.06100
C 	C 	0.76440 0.63290 0.27530 -0.19400
H 	H 	0.78090 0.62920 0.32460 0.06900
C 	C 	0.71510 0.64820 0.14440 0.07700
H 	H 	0.69610 0.65400 0.10320 -0.04100
C 	C 	0.76050 0.33280 0.55290 0.10000
H 	H 	0.75980 0.31110 0.51920 -0.04500
C 	C 	0.75870 0.36420 0.50050 -0.19800
H 	H 	0.75720 0.36300 0.43400 0.06900
Cu	Cu	0.24181 0.78344 0.17008 0.71000
Cu	Cu	0.24108 0.71598 0.20576 0.70800
I 	I 	0.18093 0.74984 0.15746 -0.64900
I 	I 	0.29855 0.74662 0.11519 -0.64800
Mn	Mn	0.25107 0.49896 0.89682 1.35300
Mo	Mo	0.20374 0.46041 0.06769 1.02600
Mo	Mo	0.16257 0.49378 0.87866 1.01900
Mo	Mo	0.20948 0.53282 0.70836 1.03000
Mo	Mo	0.29225 0.46614 0.08693 1.02400
Mo	Mo	0.33961 0.50429 0.91540 1.02200
Mo	Mo	0.29781 0.53706 0.72513 1.02500
O 	O 	0.21086 0.51194 0.97710 -0.54700
O 	O 	0.24987 0.54360 0.83080 -0.55000
O 	O 	0.25137 0.45371 0.96260 -0.55400
O 	O 	0.21531 0.48161 0.79920 -0.53900
O 	O 	0.29210 0.48574 0.81690 -0.55100
O 	O 	0.17716 0.45357 0.95130 -0.60300
O 	O 	0.24474 0.48059 0.12430 -0.59800
O 	O 	0.17719 0.53527 0.81250 -0.61100
O 	O 	0.32378 0.54315 0.84200 -0.60900
O 	O 	0.25570 0.51827 0.67030 -0.60700
O 	O 	0.28732 0.51632 0.99450 -0.54000
O 	O 	0.32499 0.46277 0.98260 -0.60500
N 	N 	0.23710 0.66910 0.14140 -0.26000
N 	N 	0.25960 0.32760 0.65980 -0.25300
C 	C 	0.25590 0.42261 0.90640 0.16900
H 	H 	0.23620 0.40600 0.92030 -0.05600
H 	H 	0.27830 0.41090 0.92480 -0.05400
C 	C 	0.25670 0.42950 0.79870 -0.21500
C 	C 	0.21140 0.54670 0.02120 0.14800
H 	H 	0.21050 0.54380 0.09020 -0.05500
H 	H 	0.19010 0.56020 0.00170 -0.05800
C 	C 	0.27920 0.55120 0.03180 0.15300
H 	H 	0.29950 0.56720 0.01820 -0.05600
H 	H 	0.27710 0.54930 0.10080 -0.05500
C 	C 	0.28880 0.45160 0.77290 0.17500
H 	H 	0.31030 0.43760 0.78800 -0.06200
H 	H 	0.28850 0.45520 0.70410 -0.06100
C 	C 	0.22310 0.44660 0.76120 0.16000
H 	H 	0.22520 0.44850 0.69220 -0.05400
H 	H 	0.20290 0.43070 0.77490 -0.05600
C 	C 	0.24560 0.56810 0.99370 -0.19100
C 	C 	0.24630 0.57570 0.88820 0.14300
H 	H 	0.22410 0.58810 0.87050 -0.04900
H 	H 	0.26640 0.59180 0.87430 -0.05000
C 	C 	0.25890 0.39320 0.75260 0.14500
C 	C 	0.23590 0.63720 0.18960 0.05600
H 	H 	0.23370 0.63730 0.25600 -0.02800
C 	C 	0.24080 0.60370 0.04370 0.12500
C 	C 	0.23760 0.60630 0.14360 -0.17500
H 	H 	0.23670 0.58490 0.17900 0.05500
C 	C 	0.23570 0.33490 0.72680 0.07000
H 	H 	0.21830 0.31760 0.74180 -0.02700
C 	C 	0.28450 0.38490 0.68620 -0.19200
H 	H 	0.30180 0.40210 0.66930 0.06100
C 	C 	0.23560 0.36710 0.77530 -0.19400
H 	H 	0.21910 0.37080 0.82460 0.06900
C 	C 	0.28490 0.35180 0.64440 0.07700
H 	H 	0.30390 0.34600 0.60320 -0.04100
C 	C 	0.23950 0.66720 0.05290 0.10000
H 	H 	0.24020 0.68890 0.01920 -0.04500
C 	C 	0.24130 0.63580 0.00050 -0.20000
H 	H 	0.24280 0.63700 0.93400 0.07100
Cu	Cu	0.71656 0.74181 0.92008 0.71000
Cu	Cu	0.78402 0.74108 0.95576 0.70800
I 	I 	0.75016 0.68093 0.90746 -0.64900
I 	I 	0.75338 0.79855 0.86519 -0.64700
Mn	Mn	0.00104 0.75107 0.64682 1.35300
Mo	Mo	0.03959 0.70374 0.81769 1.02600
Mo	Mo	0.00622 0.66257 0.62866 1.01900
Mo	Mo	0.96718 0.70948 0.45836 1.03000
Mo	Mo	0.03386 0.79225 0.83693 1.02400
Mo	Mo	0.99571 0.83961 0.66540 1.02200
Mo	Mo	0.96294 0.79781 0.47513 1.02500
O 	O 	0.98806 0.71086 0.72710 -0.54700
O 	O 	0.95640 0.74987 0.58080 -0.55000
O 	O 	0.04629 0.75137 0.71260 -0.55400
O 	O 	0.01839 0.71531 0.54920 -0.53900
O 	O 	0.01426 0.79210 0.56690 -0.55100
O 	O 	0.04643 0.67716 0.70130 -0.60300
O 	O 	0.01941 0.74474 0.87430 -0.59800
O 	O 	0.96473 0.67719 0.56250 -0.61100
O 	O 	0.95685 0.82378 0.59200 -0.60900
O 	O 	0.98173 0.75570 0.42030 -0.60700
O 	O 	0.98368 0.78732 0.74450 -0.54100
O 	O 	0.03723 0.82499 0.73260 -0.60500
N 	N 	0.83090 0.73710 0.89140 -0.26000
N 	N 	0.17240 0.75960 0.40980 -0.25300
C 	C 	0.07739 0.75590 0.65640 0.16900
H 	H 	0.09400 0.73620 0.67030 -0.05600
H 	H 	0.08910 0.77830 0.67480 -0.05400
C 	C 	0.07050 0.75670 0.54870 -0.21500
C 	C 	0.95330 0.71140 0.77120 0.15100
H 	H 	0.95620 0.71050 0.84020 -0.05600
H 	H 	0.93980 0.69010 0.75170 -0.05900
C 	C 	0.94880 0.77920 0.78180 0.15600
H 	H 	0.93280 0.79950 0.76820 -0.05600
H 	H 	0.95070 0.77710 0.85080 -0.05600
C 	C 	0.04840 0.78880 0.52290 0.17500
H 	H 	0.06240 0.81030 0.53800 -0.06200
H 	H 	0.04480 0.78850 0.45410 -0.06100
C 	C 	0.05340 0.72310 0.51120 0.16000
H 	H 	0.05150 0.72520 0.44220 -0.05400
H 	H 	0.06930 0.70290 0.52490 -0.05600
C 	C 	0.93190 0.74560 0.74370 -0.19400
C 	C 	0.92430 0.74630 0.63820 0.14500
H 	H 	0.91190 0.72410 0.62050 -0.04900
H 	H 	0.90820 0.76640 0.62430 -0.05100
C 	C 	0.10680 0.75890 0.50260 0.14500
C 	C 	0.86280 0.73590 0.93960 0.05700
H 	H 	0.86270 0.73370 0.00600 -0.02800
C 	C 	0.89630 0.74080 0.79370 0.12600
C 	C 	0.89370 0.73760 0.89360 -0.17600
H 	H 	0.91510 0.73670 0.92900 0.05600
C 	C 	0.16510 0.73570 0.47680 0.07000
H 	H 	0.18240 0.71830 0.49180 -0.02700
C 	C 	0.11510 0.78450 0.43620 -0.19200
H 	H 	0.09790 0.80180 0.41930 0.06100
C 	C 	0.13290 0.73560 0.52530 -0.19400
H 	H 	0.12920 0.71910 0.57460 0.06900
C 	C 	0.14820 0.78490 0.39440 0.07700
H 	H 	0.15400 0.80390 0.35320 -0.04100
C 	C 	0.83280 0.73950 0.80290 0.10000
H 	H 	0.81110 0.74020 0.76920 -0.04500
C 	C 	0.86420 0.74130 0.75050 -0.19800
H 	H 	0.86300 0.74280 0.68400 0.06900
Cu	Cu	0.28344 0.25819 0.42008 0.71000
Cu	Cu	0.21598 0.25892 0.45576 0.70800
I 	I 	0.24984 0.31907 0.40746 -0.64900
I 	I 	0.24662 0.20145 0.36519 -0.64700
Mn	Mn	0.99896 0.24893 0.14682 1.35300
Mo	Mo	0.96041 0.29626 0.31769 1.02600
Mo	Mo	0.99378 0.33743 0.12866 1.01900
Mo	Mo	0.03282 0.29052 0.95836 1.02900
Mo	Mo	0.96614 0.20775 0.33693 1.02400
Mo	Mo	0.00429 0.16039 0.16540 1.02200
Mo	Mo	0.03706 0.20219 0.97513 1.02500
O 	O 	0.01194 0.28914 0.22710 -0.54700
O 	O 	0.04360 0.25013 0.08080 -0.55000
O 	O 	0.95371 0.24863 0.21260 -0.55400
O 	O 	0.98161 0.28469 0.04920 -0.53900
O 	O 	0.98574 0.20790 0.06690 -0.55100
O 	O 	0.95357 0.32284 0.20130 -0.60300
O 	O 	0.98059 0.25526 0.37430 -0.59800
O 	O 	0.03527 0.32281 0.06250 -0.61100
O 	O 	0.04315 0.17622 0.09200 -0.60900
O 	O 	0.01827 0.24430 0.92030 -0.60700
O 	O 	0.01632 0.21268 0.24450 -0.54100
O 	O 	0.96277 0.17501 0.23260 -0.60500
N 	N 	0.16910 0.26290 0.39140 -0.26000
N 	N 	0.82760 0.24040 0.90980 -0.25300
C 	C 	0.92261 0.24410 0.15640 0.17000
H 	H 	0.90600 0.26380 0.17030 -0.05600
H 	H 	0.91090 0.22170 0.17480 -0.05400
C 	C 	0.92950 0.24330 0.04870 -0.21600
C 	C 	0.04670 0.28860 0.27120 0.15100
H 	H 	0.04380 0.28950 0.34020 -0.05600
H 	H 	0.06020 0.30990 0.25170 -0.05900
C 	C 	0.05120 0.22080 0.28180 0.15600
H 	H 	0.06720 0.20050 0.26820 -0.05600
H 	H 	0.04930 0.22290 0.35080 -0.05600
C 	C 	0.95160 0.21120 0.02290 0.17600
H 	H 	0.93760 0.18970 0.03800 -0.06200
H 	H 	0.95520 0.21150 0.95410 -0.06100
C 	C 	0.94660 0.27690 0.01120 0.16100
H 	H 	0.94850 0.27480 0.94220 -0.05500
H 	H 	0.93070 0.29710 0.02490 -0.05600
C 	C 	0.06810 0.25440 0.24370 -0.19400
C 	C 	0.07570 0.25370 0.13820 0.14500
H 	H 	0.08810 0.27590 0.12050 -0.04900
H 	H 	0.09180 0.23360 0.12430 -0.05100
C 	C 	0.89320 0.24110 0.00260 0.14600
C 	C 	0.13720 0.26410 0.43960 0.05700
H 	H 	0.13730 0.26630 0.50600 -0.02800
C 	C 	0.10370 0.25920 0.29370 0.12600
C 	C 	0.10630 0.26240 0.39360 -0.17600
H 	H 	0.08490 0.26330 0.42900 0.05600
C 	C 	0.83490 0.26430 0.97680 0.06900
H 	H 	0.81760 0.28170 0.99180 -0.02700
C 	C 	0.88490 0.21550 0.93620 -0.19300
H 	H 	0.90210 0.19820 0.91930 0.06100
C 	C 	0.86710 0.26440 0.02530 -0.19200
H 	H 	0.87080 0.28090 0.07460 0.06900
C 	C 	0.85180 0.21510 0.89440 0.07800
H 	H 	0.84600 0.19610 0.85320 -0.04100
C 	C 	0.16720 0.26050 0.30290 0.09900
H 	H 	0.18890 0.25980 0.26920 -0.04500
C 	C 	0.13580 0.25870 0.25050 -0.19800
H 	H 	0.13700 0.25720 0.18400 0.06900
