data_crystal

_cell_length_a 8.64200
_cell_length_b 8.71900
_cell_length_c 12.04900
_cell_angle_alpha 85.14400
_cell_angle_beta  80.75700
_cell_angle_gamma 80.71000

_symmetry_space_group_name_	'P 1'
_symmetry_space_group_name_H-M	'P 1'

loop_
_symmetry_equiv_pos_as_xyz
  x,y,z

loop_
_atom_site_label
_atom_site_type_symbol
_atom_site_fract_x
_atom_site_fract_y
_atom_site_fract_z
_atom_site_charge
P 	P 	0.16336 0.64443 0.74140 0.69500
P 	P 	0.22471 0.05180 0.93730 0.70400
P 	P 	0.04307 0.10871 0.63736 0.66700
P 	P 	0.53495 0.15429 0.65681 0.69900
Be	Be	0.97820 0.91980 0.84140 1.47900
Be	Be	0.81090 0.17390 0.47260 1.48100
Be	Be	0.22250 0.29790 0.75470 1.48200
O 	O 	0.01490 0.74210 0.79900 -0.52800
O 	O 	0.15350 0.47700 0.77530 -0.51700
O 	O 	0.18830 0.67040 0.61470 -0.52800
O 	O 	0.31000 0.68610 0.78740 -0.44000
H 	H 	0.31840 0.77770 0.76990 0.26800
O 	O 	0.22310 0.20910 0.87650 -0.58300
O 	O 	0.40200 0.96550 0.92460 -0.47900
H 	H 	0.40460 0.87910 0.95760 0.31800
O 	O 	0.13990 0.94580 0.88390 -0.60200
O 	O 	0.17130 0.06320 0.06190 -0.57800
O 	O 	0.11180 0.23940 0.67730 -0.54400
O 	O 	0.93140 0.03890 0.73440 -0.52300
O 	O 	0.18010 0.98170 0.59460 -0.56500
O 	O 	0.95080 0.17790 0.54330 -0.53700
O 	O 	0.40330 0.28640 0.68560 -0.52500
O 	O 	0.46920 0.00380 0.64230 -0.44800
H 	H 	0.41140 0.98100 0.70020 0.26300
O 	O 	0.62850 0.11190 0.75760 -0.45300
H 	H 	0.56830 0.08650 0.81350 0.30700
O 	O 	0.64100 0.20090 0.55370 -0.51100
P 	P 	0.83664 0.35557 0.25860 0.69400
P 	P 	0.77529 0.94820 0.06270 0.70300
P 	P 	0.95693 0.89129 0.36264 0.66600
P 	P 	0.46505 0.84571 0.34319 0.69800
Be	Be	0.02180 0.08020 0.15860 1.47900
Be	Be	0.18910 0.82610 0.52740 1.48100
Be	Be	0.77750 0.70210 0.24530 1.48200
O 	O 	0.98510 0.25790 0.20100 -0.52800
O 	O 	0.84650 0.52300 0.22470 -0.51700
O 	O 	0.81170 0.32960 0.38530 -0.52800
O 	O 	0.69000 0.31390 0.21260 -0.44000
H 	H 	0.68160 0.22230 0.23010 0.26800
O 	O 	0.77690 0.79090 0.12350 -0.58300
O 	O 	0.59800 0.03450 0.07540 -0.47900
H 	H 	0.59540 0.12090 0.04240 0.31800
O 	O 	0.86010 0.05420 0.11610 -0.60200
O 	O 	0.82870 0.93680 0.93810 -0.57800
O 	O 	0.88820 0.76060 0.32270 -0.54400
O 	O 	0.06860 0.96110 0.26560 -0.52300
O 	O 	0.81990 0.01830 0.40540 -0.56500
O 	O 	0.04920 0.82210 0.45670 -0.53700
O 	O 	0.59670 0.71360 0.31440 -0.52500
O 	O 	0.53080 0.99620 0.35770 -0.44800
H 	H 	0.58860 0.01900 0.29980 0.26300
O 	O 	0.37150 0.88810 0.24240 -0.45300
H 	H 	0.43170 0.91350 0.18650 0.30700
O 	O 	0.35900 0.79910 0.44630 -0.51100
