data_crystal

_cell_length_a 6.76500
_cell_length_b 11.48200
_cell_length_c 17.85800
_cell_angle_alpha 90.00000
_cell_angle_beta  104.06000
_cell_angle_gamma 90.00000

_symmetry_space_group_name_	'P 1'
_symmetry_space_group_name_H-M	'P 1'

loop_
_symmetry_equiv_pos_as_xyz
  x,y,z

loop_
_atom_site_label
_atom_site_type_symbol
_atom_site_fract_x
_atom_site_fract_y
_atom_site_fract_z
_atom_site_charge
C 	C 	0.19350 0.93640 0.11200 0.28300
C 	C 	0.21910 0.84040 0.17160 -0.01000
C 	C 	0.21760 0.72470 0.14630 -0.14600
H 	H 	0.19850 0.70770 0.09410 0.10100
C 	C 	0.24540 0.63520 0.20120 0.18100
C 	C 	0.27050 0.65890 0.27910 -0.14700
H 	H 	0.29000 0.59870 0.31500 0.07400
C 	C 	0.26620 0.77510 0.30290 0.00100
C 	C 	0.24200 0.86440 0.25010 -0.04700
H 	H 	0.24070 0.94110 0.26670 0.06300
C 	C 	0.28340 0.79800 0.38780 0.27300
C 	C 	0.11530 0.48390 0.11280 -0.21700
H 	H 	0.13200 0.53080 0.06960 0.11400
H 	H 	0.97880 0.49660 0.11940 0.09600
C 	C 	0.14220 0.35720 0.09590 0.37200
Cd	Cd	0.79595 0.85558 0.97215 1.21800
O 	O 	0.21250 0.04160 0.13740 -0.41000
O 	O 	0.16220 0.91250 0.04130 -0.41500
O 	O 	0.25210 0.90280 0.40730 -0.38800
O 	O 	0.31640 0.71730 0.43530 -0.34700
O 	O 	0.26070 0.51870 0.18090 -0.28900
O 	O 	0.01770 0.31180 0.03910 -0.40700
O 	O 	0.29210 0.30270 0.13360 -0.54200
C 	C 	0.80650 0.93640 0.38800 0.28000
C 	C 	0.78090 0.84040 0.32840 -0.01000
C 	C 	0.78240 0.72470 0.35370 -0.14700
H 	H 	0.80150 0.70770 0.40590 0.10100
C 	C 	0.75460 0.63520 0.29880 0.18200
C 	C 	0.72950 0.65890 0.22090 -0.14700
H 	H 	0.71000 0.59870 0.18500 0.07400
C 	C 	0.73380 0.77510 0.19710 0.00200
C 	C 	0.75800 0.86440 0.24990 -0.04800
H 	H 	0.75930 0.94110 0.23330 0.06300
C 	C 	0.71660 0.79800 0.11220 0.27300
C 	C 	0.88470 0.48390 0.38720 -0.21400
H 	H 	0.86800 0.53080 0.43040 0.11300
H 	H 	0.02120 0.49660 0.38060 0.09500
C 	C 	0.85780 0.35720 0.40410 0.37100
Cd	Cd	0.20405 0.85558 0.52785 1.21900
O 	O 	0.78750 0.04160 0.36260 -0.40800
O 	O 	0.83780 0.91250 0.45870 -0.41600
O 	O 	0.74790 0.90280 0.09270 -0.38600
O 	O 	0.68360 0.71730 0.06470 -0.34600
O 	O 	0.73930 0.51870 0.31910 -0.29000
O 	O 	0.98230 0.31180 0.46090 -0.40600
O 	O 	0.70790 0.30270 0.36640 -0.54100
C 	C 	0.80650 0.06360 0.88800 0.28200
C 	C 	0.78090 0.15960 0.82840 -0.01100
C 	C 	0.78240 0.27530 0.85370 -0.14600
H 	H 	0.80150 0.29230 0.90590 0.10100
C 	C 	0.75460 0.36480 0.79880 0.18100
C 	C 	0.72950 0.34110 0.72090 -0.14700
H 	H 	0.71000 0.40130 0.68500 0.07400
C 	C 	0.73380 0.22490 0.69710 0.00100
C 	C 	0.75800 0.13560 0.74990 -0.04700
H 	H 	0.75930 0.05890 0.73330 0.06300
C 	C 	0.71660 0.20200 0.61220 0.27300
C 	C 	0.88470 0.51610 0.88720 -0.21700
H 	H 	0.86800 0.46920 0.93040 0.11400
H 	H 	0.02120 0.50340 0.88060 0.09600
C 	C 	0.85780 0.64280 0.90410 0.37200
Cd	Cd	0.20405 0.14442 0.02785 1.21800
O 	O 	0.78750 0.95840 0.86260 -0.41000
O 	O 	0.83780 0.08750 0.95870 -0.41500
O 	O 	0.74790 0.09720 0.59270 -0.38800
O 	O 	0.68360 0.28270 0.56470 -0.34700
O 	O 	0.73930 0.48130 0.81910 -0.28900
O 	O 	0.98230 0.68820 0.96090 -0.40700
O 	O 	0.70790 0.69730 0.86640 -0.54200
C 	C 	0.19350 0.06360 0.61200 0.28000
C 	C 	0.21910 0.15960 0.67160 -0.01000
C 	C 	0.21760 0.27530 0.64630 -0.14700
H 	H 	0.19850 0.29230 0.59410 0.10100
C 	C 	0.24540 0.36480 0.70120 0.18200
C 	C 	0.27050 0.34110 0.77910 -0.14700
H 	H 	0.29000 0.40130 0.81500 0.07400
C 	C 	0.26620 0.22490 0.80290 0.00200
C 	C 	0.24200 0.13560 0.75010 -0.04800
H 	H 	0.24070 0.05890 0.76670 0.06300
C 	C 	0.28340 0.20200 0.88780 0.27300
C 	C 	0.11530 0.51610 0.61280 -0.21400
H 	H 	0.13200 0.46920 0.56960 0.11300
H 	H 	0.97880 0.50340 0.61940 0.09500
C 	C 	0.14220 0.64280 0.59590 0.37100
Cd	Cd	0.79595 0.14442 0.47215 1.21900
O 	O 	0.21250 0.95840 0.63740 -0.40800
O 	O 	0.16220 0.08750 0.54130 -0.41600
O 	O 	0.25210 0.09720 0.90730 -0.38600
O 	O 	0.31640 0.28270 0.93530 -0.34600
O 	O 	0.26070 0.48130 0.68090 -0.29000
O 	O 	0.01770 0.68820 0.53910 -0.40600
O 	O 	0.29210 0.69730 0.63360 -0.54100
Cd	Cd	0.50000 0.35121 0.25000 1.17600
Cd	Cd	0.50000 0.64879 0.75000 1.17600
