data_crystal

_cell_length_a 13.81900
_cell_length_b 23.07500
_cell_length_c 24.04300
_cell_angle_alpha 90.00000
_cell_angle_beta  90.00000
_cell_angle_gamma 90.00000

_symmetry_space_group_name_	'P 1'
_symmetry_space_group_name_H-M	'P 1'

loop_
_symmetry_equiv_pos_as_xyz
  x,y,z

loop_
_atom_site_label
_atom_site_type_symbol
_atom_site_fract_x
_atom_site_fract_y
_atom_site_fract_z
_atom_site_charge
Sn	Sn	0.64160 0.55660 0.29380 1.14000
Sn	Sn	0.86250 0.70730 0.54660 1.24100
N 	N 	0.83910 0.76160 0.37220 -0.04800
N 	N 	0.88080 0.74070 0.41550 -0.07600
N 	N 	0.81140 0.73990 0.45650 -0.21800
N 	N 	0.74860 0.77150 0.37470 -0.09600
N 	N 	0.60990 0.66090 0.38440 -0.14100
N 	N 	0.58470 0.64230 0.33270 -0.21000
N 	N 	0.51720 0.67660 0.31270 -0.09900
N 	N 	0.50000 0.71720 0.34840 -0.21600
C 	C 	0.55480 0.70630 0.38710 0.14100
C 	C 	0.73800 0.75870 0.43200 0.12100
C 	C 	0.55400 0.74420 0.44410 -0.05000
C 	C 	0.46840 0.75300 0.47370 -0.02700
C 	C 	0.46870 0.78700 0.52160 -0.02400
C 	C 	0.55460 0.81230 0.54000 -0.02500
C 	C 	0.64030 0.80350 0.51050 -0.03500
C 	C 	0.64000 0.76950 0.46250 -0.03700
C 	C 	0.88930 0.79850 0.57910 -0.24400
C 	C 	0.00290 0.66980 0.51920 -0.26900
C 	C 	0.72240 0.64940 0.54780 -0.26900
Sn	Sn	0.13750 0.20730 0.95340 1.24000
N 	N 	0.16090 0.26160 0.12780 -0.04900
N 	N 	0.11920 0.24070 0.08450 -0.07700
N 	N 	0.18860 0.23990 0.04350 -0.21900
N 	N 	0.25140 0.27150 0.12530 -0.09700
N 	N 	0.39010 0.16090 0.11560 -0.14200
N 	N 	0.41530 0.14230 0.16730 -0.21100
N 	N 	0.48280 0.17660 0.18730 -0.09900
N 	N 	0.50000 0.21720 0.15160 -0.21600
C 	C 	0.44520 0.20630 0.11290 0.14100
C 	C 	0.26200 0.25870 0.06800 0.12100
C 	C 	0.44600 0.24420 0.05590 -0.05000
C 	C 	0.53160 0.25300 0.02630 -0.02800
C 	C 	0.53130 0.28700 0.97840 -0.02400
C 	C 	0.44540 0.31230 0.96000 -0.02500
C 	C 	0.35970 0.30350 0.98950 -0.03500
C 	C 	0.36000 0.26950 0.03750 -0.03700
C 	C 	0.11070 0.29850 0.92090 -0.24400
C 	C 	0.99710 0.16980 0.98080 -0.26900
C 	C 	0.27760 0.14940 0.95220 -0.26900
Sn	Sn	0.35840 0.05660 0.20620 1.13900
Sn	Sn	0.64160 0.44340 0.70620 1.13900
Sn	Sn	0.86250 0.29270 0.45340 1.24000
N 	N 	0.83910 0.23840 0.62780 -0.04900
N 	N 	0.88080 0.25930 0.58450 -0.07700
N 	N 	0.81140 0.26010 0.54350 -0.21900
N 	N 	0.74860 0.22850 0.62530 -0.09700
N 	N 	0.60990 0.33910 0.61560 -0.14200
N 	N 	0.58470 0.35770 0.66730 -0.21100
N 	N 	0.51720 0.32340 0.68730 -0.09900
N 	N 	0.50000 0.28280 0.65160 -0.21600
C 	C 	0.55480 0.29370 0.61290 0.14100
C 	C 	0.73800 0.24130 0.56800 0.12100
C 	C 	0.55400 0.25580 0.55590 -0.05000
C 	C 	0.46840 0.24700 0.52630 -0.02700
C 	C 	0.46870 0.21300 0.47840 -0.02400
C 	C 	0.55460 0.18770 0.46000 -0.02500
C 	C 	0.64030 0.19650 0.48950 -0.03500
C 	C 	0.64000 0.23050 0.53750 -0.03700
C 	C 	0.88930 0.20150 0.42090 -0.24400
C 	C 	0.00290 0.33020 0.48080 -0.26900
C 	C 	0.72240 0.35060 0.45220 -0.26900
Sn	Sn	0.13750 0.79270 0.04660 1.24000
N 	N 	0.16090 0.73840 0.87220 -0.04900
N 	N 	0.11920 0.75930 0.91550 -0.07700
N 	N 	0.18860 0.76010 0.95650 -0.21900
N 	N 	0.25140 0.72850 0.87470 -0.09700
N 	N 	0.39010 0.83910 0.88440 -0.14200
N 	N 	0.41530 0.85770 0.83270 -0.21100
N 	N 	0.48280 0.82340 0.81270 -0.09900
N 	N 	0.50000 0.78280 0.84840 -0.21600
C 	C 	0.44520 0.79370 0.88710 0.14100
C 	C 	0.26200 0.74130 0.93200 0.12100
C 	C 	0.44600 0.75580 0.94410 -0.05000
C 	C 	0.53160 0.74700 0.97370 -0.02800
C 	C 	0.53130 0.71300 0.02160 -0.02400
C 	C 	0.44540 0.68770 0.04000 -0.02500
C 	C 	0.35970 0.69650 0.01050 -0.03500
C 	C 	0.36000 0.73050 0.96250 -0.03700
C 	C 	0.11070 0.70150 0.07910 -0.24400
C 	C 	0.99710 0.83020 0.01920 -0.26900
C 	C 	0.27760 0.85060 0.04780 -0.26900
Sn	Sn	0.35840 0.94340 0.79380 1.13900
Sn	Sn	0.58810 0.30290 0.18480 1.25100
N 	N 	0.76370 0.38710 0.22160 -0.10200
N 	N 	0.67080 0.38180 0.21140 -0.17700
N 	N 	0.62980 0.42910 0.23180 -0.11600
N 	N 	0.70480 0.46640 0.25240 -0.24200
N 	N 	0.97460 0.33270 0.28560 -0.11400
N 	N 	0.94910 0.29220 0.32370 -0.06600
N 	N 	0.89720 0.32450 0.35890 -0.15100
N 	N 	0.89960 0.37370 0.34710 -0.12300
C 	C 	0.78410 0.43980 0.24000 0.11700
C 	C 	0.94260 0.37610 0.29730 0.14700
C 	C 	0.88190 0.46750 0.24740 -0.05000
C 	C 	0.96100 0.43840 0.27010 -0.03000
C 	C 	0.05340 0.46250 0.26640 -0.00700
C 	C 	0.06660 0.51580 0.24010 -0.02400
C 	C 	0.98750 0.54500 0.21740 -0.01200
C 	C 	0.89510 0.52080 0.22110 -0.06000
C 	C 	0.45600 0.36010 0.17080 -0.25700
C 	C 	0.61740 0.25680 0.26200 -0.28800
C 	C 	0.70740 0.29930 0.12270 -0.25000
Sn	Sn	0.58810 0.69710 0.81520 1.25100
N 	N 	0.76370 0.61290 0.77840 -0.10200
N 	N 	0.67080 0.61820 0.78860 -0.17700
N 	N 	0.62980 0.57090 0.76820 -0.11600
N 	N 	0.70480 0.53360 0.74760 -0.24200
N 	N 	0.97460 0.66730 0.71440 -0.11400
N 	N 	0.94910 0.70780 0.67630 -0.06600
N 	N 	0.89720 0.67550 0.64110 -0.15100
N 	N 	0.89960 0.62630 0.65290 -0.12300
C 	C 	0.78410 0.56020 0.76000 0.11700
C 	C 	0.94260 0.62390 0.70270 0.14700
C 	C 	0.88190 0.53250 0.75260 -0.05000
C 	C 	0.96100 0.56160 0.72990 -0.03000
C 	C 	0.05340 0.53750 0.73360 -0.00700
C 	C 	0.06660 0.48420 0.75990 -0.02400
C 	C 	0.98750 0.45500 0.78260 -0.01200
C 	C 	0.89510 0.47920 0.77890 -0.06000
C 	C 	0.45600 0.63990 0.82920 -0.25700
C 	C 	0.61740 0.74320 0.73800 -0.28800
C 	C 	0.70740 0.70070 0.87730 -0.25000
Sn	Sn	0.41190 0.19710 0.68480 1.25100
N 	N 	0.23630 0.11290 0.72160 -0.10200
N 	N 	0.32920 0.11820 0.71140 -0.17700
N 	N 	0.37020 0.07090 0.73180 -0.11600
N 	N 	0.29520 0.03360 0.75240 -0.24200
N 	N 	0.02540 0.16730 0.78560 -0.11400
N 	N 	0.05090 0.20780 0.82370 -0.06600
N 	N 	0.10280 0.17550 0.85890 -0.15100
N 	N 	0.10040 0.12630 0.84710 -0.12200
C 	C 	0.21590 0.06020 0.74000 0.11700
C 	C 	0.05740 0.12390 0.79730 0.14800
C 	C 	0.11810 0.03250 0.74740 -0.05000
C 	C 	0.03900 0.06160 0.77010 -0.02900
C 	C 	0.94660 0.03750 0.76640 -0.00700
C 	C 	0.93340 0.98420 0.74010 -0.02500
C 	C 	0.01250 0.95500 0.71740 -0.01100
C 	C 	0.10490 0.97920 0.72110 -0.06000
C 	C 	0.54400 0.13990 0.67080 -0.25700
C 	C 	0.38260 0.24320 0.76200 -0.28800
C 	C 	0.29260 0.20070 0.62270 -0.25000
Sn	Sn	0.41190 0.80290 0.31520 1.25100
N 	N 	0.23630 0.88710 0.27840 -0.10200
N 	N 	0.32920 0.88180 0.28860 -0.17700
N 	N 	0.37020 0.92910 0.26820 -0.11600
N 	N 	0.29520 0.96640 0.24760 -0.24200
N 	N 	0.02540 0.83270 0.21440 -0.11400
N 	N 	0.05090 0.79220 0.17630 -0.06600
N 	N 	0.10280 0.82450 0.14110 -0.15100
N 	N 	0.10040 0.87370 0.15290 -0.12200
C 	C 	0.21590 0.93980 0.26000 0.11700
C 	C 	0.05740 0.87610 0.20270 0.14800
C 	C 	0.11810 0.96750 0.25260 -0.05000
C 	C 	0.03900 0.93840 0.22990 -0.02900
C 	C 	0.94660 0.96250 0.23360 -0.00700
C 	C 	0.93340 0.01580 0.25990 -0.02500
C 	C 	0.01250 0.04500 0.28260 -0.01100
C 	C 	0.10490 0.02080 0.27890 -0.06000
C 	C 	0.54400 0.86010 0.32920 -0.25700
C 	C 	0.38260 0.75680 0.23800 -0.28800
C 	C 	0.29260 0.79930 0.37730 -0.25000
