data_crystal

_cell_length_a 9.61280
_cell_length_b 11.33600
_cell_length_c 11.90600
_cell_angle_alpha 114.52000
_cell_angle_beta  91.19000
_cell_angle_gamma 106.00000

_symmetry_space_group_name_	'P 1'
_symmetry_space_group_name_H-M	'P 1'

loop_
_symmetry_equiv_pos_as_xyz
  x,y,z

loop_
_atom_site_label
_atom_site_type_symbol
_atom_site_fract_x
_atom_site_fract_y
_atom_site_fract_z
_atom_site_charge
C 	C 	0.98320 0.89760 0.10760 0.49100
N 	N 	0.86910 0.55570 0.93900 -0.12200
C 	C 	0.57150 0.23410 0.99330 0.44900
C 	C 	0.82360 0.37140 0.99700 -0.01400
H 	H 	0.86070 0.31740 0.02260 0.04300
C 	C 	0.67420 0.34400 0.97210 -0.10900
C 	C 	0.25690 0.85440 0.56110 -0.03700
H 	H 	0.18100 0.86800 0.60720 0.06000
C 	C 	0.62550 0.42370 0.92940 -0.02400
H 	H 	0.52560 0.40860 0.91210 0.05200
C 	C 	0.10750 0.85850 0.27150 -0.00300
H 	H 	0.19390 0.87470 0.23870 0.03700
C 	C 	0.91830 0.48090 0.98330 0.05000
C 	C 	0.98240 0.86150 0.21690 -0.12900
C 	C 	0.41470 0.89440 0.75360 0.46700
C 	C 	0.38830 0.85880 0.61660 -0.10000
C 	C 	0.24000 0.82990 0.43710 0.05500
N 	N 	0.34680 0.81050 0.36760 -0.11700
C 	C 	0.49650 0.83430 0.54360 -0.02400
H 	H 	0.58540 0.83480 0.57640 0.03700
C 	C 	0.85470 0.83120 0.26420 -0.00600
H 	H 	0.76750 0.83280 0.23030 0.04500
N 	N 	0.98210 0.79990 0.42130 -0.11600
C 	C 	0.10680 0.83180 0.37520 0.04300
C 	C 	0.46790 0.80920 0.42040 0.02500
H 	H 	0.53960 0.78990 0.37080 0.02700
C 	C 	0.85980 0.79840 0.36350 0.01100
H 	H 	0.77230 0.77350 0.39220 0.02900
C 	C 	0.72520 0.52530 0.91250 0.03300
H 	H 	0.69010 0.57580 0.88080 0.02000
O 	O 	0.87230 0.91270 0.07170 -0.51200
O 	O 	0.10220 0.91230 0.06310 -0.52300
O 	O 	0.53100 0.88230 0.79090 -0.53300
O 	O 	0.61040 0.14010 0.99690 -0.53600
O 	O 	0.32020 0.93190 0.81730 -0.50000
O 	O 	0.44230 0.23820 0.00500 -0.49100
Tb	Tb	0.69330 0.95520 0.97100 1.91900
C 	C 	0.01680 0.10240 0.89240 0.49200
N 	N 	0.13090 0.44430 0.06100 -0.12100
C 	C 	0.42850 0.76590 0.00670 0.45000
C 	C 	0.17640 0.62860 0.00300 -0.01300
H 	H 	0.13930 0.68260 0.97740 0.04400
C 	C 	0.32580 0.65600 0.02790 -0.10800
C 	C 	0.74310 0.14560 0.43890 -0.03700
H 	H 	0.81900 0.13200 0.39280 0.06000
C 	C 	0.37450 0.57630 0.07060 -0.02400
H 	H 	0.47440 0.59140 0.08790 0.05200
C 	C 	0.89250 0.14150 0.72850 -0.00300
H 	H 	0.80610 0.12530 0.76130 0.03700
C 	C 	0.08170 0.51910 0.01670 0.05000
C 	C 	0.01760 0.13850 0.78310 -0.12900
C 	C 	0.58530 0.10560 0.24640 0.46700
C 	C 	0.61170 0.14120 0.38340 -0.10000
C 	C 	0.76000 0.17010 0.56290 0.05500
N 	N 	0.65320 0.18950 0.63240 -0.11700
C 	C 	0.50350 0.16570 0.45640 -0.02400
H 	H 	0.41460 0.16520 0.42360 0.03700
C 	C 	0.14530 0.16880 0.73580 -0.00600
H 	H 	0.23250 0.16720 0.76970 0.04500
N 	N 	0.01790 0.20010 0.57870 -0.11600
C 	C 	0.89320 0.16820 0.62480 0.04300
C 	C 	0.53210 0.19080 0.57960 0.02500
H 	H 	0.46040 0.21010 0.62920 0.02700
C 	C 	0.14020 0.20160 0.63650 0.01100
H 	H 	0.22770 0.22650 0.60780 0.02900
C 	C 	0.27480 0.47470 0.08750 0.03300
H 	H 	0.30990 0.42420 0.11920 0.02000
O 	O 	0.12770 0.08730 0.92830 -0.51200
O 	O 	0.89780 0.08770 0.93690 -0.52300
O 	O 	0.46900 0.11770 0.20910 -0.53300
O 	O 	0.38960 0.85990 0.00310 -0.53600
O 	O 	0.67980 0.06810 0.18270 -0.50000
O 	O 	0.55770 0.76180 0.99500 -0.49100
Tb	Tb	0.30670 0.04480 0.02900 1.91900
