data_crystal

_cell_length_a 9.65470
_cell_length_b 11.31950
_cell_length_c 11.98560
_cell_angle_alpha 114.77300
_cell_angle_beta  91.44800
_cell_angle_gamma 106.41600

_symmetry_space_group_name_	'P 1'
_symmetry_space_group_name_H-M	'P 1'

loop_
_symmetry_equiv_pos_as_xyz
  x,y,z

loop_
_atom_site_label
_atom_site_type_symbol
_atom_site_fract_x
_atom_site_fract_y
_atom_site_fract_z
_atom_site_charge
O 	O 	0.10260 0.90870 0.06210 -0.53000
C 	C 	0.98570 0.89730 0.10780 0.48500
C 	C 	0.32590 0.65340 0.02620 -0.08000
C 	C 	0.98370 0.86280 0.21690 -0.12800
C 	C 	0.17580 0.62400 0.99810 -0.05100
H 	H 	0.13960 0.67500 0.96820 0.05600
C 	C 	0.10890 0.85990 0.27160 -0.00700
H 	H 	0.19600 0.87840 0.24110 0.03800
C 	C 	0.43300 0.76350 0.00610 0.42700
C 	C 	0.08070 0.51810 0.01520 0.06100
C 	C 	0.38740 0.85820 0.61340 -0.10400
C 	C 	0.25670 0.85470 0.55880 -0.03400
H 	H 	0.18200 0.86940 0.60500 0.05700
C 	C 	0.27170 0.47370 0.08850 0.04500
H 	H 	0.30520 0.42280 0.12030 0.01400
C 	C 	0.37430 0.57590 0.07220 -0.04400
H 	H 	0.47390 0.59230 0.09170 0.05800
C 	C 	0.10470 0.82940 0.37230 0.04600
C 	C 	0.23910 0.82880 0.43440 0.05200
C 	C 	0.41500 0.89470 0.74970 0.46000
C 	C 	0.49350 0.83270 0.54060 -0.01900
H 	H 	0.58100 0.83130 0.57340 0.03500
C 	C 	0.85630 0.83310 0.26360 -0.00800
H 	H 	0.76950 0.83390 0.22900 0.04400
C 	C 	0.46790 0.80940 0.41860 0.01800
H 	H 	0.54090 0.79330 0.37070 0.02800
C 	C 	0.86110 0.80190 0.36330 0.01300
H 	H 	0.77440 0.78050 0.39350 0.02700
Eu	Eu	0.69158 0.95540 0.97139 1.99200
N 	N 	0.98180 0.80050 0.41920 -0.11800
N 	N 	0.34430 0.80840 0.36450 -0.11500
N 	N 	0.12790 0.44370 0.06140 -0.12500
O 	O 	0.39680 0.85950 0.00070 -0.54500
O 	O 	0.32010 0.93130 0.81370 -0.50000
O 	O 	0.55990 0.75710 0.99440 -0.49400
O 	O 	0.87400 0.91270 0.07100 -0.51200
O 	O 	0.53270 0.88650 0.78910 -0.54100
O 	O 	0.89740 0.09130 0.93790 -0.53100
C 	C 	0.01430 0.10270 0.89220 0.48400
C 	C 	0.67410 0.34660 0.97380 -0.08000
C 	C 	0.01630 0.13720 0.78310 -0.12800
C 	C 	0.82420 0.37600 0.00190 -0.05100
H 	H 	0.86040 0.32500 0.03180 0.05600
C 	C 	0.89110 0.14010 0.72840 -0.00700
H 	H 	0.80400 0.12160 0.75890 0.03800
C 	C 	0.56700 0.23650 0.99390 0.42700
C 	C 	0.91930 0.48190 0.98480 0.06100
C 	C 	0.61260 0.14180 0.38660 -0.10400
C 	C 	0.74330 0.14530 0.44120 -0.03400
H 	H 	0.81800 0.13060 0.39500 0.05700
C 	C 	0.72830 0.52630 0.91150 0.04500
H 	H 	0.69480 0.57720 0.87970 0.01400
C 	C 	0.62570 0.42410 0.92780 -0.04400
H 	H 	0.52610 0.40770 0.90830 0.05800
C 	C 	0.89530 0.17060 0.62770 0.04600
C 	C 	0.76090 0.17120 0.56560 0.05200
C 	C 	0.58500 0.10530 0.25030 0.46000
C 	C 	0.50650 0.16730 0.45940 -0.01900
H 	H 	0.41900 0.16870 0.42660 0.03500
C 	C 	0.14370 0.16690 0.73640 -0.00800
H 	H 	0.23050 0.16610 0.77100 0.04400
C 	C 	0.53210 0.19060 0.58140 0.01800
H 	H 	0.45910 0.20670 0.62930 0.02800
C 	C 	0.13890 0.19810 0.63670 0.01300
H 	H 	0.22560 0.21950 0.60650 0.02700
Eu	Eu	0.30842 0.04460 0.02861 1.99200
N 	N 	0.01820 0.19950 0.58080 -0.11800
N 	N 	0.65570 0.19160 0.63550 -0.11500
N 	N 	0.87210 0.55630 0.93860 -0.12500
O 	O 	0.60320 0.14050 0.99930 -0.54500
O 	O 	0.67990 0.06870 0.18630 -0.50000
O 	O 	0.44010 0.24290 0.00560 -0.49400
O 	O 	0.12600 0.08730 0.92900 -0.51200
O 	O 	0.46730 0.11350 0.21090 -0.54100
