data_crystal

_cell_length_a 12.35800
_cell_length_b 12.35800
_cell_length_c 22.92880
_cell_angle_alpha 90.00000
_cell_angle_beta  90.00000
_cell_angle_gamma 90.00000

_symmetry_space_group_name_	'P 1'
_symmetry_space_group_name_H-M	'P 1'

loop_
_symmetry_equiv_pos_as_xyz
  x,y,z

loop_
_atom_site_label
_atom_site_type_symbol
_atom_site_fract_x
_atom_site_fract_y
_atom_site_fract_z
_atom_site_charge
C 	C 	0.97940 0.08870 0.12450 0.04800
H 	H 	0.96480 0.15350 0.10370 0.00200
C 	C 	0.97820 0.09040 0.18730 -0.05200
H 	H 	0.96190 0.15570 0.20730 0.05000
C 	C 	0.47940 0.58870 0.62450 0.04000
H 	H 	0.46480 0.65350 0.60370 -0.00100
C 	C 	0.47820 0.59040 0.68730 -0.08500
H 	H 	0.46190 0.65570 0.70730 0.05200
C 	C 	0.02060 0.91130 0.12450 0.04500
H 	H 	0.03520 0.84650 0.10370 -0.00700
C 	C 	0.02180 0.90960 0.18730 -0.05600
H 	H 	0.03810 0.84430 0.20730 0.03900
C 	C 	0.52060 0.41130 0.62450 0.03800
H 	H 	0.53520 0.34650 0.60370 -0.00200
C 	C 	0.52180 0.40960 0.68730 -0.08400
H 	H 	0.53810 0.34430 0.70730 0.05000
C 	C 	0.91130 0.97940 0.12450 0.06500
H 	H 	0.84650 0.96480 0.10370 -0.00100
C 	C 	0.90960 0.97820 0.18730 -0.03400
H 	H 	0.84430 0.96190 0.20730 0.04500
C 	C 	0.41130 0.47940 0.62450 0.03800
H 	H 	0.34650 0.46480 0.60370 -0.00300
C 	C 	0.40960 0.47820 0.68730 -0.08500
H 	H 	0.34430 0.46190 0.70730 0.04900
C 	C 	0.08870 0.02060 0.12450 0.01200
H 	H 	0.15350 0.03520 0.10370 -0.00100
C 	C 	0.09040 0.02180 0.18730 -0.08400
H 	H 	0.15570 0.03810 0.20730 0.04300
C 	C 	0.58870 0.52060 0.62450 0.03900
H 	H 	0.65350 0.53520 0.60370 -0.00100
C 	C 	0.59040 0.52180 0.68730 -0.08400
H 	H 	0.65570 0.53810 0.70730 0.05300
C 	C 	0.02060 0.08870 0.37550 0.01200
H 	H 	0.03520 0.15350 0.39630 -0.00100
C 	C 	0.02180 0.09040 0.31270 -0.08400
H 	H 	0.03810 0.15570 0.29270 0.04300
C 	C 	0.52060 0.58870 0.87550 0.03800
H 	H 	0.53520 0.65350 0.89630 0.00600
C 	C 	0.52180 0.59040 0.81270 -0.08200
H 	H 	0.53810 0.65570 0.79270 0.05300
C 	C 	0.97940 0.91130 0.37550 0.06500
H 	H 	0.96480 0.84650 0.39630 -0.00100
C 	C 	0.97820 0.90960 0.31270 -0.03500
H 	H 	0.96190 0.84430 0.29270 0.04500
C 	C 	0.47940 0.41130 0.87550 0.03700
H 	H 	0.46480 0.34650 0.89630 0.00400
C 	C 	0.47820 0.40960 0.81270 -0.08200
H 	H 	0.46190 0.34430 0.79270 0.04900
C 	C 	0.08870 0.97940 0.37550 0.04700
H 	H 	0.15350 0.96480 0.39630 0.00100
C 	C 	0.09040 0.97820 0.31270 -0.05400
H 	H 	0.15570 0.96190 0.29270 0.04900
C 	C 	0.58870 0.47940 0.87550 0.03800
H 	H 	0.65350 0.46480 0.89630 0.00500
C 	C 	0.59040 0.47820 0.81270 -0.08200
H 	H 	0.65570 0.46190 0.79270 0.05200
C 	C 	0.91130 0.02060 0.37550 0.04500
H 	H 	0.84650 0.03520 0.39630 -0.00700
C 	C 	0.90960 0.02180 0.31270 -0.05600
H 	H 	0.84430 0.03810 0.29270 0.03900
C 	C 	0.41130 0.52060 0.87550 0.03700
H 	H 	0.34650 0.53520 0.89630 0.00500
C 	C 	0.40960 0.52180 0.81270 -0.08200
H 	H 	0.34430 0.53810 0.79270 0.05000
C 	C 	0.02060 0.91130 0.87550 0.04400
H 	H 	0.03520 0.84650 0.89630 0.00100
C 	C 	0.02180 0.90960 0.81270 -0.05500
H 	H 	0.03810 0.84430 0.79270 0.04000
C 	C 	0.52060 0.41130 0.37550 0.03800
H 	H 	0.53520 0.34650 0.39630 -0.00200
C 	C 	0.52180 0.40960 0.31270 -0.08400
H 	H 	0.53810 0.34430 0.29270 0.04900
C 	C 	0.97940 0.08870 0.87550 0.04600
H 	H 	0.96480 0.15350 0.89630 0.00800
C 	C 	0.97820 0.09040 0.81270 -0.05300
H 	H 	0.96190 0.15570 0.79270 0.05000
C 	C 	0.47940 0.58870 0.37550 0.03800
H 	H 	0.46480 0.65350 0.39630 -0.00200
C 	C 	0.47820 0.59040 0.31270 -0.08400
H 	H 	0.46190 0.65570 0.29270 0.05200
C 	C 	0.08870 0.02060 0.87550 0.01300
H 	H 	0.15350 0.03520 0.89630 0.00600
C 	C 	0.09040 0.02180 0.81270 -0.08200
H 	H 	0.15570 0.03810 0.79270 0.04400
C 	C 	0.58870 0.52060 0.37550 0.03800
H 	H 	0.65350 0.53520 0.39630 -0.00100
C 	C 	0.59040 0.52180 0.31270 -0.08400
H 	H 	0.65570 0.53810 0.29270 0.05200
C 	C 	0.91130 0.97940 0.87550 0.06200
H 	H 	0.84650 0.96480 0.89630 0.00600
C 	C 	0.90960 0.97820 0.81270 -0.03500
H 	H 	0.84430 0.96190 0.79270 0.04700
C 	C 	0.41130 0.47940 0.37550 0.03700
H 	H 	0.34650 0.46480 0.39630 -0.00300
C 	C 	0.40960 0.47820 0.31270 -0.08400
H 	H 	0.34430 0.46190 0.29270 0.04800
C 	C 	0.97940 0.91130 0.62450 0.06500
H 	H 	0.96480 0.84650 0.60370 -0.00100
C 	C 	0.97820 0.90960 0.68730 -0.03700
H 	H 	0.96190 0.84430 0.70730 0.04600
C 	C 	0.47940 0.41130 0.12450 0.03700
H 	H 	0.46480 0.34650 0.10370 -0.00300
C 	C 	0.47820 0.40960 0.18730 -0.08400
H 	H 	0.46190 0.34430 0.20730 0.04800
C 	C 	0.02060 0.08870 0.62450 0.01300
H 	H 	0.03520 0.15350 0.60370 -0.00100
C 	C 	0.02180 0.09040 0.68730 -0.08500
H 	H 	0.03810 0.15570 0.70730 0.04400
C 	C 	0.52060 0.58870 0.12450 0.03800
H 	H 	0.53520 0.65350 0.10370 -0.00100
C 	C 	0.52180 0.59040 0.18730 -0.08300
H 	H 	0.53810 0.65570 0.20730 0.05200
C 	C 	0.91130 0.02060 0.62450 0.04500
H 	H 	0.84650 0.03520 0.60370 -0.00700
C 	C 	0.90960 0.02180 0.68730 -0.05800
H 	H 	0.84430 0.03810 0.70730 0.04000
C 	C 	0.41130 0.52060 0.12450 0.03800
H 	H 	0.34650 0.53520 0.10370 -0.00200
C 	C 	0.40960 0.52180 0.18730 -0.08400
H 	H 	0.34430 0.53810 0.20730 0.04900
C 	C 	0.08870 0.97940 0.62450 0.04700
H 	H 	0.15350 0.96480 0.60370 0.00100
C 	C 	0.09040 0.97820 0.68730 -0.05500
H 	H 	0.15570 0.96190 0.70730 0.05000
C 	C 	0.58870 0.47940 0.12450 0.03800
H 	H 	0.65350 0.46480 0.10370 -0.00200
C 	C 	0.59040 0.47820 0.18730 -0.08400
H 	H 	0.65570 0.46190 0.20730 0.05200
Fe	Fe	-0.00000 0.00000 -0.00000 1.10300
Fe	Fe	0.50000 0.50000 0.50000 1.12900
Fe	Fe	0.00000 0.00000 0.50000 1.10900
Fe	Fe	0.50000 0.50000 -0.00000 1.12500
N 	N 	0.10078 0.14069 -0.00000 -0.27300
C 	C 	0.13498 0.22685 -0.00000 0.11000
C 	C 	0.10800 0.52870 -0.00000 -0.01400
H 	H 	0.18210 0.54930 -0.00000 0.02700
N 	N 	0.60078 0.64069 0.50000 -0.27100
C 	C 	0.63498 0.72685 0.50000 0.14100
C 	C 	0.60800 0.02870 0.50000 -0.15100
H 	H 	0.68210 0.04930 0.50000 0.07100
N 	N 	0.89922 0.85931 -0.00000 -0.25900
C 	C 	0.86502 0.77315 -0.00000 0.14400
C 	C 	0.89200 0.47130 -0.00000 -0.13200
H 	H 	0.81790 0.45070 -0.00000 0.06800
N 	N 	0.39922 0.35931 0.50000 -0.26500
C 	C 	0.36502 0.27315 0.50000 0.12200
C 	C 	0.39200 0.97130 0.50000 0.00900
H 	H 	0.31790 0.95070 0.50000 0.03000
N 	N 	0.85931 0.10078 -0.00000 -0.26400
C 	C 	0.77315 0.13498 -0.00000 0.11200
C 	C 	0.47130 0.10800 -0.00000 -0.01500
H 	H 	0.45070 0.18210 -0.00000 0.02700
N 	N 	0.35931 0.60078 0.50000 -0.26500
C 	C 	0.27315 0.63498 0.50000 0.12300
C 	C 	0.97130 0.60800 0.50000 0.00700
H 	H 	0.95070 0.68210 0.50000 0.03000
N 	N 	0.14069 0.89922 -0.00000 -0.26600
C 	C 	0.22685 0.86502 -0.00000 0.14300
C 	C 	0.52870 0.89200 -0.00000 -0.13100
H 	H 	0.54930 0.81790 -0.00000 0.06800
N 	N 	0.64069 0.39922 0.50000 -0.27000
C 	C 	0.72685 0.36502 0.50000 0.14100
C 	C 	0.02870 0.39200 0.50000 -0.15200
H 	H 	0.04930 0.31790 0.50000 0.06900
N 	N 	0.89922 0.14069 0.50000 -0.26400
C 	C 	0.86502 0.22685 0.50000 0.14600
C 	C 	0.89200 0.52870 0.50000 -0.12800
H 	H 	0.81790 0.54930 0.50000 0.06900
N 	N 	0.39922 0.64069 -0.00000 -0.27300
C 	C 	0.36502 0.72685 -0.00000 0.13700
C 	C 	0.39200 0.02870 -0.00000 -0.15600
H 	H 	0.31790 0.04930 -0.00000 0.06800
N 	N 	0.10078 0.85931 0.50000 -0.26100
C 	C 	0.13498 0.77315 0.50000 0.11700
C 	C 	0.10800 0.47130 0.50000 -0.01500
H 	H 	0.18210 0.45070 0.50000 0.03000
N 	N 	0.60078 0.35931 -0.00000 -0.26800
C 	C 	0.63498 0.27315 -0.00000 0.11800
C 	C 	0.60800 0.97130 -0.00000 0.00900
H 	H 	0.68210 0.95070 -0.00000 0.02800
N 	N 	0.14069 0.10078 0.50000 -0.27000
C 	C 	0.22685 0.13498 0.50000 0.11400
C 	C 	0.52870 0.10800 0.50000 -0.01500
H 	H 	0.54930 0.18210 0.50000 0.03000
N 	N 	0.64069 0.60078 -0.00000 -0.27400
C 	C 	0.72685 0.63498 -0.00000 0.13800
C 	C 	0.02870 0.60800 -0.00000 -0.15600
H 	H 	0.04930 0.68210 -0.00000 0.07000
N 	N 	0.85931 0.89922 0.50000 -0.25700
C 	C 	0.77315 0.86502 0.50000 0.14700
C 	C 	0.47130 0.89200 0.50000 -0.12900
H 	H 	0.45070 0.81790 0.50000 0.06900
N 	N 	0.35931 0.39922 -0.00000 -0.26700
C 	C 	0.27315 0.36502 -0.00000 0.11700
C 	C 	0.97130 0.39200 -0.00000 0.01000
H 	H 	0.95070 0.31790 -0.00000 0.02700
N 	N 	0.00000 0.00000 0.09559 -0.27400
C 	C 	0.00000 0.00000 0.21780 0.00100
N 	N 	0.50000 0.50000 0.59559 -0.24200
C 	C 	0.50000 0.50000 0.71780 0.07200
N 	N 	0.00000 0.00000 0.40441 -0.27300
C 	C 	0.00000 0.00000 0.28220 0.00200
N 	N 	0.50000 0.50000 0.90441 -0.23600
C 	C 	0.50000 0.50000 0.78220 0.06600
N 	N 	0.00000 0.00000 0.90441 -0.26500
C 	C 	0.00000 0.00000 0.78220 0.00100
N 	N 	0.50000 0.50000 0.40441 -0.24200
C 	C 	0.50000 0.50000 0.28220 0.06900
N 	N 	0.00000 0.00000 0.59559 -0.27300
C 	C 	0.00000 0.00000 0.71780 0.00600
N 	N 	0.50000 0.50000 0.09559 -0.24200
C 	C 	0.50000 0.50000 0.21780 0.06900
C 	C 	0.16501 0.33499 -0.00000 -0.12700
C 	C 	0.08095 0.41905 -0.00000 -0.00800
C 	C 	0.83499 0.66501 -0.00000 -0.17300
C 	C 	0.91905 0.58095 -0.00000 0.13400
C 	C 	0.33499 0.16501 0.50000 -0.12700
C 	C 	0.41905 0.08095 0.50000 -0.00300
C 	C 	0.66501 0.16501 -0.00000 -0.12700
C 	C 	0.58095 0.08095 -0.00000 -0.00600
C 	C 	0.33499 0.83499 -0.00000 -0.17400
C 	C 	0.41905 0.91905 -0.00000 0.13500
C 	C 	0.83499 0.33499 0.50000 -0.17200
C 	C 	0.91905 0.41905 0.50000 0.13500
C 	C 	0.16501 0.66501 0.50000 -0.12700
C 	C 	0.08095 0.58095 0.50000 -0.00100
C 	C 	0.66501 0.83499 0.50000 -0.17100
C 	C 	0.58095 0.91905 0.50000 0.13400
