data_crystal

_cell_length_a 14.78830
_cell_length_b 19.44010
_cell_length_c 19.33860
_cell_angle_alpha 90.00000
_cell_angle_beta  99.72200
_cell_angle_gamma 90.00000

_symmetry_space_group_name_	'P 1'
_symmetry_space_group_name_H-M	'P 1'

loop_
_symmetry_equiv_pos_as_xyz
  x,y,z

loop_
_atom_site_label
_atom_site_type_symbol
_atom_site_fract_x
_atom_site_fract_y
_atom_site_fract_z
_atom_site_charge
C 	C 	0.01310 0.43090 0.30150 0.41000
C 	C 	0.12050 0.53260 0.48880 0.40200
C 	C 	0.31880 0.52060 0.42420 0.30000
C 	C 	0.96970 0.15090 0.19910 0.38200
C 	C 	0.06920 0.32530 0.24890 0.00700
H 	H 	0.12370 0.34860 0.24720 0.04400
C 	C 	0.99820 0.35860 0.27450 -0.14100
C 	C 	0.41120 0.51130 0.46270 -0.09500
C 	C 	0.43700 0.44910 0.49640 -0.08900
H 	H 	0.39300 0.41460 0.49390 0.07400
C 	C 	0.97890 0.22290 0.22660 -0.12200
C 	C 	0.39920 0.22250 0.36230 -0.00900
H 	H 	0.37430 0.18030 0.37190 0.06500
C 	C 	0.05900 0.25810 0.22620 -0.00900
H 	H 	0.10760 0.23620 0.21030 0.04900
C 	C 	0.47730 0.56460 0.46710 0.15200
C 	C 	0.90670 0.25510 0.25270 0.09100
C 	C 	0.64650 0.49280 0.33350 0.12600
C 	C 	0.52310 0.28730 0.33320 -0.00400
H 	H 	0.58170 0.28940 0.32180 0.02100
C 	C 	0.50660 0.41810 0.32240 0.21800
C 	C 	0.13910 0.37250 0.49890 -0.04900
H 	H 	0.18630 0.40450 0.50810 0.04500
C 	C 	0.91780 0.32360 0.27640 0.11800
C 	C 	0.38350 0.34520 0.35120 -0.01600
H 	H 	0.34880 0.38500 0.35220 0.05500
C 	C 	0.00350 0.32880 0.52050 0.02700
H 	H 	0.95580 0.32900 0.54620 0.02100
C 	C 	0.74130 0.49260 0.35410 -0.04600
H 	H 	0.76890 0.45170 0.37120 0.04000
C 	C 	0.53680 0.15780 0.34790 0.22800
C 	C 	0.47400 0.34780 0.33650 -0.05700
C 	C 	0.34840 0.28120 0.36420 -0.05600
C 	C 	0.73290 0.99150 0.35000 -0.01600
H 	H 	0.74420 0.95720 0.38390 0.04600
C 	C 	0.65670 0.09190 0.30670 0.13400
C 	C 	0.77410 0.98910 0.29300 0.02900
H 	H 	0.81470 0.95340 0.28910 0.02700
C 	C 	0.48730 0.22470 0.34620 -0.06500
C 	C 	0.70160 0.08630 0.25040 -0.05000
H 	H 	0.69140 0.11980 0.21570 0.04200
C 	C 	0.67390 0.04470 0.35820 -0.11800
H 	H 	0.64680 0.04790 0.39810 0.10300
C 	C 	0.75370 0.60550 0.32610 0.01100
H 	H 	0.78950 0.64430 0.32280 0.02900
C 	C 	0.60550 0.55320 0.30980 -0.11900
H 	H 	0.54210 0.55580 0.29680 0.10300
C 	C 	0.65920 0.61020 0.30520 -0.01200
H 	H 	0.63250 0.65150 0.28840 0.04100
C 	C 	0.14220 0.32450 0.44570 0.12800
C 	C 	0.06950 0.27950 0.42820 -0.10800
H 	H 	0.06740 0.24890 0.39100 0.09400
C 	C 	0.00000 0.28170 0.46760 -0.02300
H 	H 	0.95100 0.25120 0.45830 0.04400
C 	C 	0.25760 0.27170 0.38580 0.22000
Co	Co	0.94135 0.54424 0.38753 1.18000
Co	Co	0.16560 0.53489 0.34340 1.18500
H 	H 	0.19600 0.53700 0.49900 -0.06900
N 	N 	0.07180 0.37510 0.53760 -0.18900
N 	N 	0.21850 0.32730 0.41060 -0.24600
H 	H 	0.24160 0.36700 0.40450 0.15600
N 	N 	0.79500 0.54690 0.35090 -0.18900
N 	N 	0.59980 0.43090 0.34030 -0.23500
H 	H 	0.63320 0.39680 0.35770 0.12700
N 	N 	0.75930 0.03490 0.24300 -0.18600
N 	N 	0.60070 0.15040 0.30860 -0.24800
H 	H 	0.60890 0.18410 0.28170 0.12700
N 	N 	0.45830 0.62920 0.44010 -0.32300
H 	H 	0.49990 0.66060 0.44620 0.15700
H 	H 	0.40470 0.63850 0.41710 0.18000
N 	N 	0.84480 0.35070 0.29810 -0.30800
H 	H 	0.84620 0.39280 0.31210 0.17500
H 	H 	0.79640 0.32630 0.29810 0.13700
N 	N 	0.82560 0.22880 0.26460 -0.29600
H 	H 	0.81280 0.18620 0.25580 0.16400
H 	H 	0.78710 0.25480 0.28100 0.13100
O 	O 	0.51780 0.11070 0.38580 -0.22400
O 	O 	0.22320 0.21380 0.38770 -0.22300
O 	O 	0.45340 0.46330 0.29720 -0.22500
O 	O 	0.03850 0.12184 0.18018 -0.43300
O 	O 	0.89020 0.12408 0.19470 -0.44100
O 	O 	0.94800 0.46199 0.32108 -0.43800
O 	O 	0.09140 0.45649 0.29940 -0.45500
O 	O 	0.26570 0.46852 0.40791 -0.37400
O 	O 	0.28800 0.58022 0.40466 -0.37300
O 	O 	0.08540 0.54014 0.42600 -0.53200
O 	O 	0.08060 0.53181 0.54047 -0.43000
C 	C 	0.98690 0.93090 0.19850 0.40200
C 	C 	0.87950 0.03260 0.01120 0.39300
C 	C 	0.68120 0.02060 0.07580 0.29600
C 	C 	0.03030 0.65090 0.30090 0.38300
C 	C 	0.93080 0.82530 0.25110 0.00000
H 	H 	0.87630 0.84860 0.25280 0.04500
C 	C 	0.00180 0.85860 0.22550 -0.13400
C 	C 	0.58880 0.01130 0.03730 -0.10100
C 	C 	0.56300 0.94910 0.00360 -0.07600
H 	H 	0.60700 0.91460 0.00610 0.07100
C 	C 	0.02110 0.72290 0.27340 -0.12200
C 	C 	0.60080 0.72250 0.13770 -0.00800
H 	H 	0.62570 0.68030 0.12810 0.06500
C 	C 	0.94100 0.75810 0.27380 -0.00800
H 	H 	0.89240 0.73620 0.28970 0.04800
C 	C 	0.52270 0.06460 0.03290 0.14500
C 	C 	0.09330 0.75510 0.24730 0.09200
C 	C 	0.35350 0.99280 0.16650 0.13100
C 	C 	0.47690 0.78730 0.16680 -0.00400
H 	H 	0.41830 0.78940 0.17820 0.02100
C 	C 	0.49340 0.91810 0.17760 0.21800
C 	C 	0.86090 0.87250 0.00110 -0.04000
H 	H 	0.81370 0.90450 0.99190 0.03900
C 	C 	0.08220 0.82360 0.22360 0.11500
C 	C 	0.61650 0.84520 0.14880 -0.01600
H 	H 	0.65120 0.88500 0.14780 0.05500
C 	C 	0.99650 0.82880 0.97950 0.01100
H 	H 	0.04420 0.82900 0.95380 0.02700
C 	C 	0.25870 0.99260 0.14590 -0.04300
H 	H 	0.23110 0.95170 0.12880 0.04000
C 	C 	0.46320 0.65780 0.15210 0.22800
C 	C 	0.52600 0.84780 0.16350 -0.05600
C 	C 	0.65160 0.78120 0.13580 -0.05600
C 	C 	0.26710 0.49150 0.15000 -0.01700
H 	H 	0.25580 0.45720 0.11610 0.04600
C 	C 	0.34330 0.59190 0.19330 0.13400
C 	C 	0.22590 0.48910 0.20700 0.02700
H 	H 	0.18530 0.45340 0.21090 0.02700
C 	C 	0.51270 0.72470 0.15380 -0.06500
C 	C 	0.29840 0.58630 0.24960 -0.05000
H 	H 	0.30860 0.61980 0.28430 0.04300
C 	C 	0.32610 0.54470 0.14180 -0.11600
H 	H 	0.35320 0.54790 0.10190 0.10200
C 	C 	0.24630 0.10550 0.17390 0.00800
H 	H 	0.21050 0.14430 0.17720 0.03000
C 	C 	0.39450 0.05320 0.19020 -0.12700
H 	H 	0.45790 0.05580 0.20320 0.10500
C 	C 	0.34080 0.11020 0.19480 -0.00900
H 	H 	0.36750 0.15150 0.21160 0.03900
C 	C 	0.85780 0.82450 0.05430 0.12800
C 	C 	0.93050 0.77950 0.07180 -0.11700
H 	H 	0.93260 0.74890 0.10900 0.09700
C 	C 	0.00000 0.78170 0.03240 -0.00600
H 	H 	0.04900 0.75120 0.04170 0.03900
C 	C 	0.74240 0.77170 0.11420 0.22000
Co	Co	0.05865 0.04424 0.11247 1.17800
Co	Co	0.83440 0.03489 0.15660 1.18300
H 	H 	0.80400 0.03700 0.00100 -0.06900
N 	N 	0.92820 0.87510 0.96240 -0.19000
N 	N 	0.78150 0.82730 0.08940 -0.24600
H 	H 	0.75840 0.86700 0.09550 0.15700
N 	N 	0.20500 0.04690 0.14910 -0.19100
N 	N 	0.40020 0.93090 0.15970 -0.23500
H 	H 	0.36680 0.89680 0.14230 0.12800
N 	N 	0.24070 0.53490 0.25700 -0.18500
N 	N 	0.39930 0.65040 0.19140 -0.24800
H 	H 	0.39110 0.68410 0.21830 0.12700
N 	N 	0.54170 0.12920 0.05990 -0.32100
H 	H 	0.50010 0.16060 0.05380 0.15500
H 	H 	0.59530 0.13850 0.08290 0.17900
N 	N 	0.15520 0.85070 0.20190 -0.30700
H 	H 	0.15380 0.89280 0.18790 0.17500
H 	H 	0.20360 0.82630 0.20190 0.13700
N 	N 	0.17440 0.72880 0.23540 -0.29600
H 	H 	0.18720 0.68620 0.24420 0.16400
H 	H 	0.21290 0.75480 0.21900 0.13200
O 	O 	0.48220 0.61070 0.11420 -0.22400
O 	O 	0.77680 0.71380 0.11230 -0.22300
O 	O 	0.54660 0.96330 0.20280 -0.22300
O 	O 	0.96150 0.62184 0.31982 -0.43300
O 	O 	0.10980 0.62408 0.30530 -0.44100
O 	O 	0.05200 0.96199 0.17892 -0.43200
O 	O 	0.90860 0.95649 0.20060 -0.45200
O 	O 	0.73430 0.96852 0.09209 -0.37100
O 	O 	0.71200 0.08022 0.09534 -0.37200
O 	O 	0.91460 0.04014 0.07400 -0.53200
O 	O 	0.91940 0.03181 0.95953 -0.42300
C 	C 	0.98690 0.56910 0.69850 0.40600
C 	C 	0.87950 0.46740 0.51120 0.40100
C 	C 	0.68120 0.47940 0.57580 0.29900
C 	C 	0.03030 0.84910 0.80090 0.38300
C 	C 	0.93080 0.67470 0.75110 0.00300
H 	H 	0.87630 0.65140 0.75280 0.04400
C 	C 	0.00180 0.64140 0.72550 -0.13800
C 	C 	0.58880 0.48870 0.53730 -0.09600
C 	C 	0.56300 0.55090 0.50360 -0.08900
H 	H 	0.60700 0.58540 0.50610 0.07400
C 	C 	0.02110 0.77710 0.77340 -0.12100
C 	C 	0.60080 0.77750 0.63770 -0.00800
H 	H 	0.62570 0.81970 0.62810 0.06500
C 	C 	0.94100 0.74190 0.77380 -0.00900
H 	H 	0.89240 0.76380 0.78970 0.04900
C 	C 	0.52270 0.43540 0.53290 0.15200
C 	C 	0.09330 0.74490 0.74730 0.09100
C 	C 	0.35350 0.50720 0.66650 0.12600
C 	C 	0.47690 0.71270 0.66680 -0.00400
H 	H 	0.41830 0.71060 0.67820 0.02100
C 	C 	0.49340 0.58190 0.67760 0.21800
C 	C 	0.86090 0.62750 0.50110 -0.05100
H 	H 	0.81370 0.59550 0.49190 0.04500
C 	C 	0.08220 0.67640 0.72360 0.11700
C 	C 	0.61650 0.65480 0.64880 -0.01600
H 	H 	0.65120 0.61500 0.64780 0.05500
C 	C 	0.99650 0.67120 0.47950 0.01900
H 	H 	0.04420 0.67100 0.45380 0.02500
C 	C 	0.25870 0.50740 0.64590 -0.04600
H 	H 	0.23110 0.54830 0.62880 0.04000
C 	C 	0.46320 0.84220 0.65210 0.22800
C 	C 	0.52600 0.65220 0.66350 -0.05700
C 	C 	0.65160 0.71880 0.63580 -0.05600
C 	C 	0.26710 0.00850 0.65000 -0.01600
H 	H 	0.25580 0.04280 0.61610 0.04600
C 	C 	0.34330 0.90810 0.69330 0.13400
C 	C 	0.22590 0.01090 0.70700 0.02900
H 	H 	0.18530 0.04660 0.71090 0.02700
C 	C 	0.51270 0.77530 0.65380 -0.06500
C 	C 	0.29840 0.91370 0.74960 -0.05000
H 	H 	0.30860 0.88020 0.78430 0.04300
C 	C 	0.32610 0.95530 0.64180 -0.11800
H 	H 	0.35320 0.95210 0.60190 0.10300
C 	C 	0.24630 0.39450 0.67390 0.01100
H 	H 	0.21050 0.35570 0.67720 0.02900
C 	C 	0.39450 0.44680 0.69020 -0.11900
H 	H 	0.45790 0.44420 0.70320 0.10300
C 	C 	0.34080 0.38980 0.69480 -0.01200
H 	H 	0.36750 0.34850 0.71160 0.04100
C 	C 	0.85780 0.67550 0.55430 0.13000
C 	C 	0.93050 0.72050 0.57180 -0.11400
H 	H 	0.93260 0.75110 0.60900 0.09600
C 	C 	0.00000 0.71830 0.53240 -0.01500
H 	H 	0.04900 0.74880 0.54170 0.04100
C 	C 	0.74240 0.72830 0.61420 0.22000
Co	Co	0.05865 0.45576 0.61247 1.18000
Co	Co	0.83440 0.46511 0.65660 1.18400
H 	H 	0.80400 0.46300 0.50100 -0.06900
N 	N 	0.92820 0.62490 0.46240 -0.18800
N 	N 	0.78150 0.67270 0.58940 -0.24700
H 	H 	0.75840 0.63300 0.59550 0.15600
N 	N 	0.20500 0.45310 0.64910 -0.18900
N 	N 	0.40020 0.56910 0.65970 -0.23500
H 	H 	0.36680 0.60320 0.64230 0.12700
N 	N 	0.24070 0.96510 0.75700 -0.18600
N 	N 	0.39930 0.84960 0.69140 -0.24800
H 	H 	0.39110 0.81590 0.71830 0.12700
N 	N 	0.54170 0.37080 0.55990 -0.32300
H 	H 	0.50010 0.33940 0.55380 0.15700
H 	H 	0.59530 0.36150 0.58290 0.18000
N 	N 	0.15520 0.64930 0.70190 -0.30800
H 	H 	0.15380 0.60720 0.68790 0.17500
H 	H 	0.20360 0.67370 0.70190 0.13700
N 	N 	0.17440 0.77120 0.73540 -0.29600
H 	H 	0.18720 0.81380 0.74420 0.16400
H 	H 	0.21290 0.74520 0.71900 0.13100
O 	O 	0.48220 0.88930 0.61420 -0.22400
O 	O 	0.77680 0.78620 0.61230 -0.22300
O 	O 	0.54660 0.53670 0.70280 -0.22500
O 	O 	0.96150 0.87816 0.81982 -0.43400
O 	O 	0.10980 0.87592 0.80530 -0.44200
O 	O 	0.05200 0.53801 0.67892 -0.43600
O 	O 	0.90860 0.54351 0.70060 -0.45400
O 	O 	0.73430 0.53148 0.59209 -0.37400
O 	O 	0.71200 0.41978 0.59534 -0.37300
O 	O 	0.91460 0.45986 0.57400 -0.53300
O 	O 	0.91940 0.46819 0.45953 -0.43000
C 	C 	0.01310 0.06910 0.80150 0.40500
C 	C 	0.12050 0.96740 0.98880 0.39300
C 	C 	0.31880 0.97940 0.92420 0.29600
C 	C 	0.96970 0.34910 0.69910 0.38100
C 	C 	0.06920 0.17470 0.74890 0.00300
H 	H 	0.12370 0.15140 0.74720 0.04400
C 	C 	0.99820 0.14140 0.77450 -0.13800
C 	C 	0.41120 0.98870 0.96270 -0.10100
C 	C 	0.43700 0.05090 0.99640 -0.07500
H 	H 	0.39300 0.08540 0.99390 0.07100
C 	C 	0.97890 0.27710 0.72660 -0.12200
C 	C 	0.39920 0.27750 0.86230 -0.00900
H 	H 	0.37430 0.31970 0.87190 0.06500
C 	C 	0.05900 0.24190 0.72620 -0.00800
H 	H 	0.10760 0.26380 0.71030 0.04800
C 	C 	0.47730 0.93540 0.96710 0.14500
C 	C 	0.90670 0.24490 0.75270 0.09200
C 	C 	0.64650 0.00720 0.83350 0.13100
C 	C 	0.52310 0.21270 0.83320 -0.00400
H 	H 	0.58170 0.21060 0.82180 0.02100
C 	C 	0.50660 0.08190 0.82240 0.21800
C 	C 	0.13910 0.12750 0.99890 -0.03700
H 	H 	0.18630 0.09550 0.00810 0.03700
C 	C 	0.91780 0.17640 0.77640 0.11600
C 	C 	0.38350 0.15480 0.85120 -0.01600
H 	H 	0.34880 0.11500 0.85220 0.05500
C 	C 	0.00350 0.17120 0.02050 0.02100
H 	H 	0.95580 0.17100 0.04620 0.02300
C 	C 	0.74130 0.00740 0.85410 -0.04300
H 	H 	0.76890 0.04830 0.87120 0.04000
C 	C 	0.53680 0.34220 0.84790 0.22800
C 	C 	0.47400 0.15220 0.83650 -0.05600
C 	C 	0.34840 0.21880 0.86420 -0.05600
C 	C 	0.73290 0.50850 0.85000 -0.01700
H 	H 	0.74420 0.54280 0.88390 0.04600
C 	C 	0.65670 0.40810 0.80670 0.13400
C 	C 	0.77410 0.51090 0.79300 0.02700
H 	H 	0.81470 0.54660 0.78910 0.02700
C 	C 	0.48730 0.27530 0.84620 -0.06500
C 	C 	0.70160 0.41370 0.75040 -0.05000
H 	H 	0.69140 0.38020 0.71570 0.04300
C 	C 	0.67390 0.45530 0.85820 -0.11600
H 	H 	0.64680 0.45210 0.89810 0.10200
C 	C 	0.75370 0.89450 0.82610 0.00800
H 	H 	0.78950 0.85570 0.82280 0.03000
C 	C 	0.60550 0.94680 0.80980 -0.12700
H 	H 	0.54210 0.94420 0.79680 0.10500
C 	C 	0.65920 0.88980 0.80520 -0.00900
H 	H 	0.63250 0.84850 0.78840 0.03900
C 	C 	0.14220 0.17550 0.94570 0.12500
C 	C 	0.06950 0.22050 0.92820 -0.10800
H 	H 	0.06740 0.25110 0.89100 0.09500
C 	C 	0.00000 0.21830 0.96760 -0.01900
H 	H 	0.95100 0.24880 0.95830 0.04300
C 	C 	0.25760 0.22830 0.88580 0.22000
Co	Co	0.94135 0.95576 0.88753 1.17800
Co	Co	0.16560 0.96511 0.84340 1.18400
H 	H 	0.19600 0.96300 0.99900 -0.06900
N 	N 	0.07180 0.12490 0.03760 -0.19200
N 	N 	0.21850 0.17270 0.91060 -0.24500
H 	H 	0.24160 0.13300 0.90450 0.15600
N 	N 	0.79500 0.95310 0.85090 -0.19100
N 	N 	0.59980 0.06910 0.84030 -0.23500
H 	H 	0.63320 0.10320 0.85770 0.12800
N 	N 	0.75930 0.46510 0.74300 -0.18500
N 	N 	0.60070 0.34960 0.80860 -0.24800
H 	H 	0.60890 0.31590 0.78170 0.12700
N 	N 	0.45830 0.87080 0.94010 -0.32100
H 	H 	0.49990 0.83940 0.94620 0.15600
H 	H 	0.40470 0.86150 0.91710 0.17900
N 	N 	0.84480 0.14930 0.79810 -0.30800
H 	H 	0.84620 0.10720 0.81210 0.17500
H 	H 	0.79640 0.17370 0.79810 0.13700
N 	N 	0.82560 0.27120 0.76460 -0.29600
H 	H 	0.81280 0.31380 0.75580 0.16400
H 	H 	0.78710 0.24520 0.78100 0.13100
O 	O 	0.51780 0.38930 0.88580 -0.22400
O 	O 	0.22320 0.28620 0.88770 -0.22200
O 	O 	0.45340 0.03670 0.79720 -0.22300
O 	O 	0.03850 0.37816 0.68018 -0.43200
O 	O 	0.89020 0.37592 0.69470 -0.44100
O 	O 	0.94800 0.03801 0.82108 -0.43400
O 	O 	0.09140 0.04351 0.79940 -0.45300
O 	O 	0.26570 0.03148 0.90791 -0.37000
O 	O 	0.28800 0.91978 0.90466 -0.37200
O 	O 	0.08540 0.95986 0.92600 -0.53100
O 	O 	0.08060 0.96819 0.04047 -0.42300
