data_crystal

_cell_length_a 10.13180
_cell_length_b 16.17520
_cell_length_c 23.10150
_cell_angle_alpha 90.00000
_cell_angle_beta  93.41100
_cell_angle_gamma 90.00000

_symmetry_space_group_name_	'P 1'
_symmetry_space_group_name_H-M	'P 1'

loop_
_symmetry_equiv_pos_as_xyz
  x,y,z

loop_
_atom_site_label
_atom_site_type_symbol
_atom_site_fract_x
_atom_site_fract_y
_atom_site_fract_z
_atom_site_charge
Cd	Cd	0.68919 0.07902 0.73986 1.21600
Cd	Cd	0.33278 0.99523 0.77087 1.21500
N 	N 	0.37030 0.85800 0.78506 -0.23300
N 	N 	0.11530 0.01930 0.77397 -0.23800
C 	C 	0.99380 0.97220 0.68300 -0.14200
O 	O 	0.69940 0.85700 0.73471 -0.24300
N 	N 	0.35010 0.72070 0.77365 -0.22000
N 	N 	0.67350 0.05690 0.63949 -0.23700
C 	C 	0.07950 0.05720 0.82390 -0.02400
N 	N 	0.67000 0.01210 0.33260 -0.23300
O 	O 	0.29750 0.04940 0.86470 -0.34900
C 	C 	0.00260 0.01130 0.74060 0.14400
O 	O 	0.53440 0.60770 0.73982 -0.49500
N 	N 	0.89680 0.04320 0.76611 -0.23200
C 	C 	0.29150 0.79100 0.78960 0.14500
C 	C 	0.48500 0.82820 0.76530 -0.02800
C 	C 	0.98010 0.88790 0.67690 0.09100
H 	H 	0.97640 0.85520 0.70990 0.01200
O 	O 	0.73700 0.11830 0.84217 -0.35800
C 	C 	0.59350 0.88550 0.75340 0.31400
C 	C 	0.18170 0.07210 0.87080 0.28200
C 	C 	0.67270 0.02780 0.45410 0.06100
C 	C 	0.67240 0.03720 0.51780 0.05200
C 	C 	0.66670 0.98200 0.61450 0.07400
H 	H 	0.66300 0.93580 0.63830 0.00800
C 	C 	0.99980 0.02010 0.63350 0.07400
H 	H 	0.00860 0.07710 0.63700 0.00200
C 	C 	0.97850 0.89950 0.57390 0.23000
C 	C 	0.66740 0.94660 0.36730 0.07900
H 	H 	0.66530 0.89450 0.35030 -0.00700
C 	C 	0.66480 0.96980 0.55550 -0.12000
H 	H 	0.65850 0.91650 0.54050 0.08000
C 	C 	0.15980 0.79430 0.81320 -0.17100
C 	C 	0.05960 0.73910 0.79350 0.12500
H 	H 	0.07730 0.69950 0.76580 -0.04100
C 	C 	0.93580 0.74330 0.81460 -0.25600
H 	H 	0.87060 0.70610 0.80160 0.14200
C 	C 	0.99300 0.98450 0.57920 -0.20400
H 	H 	0.99800 0.01720 0.54630 0.12300
C 	C 	0.97150 0.85050 0.62270 -0.22000
H 	H 	0.96130 0.79360 0.61930 0.12300
C 	C 	0.66750 0.95130 0.42680 -0.13100
H 	H 	0.66410 0.90320 0.44870 0.08300
C 	C 	0.12910 0.85200 0.85390 0.12600
H 	H 	0.19400 0.88890 0.86760 -0.02600
C 	C 	0.67740 0.08650 0.35860 0.07500
H 	H 	0.68240 0.13340 0.33550 -0.00800
C 	C 	0.90840 0.80170 0.85460 0.26600
C 	C 	0.67780 0.09650 0.41750 -0.13100
H 	H 	0.68160 0.14940 0.43330 0.08400
C 	C 	0.68000 0.12180 0.60370 0.07100
H 	H 	0.68550 0.17430 0.62000 -0.01000
C 	C 	0.00440 0.85670 0.87510 -0.26500
H 	H 	0.98560 0.89620 0.90270 0.13500
O 	O 	0.78030 0.80050 0.87190 -0.20000
C 	C 	0.67920 0.11510 0.54470 -0.12700
H 	H 	0.68310 0.16250 0.52220 0.07900
O 	O 	0.68170 0.70580 0.72554 -0.25100
C 	C 	0.47290 0.74360 0.75800 -0.03100
C 	C 	0.56920 0.68270 0.73930 0.31600
C 	C 	0.94600 0.07200 0.81850 -0.06700
O 	O 	0.14520 0.10840 0.91644 -0.25800
C 	C 	0.96390 0.78620 0.50770 -0.22300
H 	H 	0.04670 0.76100 0.51990 0.11900
H 	H 	0.94570 0.77660 0.46700 0.11500
H 	H 	0.89460 0.76250 0.52890 0.11500
O 	O 	0.90380 0.13400 0.90818 -0.43700
O 	O 	0.97060 0.87130 0.51819 -0.19600
C 	C 	0.85450 0.11070 0.85810 0.34000
C 	C 	0.73760 0.86630 0.90530 -0.19400
H 	H 	0.78970 0.86830 0.94140 0.10300
H 	H 	0.64630 0.85860 0.91280 0.10500
H 	H 	0.74770 0.91720 0.88470 0.10100
O 	O 	0.57480 0.96040 0.76162 -0.48000
H 	H 	0.98700 0.13200 0.90500 0.26500
Cd	Cd	0.31081 0.57902 0.76014 1.21500
Cd	Cd	0.66722 0.49523 0.72913 1.21400
N 	N 	0.62970 0.35800 0.71494 -0.23300
N 	N 	0.88470 0.51930 0.72603 -0.23800
C 	C 	0.00620 0.47220 0.81700 -0.15900
O 	O 	0.30060 0.35700 0.76529 -0.24300
N 	N 	0.64990 0.22070 0.72635 -0.22000
N 	N 	0.32650 0.55690 0.86051 -0.23700
C 	C 	0.92050 0.55720 0.67610 -0.02900
N 	N 	0.33000 0.51210 0.16740 -0.23200
O 	O 	0.70250 0.54940 0.63530 -0.35000
C 	C 	0.99740 0.51130 0.75940 0.14400
O 	O 	0.46560 0.10770 0.76018 -0.49400
N 	N 	0.10320 0.54320 0.73389 -0.23100
C 	C 	0.70850 0.29100 0.71040 0.14400
C 	C 	0.51500 0.32820 0.73470 -0.02800
C 	C 	0.01990 0.38790 0.82310 0.10700
H 	H 	0.02360 0.35520 0.79010 0.00700
O 	O 	0.26300 0.61830 0.65783 -0.35800
C 	C 	0.40650 0.38550 0.74660 0.31400
C 	C 	0.81830 0.57210 0.62920 0.28300
C 	C 	0.32730 0.52780 0.04590 0.06100
C 	C 	0.32760 0.53720 0.98220 0.05300
C 	C 	0.33330 0.48200 0.88550 0.07300
H 	H 	0.33700 0.43580 0.86170 0.00800
C 	C 	0.00020 0.52010 0.86650 0.10800
H 	H 	0.99140 0.57710 0.86300 -0.01200
C 	C 	0.02150 0.39950 0.92610 0.24700
C 	C 	0.33260 0.44660 0.13270 0.07800
H 	H 	0.33470 0.39450 0.14970 -0.00700
C 	C 	0.33520 0.46980 0.94450 -0.12200
H 	H 	0.34150 0.41650 0.95950 0.08000
C 	C 	0.84020 0.29430 0.68680 -0.16800
C 	C 	0.94040 0.23910 0.70650 0.12000
H 	H 	0.92270 0.19950 0.73420 -0.04000
C 	C 	0.06420 0.24330 0.68540 -0.25100
H 	H 	0.12940 0.20610 0.69840 0.14000
C 	C 	0.00700 0.48450 0.92080 -0.23600
H 	H 	0.00200 0.51720 0.95370 0.13700
C 	C 	0.02850 0.35050 0.87730 -0.23600
H 	H 	0.03870 0.29360 0.88070 0.12900
C 	C 	0.33250 0.45130 0.07320 -0.13200
H 	H 	0.33590 0.40320 0.05130 0.08300
C 	C 	0.87090 0.35200 0.64610 0.12300
H 	H 	0.80600 0.38890 0.63240 -0.02400
C 	C 	0.32260 0.58650 0.14140 0.07500
H 	H 	0.31760 0.63340 0.16450 -0.00700
C 	C 	0.09160 0.30170 0.64540 0.26300
C 	C 	0.32220 0.59650 0.08250 -0.13100
H 	H 	0.31840 0.64940 0.06670 0.08400
C 	C 	0.32000 0.62180 0.89630 0.07200
H 	H 	0.31450 0.67430 0.88000 -0.01000
C 	C 	0.99560 0.35670 0.62490 -0.26100
H 	H 	0.01440 0.39620 0.59730 0.13300
O 	O 	0.21970 0.30050 0.62810 -0.19900
C 	C 	0.32080 0.61510 0.95530 -0.12800
H 	H 	0.31690 0.66250 0.97780 0.07900
O 	O 	0.31830 0.20580 0.77446 -0.25100
C 	C 	0.52710 0.24360 0.74200 -0.03100
C 	C 	0.43080 0.18270 0.76070 0.31600
C 	C 	0.05400 0.57200 0.68150 -0.06200
O 	O 	0.85480 0.60840 0.58356 -0.26000
C 	C 	0.03610 0.28620 0.99230 -0.20300
H 	H 	0.95330 0.26100 0.98010 0.11300
H 	H 	0.05430 0.27660 0.03300 0.10800
H 	H 	0.10540 0.26250 0.97110 0.11000
O 	O 	0.09620 0.63400 0.59182 -0.43700
O 	O 	0.02940 0.37130 0.98181 -0.20500
C 	C 	0.14550 0.61070 0.64190 0.33900
C 	C 	0.26240 0.36630 0.59470 -0.19500
H 	H 	0.21030 0.36830 0.55860 0.10300
H 	H 	0.35370 0.35860 0.58720 0.10600
H 	H 	0.25230 0.41720 0.61530 0.10200
O 	O 	0.42520 0.46040 0.73838 -0.48000
H 	H 	0.01300 0.63200 0.59500 0.26600
Cd	Cd	0.31081 0.92098 0.26014 1.21500
Cd	Cd	0.66722 0.00477 0.22913 1.21400
N 	N 	0.62970 0.14200 0.21494 -0.23300
N 	N 	0.88470 0.98070 0.22603 -0.23800
C 	C 	0.00620 0.02780 0.31700 -0.14200
O 	O 	0.30060 0.14300 0.26529 -0.24300
N 	N 	0.64990 0.27930 0.22635 -0.22000
N 	N 	0.32650 0.94310 0.36051 -0.23700
C 	C 	0.92050 0.94280 0.17610 -0.02400
N 	N 	0.33000 0.98790 0.66740 -0.23300
O 	O 	0.70250 0.95060 0.13530 -0.34900
C 	C 	0.99740 0.98870 0.25940 0.14400
O 	O 	0.46560 0.39230 0.26018 -0.49500
N 	N 	0.10320 0.95680 0.23389 -0.23200
C 	C 	0.70850 0.20900 0.21040 0.14500
C 	C 	0.51500 0.17180 0.23470 -0.02800
C 	C 	0.01990 0.11210 0.32310 0.09100
H 	H 	0.02360 0.14480 0.29010 0.01200
O 	O 	0.26300 0.88170 0.15783 -0.35800
C 	C 	0.40650 0.11450 0.24660 0.31400
C 	C 	0.81830 0.92790 0.12920 0.28200
C 	C 	0.32730 0.97220 0.54590 0.06100
C 	C 	0.32760 0.96280 0.48220 0.05200
C 	C 	0.33330 0.01800 0.38550 0.07400
H 	H 	0.33700 0.06420 0.36170 0.00800
C 	C 	0.00020 0.97990 0.36650 0.07400
H 	H 	0.99140 0.92290 0.36300 0.00200
C 	C 	0.02150 0.10050 0.42610 0.23000
C 	C 	0.33260 0.05340 0.63270 0.07900
H 	H 	0.33470 0.10550 0.64970 -0.00700
C 	C 	0.33520 0.03020 0.44450 -0.12000
H 	H 	0.34150 0.08350 0.45950 0.08000
C 	C 	0.84020 0.20570 0.18680 -0.17100
C 	C 	0.94040 0.26090 0.20650 0.12500
H 	H 	0.92270 0.30050 0.23420 -0.04100
C 	C 	0.06420 0.25670 0.18540 -0.25600
H 	H 	0.12940 0.29390 0.19840 0.14200
C 	C 	0.00700 0.01550 0.42080 -0.20400
H 	H 	0.00200 0.98280 0.45370 0.12300
C 	C 	0.02850 0.14950 0.37730 -0.22000
H 	H 	0.03870 0.20640 0.38070 0.12300
C 	C 	0.33250 0.04870 0.57320 -0.13100
H 	H 	0.33590 0.09680 0.55130 0.08300
C 	C 	0.87090 0.14800 0.14610 0.12600
H 	H 	0.80600 0.11110 0.13240 -0.02600
C 	C 	0.32260 0.91350 0.64140 0.07500
H 	H 	0.31760 0.86660 0.66450 -0.00800
C 	C 	0.09160 0.19830 0.14540 0.26600
C 	C 	0.32220 0.90350 0.58250 -0.13100
H 	H 	0.31840 0.85060 0.56670 0.08400
C 	C 	0.32000 0.87820 0.39630 0.07100
H 	H 	0.31450 0.82570 0.38000 -0.01000
C 	C 	0.99560 0.14330 0.12490 -0.26500
H 	H 	0.01440 0.10380 0.09730 0.13500
O 	O 	0.21970 0.19950 0.12810 -0.20000
C 	C 	0.32080 0.88490 0.45530 -0.12700
H 	H 	0.31690 0.83750 0.47780 0.07900
O 	O 	0.31830 0.29420 0.27446 -0.25100
C 	C 	0.52710 0.25640 0.24200 -0.03100
C 	C 	0.43080 0.31730 0.26070 0.31600
C 	C 	0.05400 0.92800 0.18150 -0.06700
O 	O 	0.85480 0.89160 0.08356 -0.25800
C 	C 	0.03610 0.21380 0.49230 -0.22300
H 	H 	0.95330 0.23900 0.48010 0.11900
H 	H 	0.05430 0.22340 0.53300 0.11500
H 	H 	0.10540 0.23750 0.47110 0.11500
O 	O 	0.09620 0.86600 0.09182 -0.43700
O 	O 	0.02940 0.12870 0.48181 -0.19600
C 	C 	0.14550 0.88930 0.14190 0.34000
C 	C 	0.26240 0.13370 0.09470 -0.19400
H 	H 	0.21030 0.13170 0.05860 0.10300
H 	H 	0.35370 0.14140 0.08720 0.10500
H 	H 	0.25230 0.08280 0.11530 0.10100
O 	O 	0.42520 0.03960 0.23838 -0.48000
H 	H 	0.01300 0.86800 0.09500 0.26500
Cd	Cd	0.68919 0.42098 0.23986 1.21500
Cd	Cd	0.33278 0.50477 0.27087 1.21400
N 	N 	0.37030 0.64200 0.28506 -0.23300
N 	N 	0.11530 0.48070 0.27397 -0.23800
C 	C 	0.99380 0.52780 0.18300 -0.15900
O 	O 	0.69940 0.64300 0.23471 -0.24300
N 	N 	0.35010 0.77930 0.27365 -0.22000
N 	N 	0.67350 0.44310 0.13949 -0.23700
C 	C 	0.07950 0.44280 0.32390 -0.02900
N 	N 	0.67000 0.48790 0.83260 -0.23200
O 	O 	0.29750 0.45060 0.36470 -0.35000
C 	C 	0.00260 0.48870 0.24060 0.14400
O 	O 	0.53440 0.89230 0.23982 -0.49400
N 	N 	0.89680 0.45680 0.26611 -0.23100
C 	C 	0.29150 0.70900 0.28960 0.14400
C 	C 	0.48500 0.67180 0.26530 -0.02800
C 	C 	0.98010 0.61210 0.17690 0.10700
H 	H 	0.97640 0.64480 0.20990 0.00700
O 	O 	0.73700 0.38170 0.34217 -0.35800
C 	C 	0.59350 0.61450 0.25340 0.31400
C 	C 	0.18170 0.42790 0.37080 0.28300
C 	C 	0.67270 0.47220 0.95410 0.06100
C 	C 	0.67240 0.46280 0.01780 0.05300
C 	C 	0.66670 0.51800 0.11450 0.07300
H 	H 	0.66300 0.56420 0.13830 0.00800
C 	C 	0.99980 0.47990 0.13350 0.10800
H 	H 	0.00860 0.42290 0.13700 -0.01200
C 	C 	0.97850 0.60050 0.07390 0.24700
C 	C 	0.66740 0.55340 0.86730 0.07800
H 	H 	0.66530 0.60550 0.85030 -0.00700
C 	C 	0.66480 0.53020 0.05550 -0.12200
H 	H 	0.65850 0.58350 0.04050 0.08000
C 	C 	0.15980 0.70570 0.31320 -0.16800
C 	C 	0.05960 0.76090 0.29350 0.12000
H 	H 	0.07730 0.80050 0.26580 -0.04000
C 	C 	0.93580 0.75670 0.31460 -0.25100
H 	H 	0.87060 0.79390 0.30160 0.14000
C 	C 	0.99300 0.51550 0.07920 -0.23600
H 	H 	0.99800 0.48280 0.04630 0.13700
C 	C 	0.97150 0.64950 0.12270 -0.23600
H 	H 	0.96130 0.70640 0.11930 0.12900
C 	C 	0.66750 0.54870 0.92680 -0.13200
H 	H 	0.66410 0.59680 0.94870 0.08300
C 	C 	0.12910 0.64800 0.35390 0.12300
H 	H 	0.19400 0.61110 0.36760 -0.02400
C 	C 	0.67740 0.41350 0.85860 0.07500
H 	H 	0.68240 0.36660 0.83550 -0.00700
C 	C 	0.90840 0.69830 0.35460 0.26300
C 	C 	0.67780 0.40350 0.91750 -0.13100
H 	H 	0.68160 0.35060 0.93330 0.08400
C 	C 	0.68000 0.37820 0.10370 0.07200
H 	H 	0.68550 0.32570 0.12000 -0.01000
C 	C 	0.00440 0.64330 0.37510 -0.26100
H 	H 	0.98560 0.60380 0.40270 0.13300
O 	O 	0.78030 0.69950 0.37190 -0.19900
C 	C 	0.67920 0.38490 0.04470 -0.12800
H 	H 	0.68310 0.33750 0.02220 0.07900
O 	O 	0.68170 0.79420 0.22554 -0.25100
C 	C 	0.47290 0.75640 0.25800 -0.03100
C 	C 	0.56920 0.81730 0.23930 0.31600
C 	C 	0.94600 0.42800 0.31850 -0.06200
O 	O 	0.14520 0.39160 0.41644 -0.26000
C 	C 	0.96390 0.71380 0.00770 -0.20300
H 	H 	0.04670 0.73900 0.01990 0.11300
H 	H 	0.94570 0.72340 0.96700 0.10800
H 	H 	0.89460 0.73750 0.02890 0.11000
O 	O 	0.90380 0.36600 0.40818 -0.43700
O 	O 	0.97060 0.62870 0.01819 -0.20500
C 	C 	0.85450 0.38930 0.35810 0.33900
C 	C 	0.73760 0.63370 0.40530 -0.19500
H 	H 	0.78970 0.63170 0.44140 0.10300
H 	H 	0.64630 0.64140 0.41280 0.10600
H 	H 	0.74770 0.58280 0.38470 0.10200
O 	O 	0.57480 0.53960 0.26162 -0.48000
H 	H 	0.98700 0.36800 0.40500 0.26600
