data_crystal

_cell_length_a 9.25400
_cell_length_b 12.04420
_cell_length_c 13.17000
_cell_angle_alpha 80.06370
_cell_angle_beta  69.43140
_cell_angle_gamma 67.40790

_symmetry_space_group_name_	'P 1'
_symmetry_space_group_name_H-M	'P 1'

loop_
_symmetry_equiv_pos_as_xyz
  x,y,z

loop_
_atom_site_label
_atom_site_type_symbol
_atom_site_fract_x
_atom_site_fract_y
_atom_site_fract_z
_atom_site_charge
Cd	Cd	-0.00000 0.00000 -0.00000 1.06200
Cd	Cd	-0.00000 0.50000 0.50000 1.11600
Ni	Ni	0.36207 0.25000 0.75000 1.05300
Ni	Ni	0.63793 0.75000 0.25000 1.06000
H 	H 	0.00597 0.30882 0.39864 -0.04500
H 	H 	0.84239 0.33799 0.50575 0.06600
H 	H 	0.18040 0.19786 0.50614 0.02400
H 	H 	0.99870 0.22802 0.62276 0.12400
H 	H 	0.82295 0.11568 0.66296 0.03500
H 	H 	0.78431 0.93292 0.63714 0.02200
H 	H 	0.71343 0.19118 0.10136 0.03300
H 	H 	0.68613 0.16201 0.99425 0.10600
H 	H 	0.88440 0.30214 0.99386 0.04700
H 	H 	0.84948 0.27198 0.87724 0.03700
H 	H 	0.60159 0.38432 0.83704 0.05400
H 	H 	0.35437 0.56708 0.86286 -0.01000
H 	H 	0.99403 0.69118 0.60136 0.13700
H 	H 	0.15761 0.66201 0.49425 0.06400
H 	H 	0.81960 0.80214 0.49386 -0.02300
H 	H 	0.00130 0.77198 0.37724 -0.09300
H 	H 	0.17705 0.88432 0.33704 0.02000
H 	H 	0.21569 0.06708 0.36286 0.01100
H 	H 	0.28657 0.80882 0.89864 0.06700
H 	H 	0.31387 0.83799 0.00575 0.02900
H 	H 	0.11560 0.69786 0.00614 -0.04800
H 	H 	0.15052 0.72802 0.12276 -0.00900
H 	H 	0.39841 0.61568 0.16296 0.00400
H 	H 	0.64563 0.43292 0.13714 0.04200
C 	C 	0.23160 0.15830 0.82290 -0.28900
C 	C 	0.51110 0.16560 0.82540 -0.27200
C 	C 	0.95250 0.78650 0.46490 0.13300
C 	C 	0.97740 0.89670 0.48410 0.03900
C 	C 	0.09880 0.93520 0.40860 -0.02900
C 	C 	0.12160 0.03780 0.42320 -0.17800
C 	C 	0.21280 0.34170 0.67710 -0.28300
C 	C 	0.50210 0.33440 0.67460 -0.26700
C 	C 	0.20390 0.71350 0.03510 -0.05900
C 	C 	0.35820 0.60330 0.01590 -0.11500
C 	C 	0.44260 0.56480 0.09140 0.01600
C 	C 	0.58260 0.46220 0.07680 -0.19100
C 	C 	0.76840 0.84170 0.17710 -0.22500
C 	C 	0.48890 0.83440 0.17460 -0.24800
C 	C 	0.04750 0.21350 0.53510 -0.25900
C 	C 	0.02260 0.10330 0.51590 -0.02000
C 	C 	0.90120 0.06480 0.59140 -0.07000
C 	C 	0.87840 0.96220 0.57680 0.04600
C 	C 	0.78720 0.65830 0.32290 -0.23100
C 	C 	0.49790 0.66560 0.32540 -0.25500
C 	C 	0.79610 0.28650 0.96490 -0.05900
C 	C 	0.64180 0.39670 0.98410 0.13900
C 	C 	0.55740 0.43520 0.90860 -0.13800
C 	C 	0.41740 0.53780 0.92320 0.07700
N 	N 	0.15500 0.09910 0.86790 -0.22500
N 	N 	0.60120 0.11780 0.87340 -0.08400
N 	N 	0.03680 0.67620 0.52200 -0.40700
N 	N 	0.12200 0.40090 0.63210 -0.22700
N 	N 	0.59240 0.38220 0.62660 -0.07700
N 	N 	0.23500 0.82380 0.97800 -0.22500
N 	N 	0.84500 0.90090 0.13210 -0.15700
N 	N 	0.39880 0.88220 0.12660 -0.08100
N 	N 	0.96320 0.32380 0.47800 -0.16200
N 	N 	0.87800 0.59910 0.36790 -0.17100
N 	N 	0.40760 0.61780 0.37340 -0.09100
N 	N 	0.76500 0.17620 0.02200 -0.34000
