data_crystal

_cell_length_a 10.08930
_cell_length_b 26.52120
_cell_length_c 9.78980
_cell_angle_alpha 90.00000
_cell_angle_beta  90.00000
_cell_angle_gamma 90.00000

_symmetry_space_group_name_	'P 1'
_symmetry_space_group_name_H-M	'P 1'

loop_
_symmetry_equiv_pos_as_xyz
  x,y,z

loop_
_atom_site_label
_atom_site_type_symbol
_atom_site_fract_x
_atom_site_fract_y
_atom_site_fract_z
_atom_site_charge
Zn	Zn	0.88448 0.54415 0.08667 1.18000
C 	C 	0.86810 0.64041 0.12150 0.32600
C 	C 	0.85270 0.69693 0.11840 -0.08900
C 	C 	0.74740 0.72293 0.04990 0.04000
C 	C 	0.64120 0.69748 0.98760 -0.07900
H 	H 	0.63930 0.66240 0.98760 0.07400
C 	C 	0.54100 0.72371 0.92700 -0.02400
H 	H 	0.47190 0.70640 0.88520 0.04000
C 	C 	0.94780 0.72365 0.18570 -0.02100
H 	H 	0.01410 0.70650 0.23250 0.05600
C 	C 	0.76030 0.49228 0.33500 0.10700
H 	H 	0.83570 0.47370 0.35590 -0.04900
C 	C 	0.62580 0.54080 0.23670 0.10900
H 	H 	0.58820 0.56300 0.17410 -0.03000
N 	N 	0.74850 0.52187 0.22430 -0.29400
N 	N 	0.56490 0.52480 0.34590 -0.26800
N 	N 	0.65210 0.49282 0.41040 -0.26500
O 	O 	0.83070 0.61376 0.02190 -0.45400
O 	O 	0.92210 0.62073 0.22060 -0.36800
Zn	Zn	0.61552 0.45585 0.58667 1.18200
C 	C 	0.63190 0.35959 0.62150 0.32800
C 	C 	0.64730 0.30307 0.61840 -0.08900
C 	C 	0.75260 0.27707 0.54990 0.04300
C 	C 	0.85880 0.30252 0.48760 -0.08100
H 	H 	0.86070 0.33760 0.48760 0.07500
C 	C 	0.95900 0.27629 0.42700 -0.02500
H 	H 	0.02810 0.29360 0.38520 0.04100
C 	C 	0.55220 0.27635 0.68570 -0.01700
H 	H 	0.48590 0.29350 0.73250 0.05300
C 	C 	0.73970 0.50772 0.83500 0.10700
H 	H 	0.66430 0.52630 0.85590 -0.04800
C 	C 	0.87420 0.45920 0.73670 0.10900
H 	H 	0.91180 0.43700 0.67410 -0.03000
N 	N 	0.75150 0.47813 0.72430 -0.29300
N 	N 	0.93510 0.47520 0.84590 -0.26600
N 	N 	0.84790 0.50718 0.91040 -0.26400
O 	O 	0.66930 0.38624 0.52190 -0.45300
O 	O 	0.57790 0.37927 0.72060 -0.36700
Zn	Zn	0.11552 0.04415 0.91333 1.18000
C 	C 	0.13190 0.14041 0.87850 0.32700
C 	C 	0.14730 0.19693 0.88160 -0.08800
C 	C 	0.25260 0.22293 0.95010 0.04100
C 	C 	0.35880 0.19748 0.01240 -0.07800
H 	H 	0.36070 0.16240 0.01240 0.07500
C 	C 	0.45900 0.22371 0.07300 -0.02500
H 	H 	0.52810 0.20640 0.11480 0.04000
C 	C 	0.05220 0.22365 0.81430 -0.02200
H 	H 	0.98590 0.20650 0.76750 0.05700
C 	C 	0.23970 0.99228 0.66500 0.10800
H 	H 	0.16430 0.97370 0.64410 -0.04900
C 	C 	0.37420 0.04080 0.76330 0.10800
H 	H 	0.41180 0.06300 0.82590 -0.03000
N 	N 	0.25150 0.02187 0.77570 -0.29400
N 	N 	0.43510 0.02480 0.65410 -0.26800
N 	N 	0.34790 0.99282 0.58960 -0.26500
O 	O 	0.16930 0.11376 0.97810 -0.45400
O 	O 	0.07790 0.12073 0.77940 -0.36900
Zn	Zn	0.38448 0.95585 0.41333 1.18200
C 	C 	0.36810 0.85959 0.37850 0.32800
C 	C 	0.35270 0.80307 0.38160 -0.08900
C 	C 	0.24740 0.77707 0.45010 0.04300
C 	C 	0.14120 0.80252 0.51240 -0.08100
H 	H 	0.13930 0.83760 0.51240 0.07500
C 	C 	0.04100 0.77629 0.57300 -0.02400
H 	H 	0.97190 0.79360 0.61480 0.04100
C 	C 	0.44780 0.77635 0.31430 -0.01700
H 	H 	0.51410 0.79350 0.26750 0.05300
C 	C 	0.26030 0.00772 0.16500 0.10700
H 	H 	0.33570 0.02630 0.14410 -0.04800
C 	C 	0.12580 0.95920 0.26330 0.10900
H 	H 	0.08820 0.93700 0.32590 -0.02900
N 	N 	0.24850 0.97813 0.27570 -0.29300
N 	N 	0.06490 0.97520 0.15410 -0.26600
N 	N 	0.15210 0.00718 0.08960 -0.26400
O 	O 	0.33070 0.88624 0.47810 -0.45300
O 	O 	0.42210 0.87927 0.27940 -0.36700
Zn	Zn	0.11552 0.45585 0.91333 1.18100
C 	C 	0.13190 0.35959 0.87850 0.32700
C 	C 	0.14730 0.30307 0.88160 -0.08800
C 	C 	0.25260 0.27707 0.95010 0.04100
C 	C 	0.35880 0.30252 0.01240 -0.07800
H 	H 	0.36070 0.33760 0.01240 0.07500
C 	C 	0.45900 0.27629 0.07300 -0.02400
H 	H 	0.52810 0.29360 0.11480 0.04000
C 	C 	0.05220 0.27635 0.81430 -0.02100
H 	H 	0.98590 0.29350 0.76750 0.05600
C 	C 	0.23970 0.50772 0.66500 0.10700
H 	H 	0.16430 0.52630 0.64410 -0.04900
C 	C 	0.37420 0.45920 0.76330 0.10900
H 	H 	0.41180 0.43700 0.82590 -0.03000
N 	N 	0.25150 0.47813 0.77570 -0.29400
N 	N 	0.43510 0.47520 0.65410 -0.26800
N 	N 	0.34790 0.50718 0.58960 -0.26500
O 	O 	0.16930 0.38624 0.97810 -0.45400
O 	O 	0.07790 0.37927 0.77940 -0.36800
Zn	Zn	0.38448 0.54415 0.41333 1.18200
C 	C 	0.36810 0.64041 0.37850 0.32800
C 	C 	0.35270 0.69693 0.38160 -0.08900
C 	C 	0.24740 0.72293 0.45010 0.04300
C 	C 	0.14120 0.69748 0.51240 -0.08100
H 	H 	0.13930 0.66240 0.51240 0.07500
C 	C 	0.04100 0.72371 0.57300 -0.02500
H 	H 	0.97190 0.70640 0.61480 0.04100
C 	C 	0.44780 0.72365 0.31430 -0.01700
H 	H 	0.51410 0.70650 0.26750 0.05300
C 	C 	0.26030 0.49228 0.16500 0.10700
H 	H 	0.33570 0.47370 0.14410 -0.04800
C 	C 	0.12580 0.54080 0.26330 0.10900
H 	H 	0.08820 0.56300 0.32590 -0.03000
N 	N 	0.24850 0.52187 0.27570 -0.29300
N 	N 	0.06490 0.52480 0.15410 -0.26600
N 	N 	0.15210 0.49282 0.08960 -0.26400
O 	O 	0.33070 0.61376 0.47810 -0.45300
O 	O 	0.42210 0.62073 0.27940 -0.36700
Zn	Zn	0.88448 0.95585 0.08667 1.18000
C 	C 	0.86810 0.85959 0.12150 0.32700
C 	C 	0.85270 0.80307 0.11840 -0.08800
C 	C 	0.74740 0.77707 0.04990 0.04100
C 	C 	0.64120 0.80252 0.98760 -0.07800
H 	H 	0.63930 0.83760 0.98760 0.07500
C 	C 	0.54100 0.77629 0.92700 -0.02500
H 	H 	0.47190 0.79360 0.88520 0.04000
C 	C 	0.94780 0.77635 0.18570 -0.02200
H 	H 	0.01410 0.79350 0.23250 0.05700
C 	C 	0.76030 0.00772 0.33500 0.10800
H 	H 	0.83570 0.02630 0.35590 -0.04900
C 	C 	0.62580 0.95920 0.23670 0.10800
H 	H 	0.58820 0.93700 0.17410 -0.03000
N 	N 	0.74850 0.97813 0.22430 -0.29400
N 	N 	0.56490 0.97520 0.34590 -0.26800
N 	N 	0.65210 0.00718 0.41040 -0.26500
O 	O 	0.83070 0.88624 0.02190 -0.45400
O 	O 	0.92210 0.87927 0.22060 -0.36900
Zn	Zn	0.61552 0.04415 0.58667 1.18200
C 	C 	0.63190 0.14041 0.62150 0.32800
C 	C 	0.64730 0.19693 0.61840 -0.08900
C 	C 	0.75260 0.22293 0.54990 0.04300
C 	C 	0.85880 0.19748 0.48760 -0.08100
H 	H 	0.86070 0.16240 0.48760 0.07500
C 	C 	0.95900 0.22371 0.42700 -0.02400
H 	H 	0.02810 0.20640 0.38520 0.04100
C 	C 	0.55220 0.22365 0.68570 -0.01700
H 	H 	0.48590 0.20650 0.73250 0.05300
C 	C 	0.73970 0.99228 0.83500 0.10700
H 	H 	0.66430 0.97370 0.85590 -0.04800
C 	C 	0.87420 0.04080 0.73670 0.10900
H 	H 	0.91180 0.06300 0.67410 -0.02900
N 	N 	0.75150 0.02187 0.72430 -0.29300
N 	N 	0.93510 0.02480 0.84590 -0.26600
N 	N 	0.84790 0.99282 0.91040 -0.26400
O 	O 	0.66930 0.11376 0.52190 -0.45300
O 	O 	0.57790 0.12073 0.72060 -0.36700
