data_crystal

_cell_length_a 14.73670
_cell_length_b 9.57630
_cell_length_c 9.89200
_cell_angle_alpha 90.00000
_cell_angle_beta  101.47400
_cell_angle_gamma 90.00000

_symmetry_space_group_name_	'P 1'
_symmetry_space_group_name_H-M	'P 1'

loop_
_symmetry_equiv_pos_as_xyz
  x,y,z

loop_
_atom_site_label
_atom_site_type_symbol
_atom_site_fract_x
_atom_site_fract_y
_atom_site_fract_z
_atom_site_charge
Zn	Zn	0.08728 0.07361 0.63678 1.18000
C 	C 	0.26780 0.09640 0.72740 0.32600
C 	C 	0.36330 0.07310 0.81900 -0.06000
C 	C 	0.37260 0.99140 0.93160 -0.04300
H 	H 	0.32040 0.95000 0.95380 0.05900
C 	C 	0.46120 0.96730 0.01750 0.02500
C 	C 	0.44070 0.14040 0.78490 -0.00100
H 	H 	0.43350 0.19910 0.70850 0.04600
C 	C 	0.00550 0.83260 0.76760 0.11800
H 	H 	0.04260 0.84940 0.85370 -0.05300
C 	C 	0.90770 0.74350 0.60860 0.10900
H 	H 	0.86240 0.68500 0.55950 -0.02800
N 	N 	0.00620 0.90980 0.65960 -0.27100
N 	N 	0.94130 0.85230 0.55450 -0.27600
N 	N 	0.94550 0.72620 0.74170 -0.29800
O 	O 	0.20610 0.00940 0.74440 -0.47200
O 	O 	0.25500 0.19420 0.64800 -0.33800
C 	C 	0.52620 0.11890 0.86450 -0.08200
H 	H 	0.57740 0.16190 0.84070 0.06100
Zn	Zn	0.91272 0.57361 0.86322 1.18000
C 	C 	0.73220 0.59640 0.77260 0.32600
C 	C 	0.63670 0.57310 0.68100 -0.05900
C 	C 	0.62740 0.49140 0.56840 -0.04500
H 	H 	0.67960 0.45000 0.54620 0.05900
C 	C 	0.53880 0.46730 0.48250 0.02600
C 	C 	0.55930 0.64040 0.71510 -0.00100
H 	H 	0.56650 0.69910 0.79150 0.04600
C 	C 	0.99450 0.33260 0.73240 0.11400
H 	H 	0.95740 0.34940 0.64630 -0.05300
C 	C 	0.09230 0.24350 0.89140 0.10900
H 	H 	0.13760 0.18500 0.94050 -0.02800
N 	N 	0.99380 0.40980 0.84040 -0.27400
N 	N 	0.05870 0.35230 0.94550 -0.27400
N 	N 	0.05450 0.22620 0.75830 -0.29600
O 	O 	0.79390 0.50940 0.75560 -0.47200
O 	O 	0.74500 0.69420 0.85200 -0.33900
C 	C 	0.47380 0.61890 0.63550 -0.08200
H 	H 	0.42260 0.66190 0.65930 0.06100
Zn	Zn	0.91272 0.92639 0.36322 1.18000
C 	C 	0.73220 0.90360 0.27260 0.32600
C 	C 	0.63670 0.92690 0.18100 -0.06000
C 	C 	0.62740 0.00860 0.06840 -0.04300
H 	H 	0.67960 0.05000 0.04620 0.05900
C 	C 	0.53880 0.03270 0.98250 0.02500
C 	C 	0.55930 0.85960 0.21510 -0.00100
H 	H 	0.56650 0.80090 0.29150 0.04600
C 	C 	0.99450 0.16740 0.23240 0.11800
H 	H 	0.95740 0.15060 0.14630 -0.05300
C 	C 	0.09230 0.25650 0.39140 0.10900
H 	H 	0.13760 0.31500 0.44050 -0.02800
N 	N 	0.99380 0.09020 0.34040 -0.27100
N 	N 	0.05870 0.14770 0.44550 -0.27600
N 	N 	0.05450 0.27380 0.25830 -0.29800
O 	O 	0.79390 0.99060 0.25560 -0.47200
O 	O 	0.74500 0.80580 0.35200 -0.33800
C 	C 	0.47380 0.88110 0.13550 -0.08200
H 	H 	0.42260 0.83810 0.15930 0.06100
Zn	Zn	0.08728 0.42639 0.13678 1.18000
C 	C 	0.26780 0.40360 0.22740 0.32600
C 	C 	0.36330 0.42690 0.31900 -0.05900
C 	C 	0.37260 0.50860 0.43160 -0.04500
H 	H 	0.32040 0.55000 0.45380 0.05900
C 	C 	0.46120 0.53270 0.51750 0.02600
C 	C 	0.44070 0.35960 0.28490 -0.00100
H 	H 	0.43350 0.30090 0.20850 0.04600
C 	C 	0.00550 0.66740 0.26760 0.11400
H 	H 	0.04260 0.65060 0.35370 -0.05300
C 	C 	0.90770 0.75650 0.10860 0.10900
H 	H 	0.86240 0.81500 0.05950 -0.02800
N 	N 	0.00620 0.59020 0.15960 -0.27400
N 	N 	0.94130 0.64770 0.05450 -0.27400
N 	N 	0.94550 0.77380 0.24170 -0.29600
O 	O 	0.20610 0.49060 0.24440 -0.47200
O 	O 	0.25500 0.30580 0.14800 -0.33900
C 	C 	0.52620 0.38110 0.36450 -0.08200
H 	H 	0.57740 0.33810 0.34070 0.06100
