data_crystal

_cell_length_a 13.98770
_cell_length_b 11.91980
_cell_length_c 23.04540
_cell_angle_alpha 90.00000
_cell_angle_beta  104.26900
_cell_angle_gamma 90.00000

_symmetry_space_group_name_	'P 1'
_symmetry_space_group_name_H-M	'P 1'

loop_
_symmetry_equiv_pos_as_xyz
  x,y,z

loop_
_atom_site_label
_atom_site_type_symbol
_atom_site_fract_x
_atom_site_fract_y
_atom_site_fract_z
_atom_site_charge
Ga	Ga	0.87215 0.54176 0.55326 2.09200
Ga	Ga	0.84060 0.67520 0.41129 2.08400
Ga	Ga	0.99755 0.13163 0.43825 2.09300
P 	P 	0.04793 0.65693 0.50613 0.52500
P 	P 	0.96089 0.55784 0.33069 0.67100
P 	P 	0.85088 0.92969 0.43814 0.66300
P 	P 	0.11594 0.22948 0.35888 0.67100
O 	O 	0.75900 0.00060 0.43280 -0.49700
O 	O 	0.06240 0.54120 0.37229 -0.61400
O 	O 	0.13770 0.60150 0.49149 -0.49100
O 	O 	0.13360 0.31940 0.40501 -0.68300
O 	O 	0.00140 0.58290 0.54509 -0.68600
O 	O 	0.80650 0.61790 0.47829 -0.77000
O 	O 	0.97640 0.69780 0.44918 -0.54500
O 	O 	0.20380 0.15130 0.36525 -0.51900
O 	O 	0.87290 0.56850 0.35954 -0.55100
O 	O 	0.93150 0.45380 0.28953 -0.57300
O 	O 	0.96440 0.66350 0.29274 -0.16800
O 	O 	0.83120 0.83010 0.39573 -0.57300
O 	O 	0.93300 0.99850 0.42189 -0.59800
O 	O 	0.88630 0.89110 0.50455 -0.64900
O 	O 	0.08810 0.76620 0.54319 -0.60900
O 	O 	0.02550 0.15840 0.36547 -0.67300
O 	O 	0.09260 0.27470 0.29491 -0.65000
Ga	Ga	0.37215 0.04176 0.55326 2.08600
Ga	Ga	0.34060 0.17520 0.41129 2.08400
Ga	Ga	0.49755 0.63163 0.43825 2.07300
P 	P 	0.54793 0.15693 0.50613 0.60100
P 	P 	0.46089 0.05784 0.33069 0.59800
P 	P 	0.35088 0.42969 0.43814 0.66500
P 	P 	0.61594 0.72948 0.35888 0.67000
O 	O 	0.25900 0.50060 0.43280 -0.50600
O 	O 	0.56240 0.04120 0.37229 -0.53200
O 	O 	0.63770 0.10150 0.49149 -0.48200
O 	O 	0.63360 0.81940 0.40501 -0.66300
O 	O 	0.50140 0.08290 0.54509 -0.63300
O 	O 	0.30650 0.11790 0.47829 -0.78300
O 	O 	0.47640 0.19780 0.44918 -0.62300
O 	O 	0.70380 0.65130 0.36525 -0.50900
O 	O 	0.37290 0.06850 0.35954 -0.55300
O 	O 	0.43150 0.95380 0.28953 -0.61200
O 	O 	0.46440 0.16350 0.29274 -0.20800
O 	O 	0.33120 0.33010 0.39573 -0.58200
O 	O 	0.43300 0.49850 0.42189 -0.64000
O 	O 	0.38630 0.39110 0.50455 -0.68000
O 	O 	0.58810 0.26620 0.54319 -0.58500
O 	O 	0.52550 0.65840 0.36547 -0.61500
O 	O 	0.59260 0.77470 0.29491 -0.61800
Ga	Ga	0.12785 0.54176 0.94674 2.07900
Ga	Ga	0.15940 0.67520 0.08871 2.08400
Ga	Ga	0.00245 0.13163 0.06175 2.05200
P 	P 	0.95207 0.65693 0.99387 0.66200
P 	P 	0.03911 0.55784 0.16931 0.52300
P 	P 	0.14912 0.92969 0.06186 0.66600
P 	P 	0.88406 0.22948 0.14112 0.66900
O 	O 	0.24100 0.00060 0.06720 -0.50400
O 	O 	0.93760 0.54120 0.12771 -0.45000
O 	O 	0.86230 0.60150 0.00851 -0.46900
O 	O 	0.86640 0.31940 0.09499 -0.63900
O 	O 	0.99860 0.58290 0.95491 -0.58000
O 	O 	0.19350 0.61790 0.02171 -0.78700
O 	O 	0.02360 0.69780 0.05082 -0.69500
O 	O 	0.79620 0.15130 0.13475 -0.50100
O 	O 	0.12710 0.56850 0.14046 -0.54700
O 	O 	0.06850 0.45380 0.21047 -0.63200
O 	O 	0.03560 0.66350 0.20726 -0.24600
O 	O 	0.16880 0.83010 0.10427 -0.59000
O 	O 	0.06700 0.99850 0.07811 -0.68200
O 	O 	0.11370 0.89110 0.99545 -0.71300
O 	O 	0.91190 0.76620 0.95681 -0.56700
O 	O 	0.97450 0.15840 0.13453 -0.55100
O 	O 	0.90740 0.27470 0.20509 -0.57900
Ga	Ga	0.62785 0.04176 0.94674 2.08400
Ga	Ga	0.65940 0.17520 0.08871 2.08500
Ga	Ga	0.50245 0.63163 0.06175 2.07300
P 	P 	0.45207 0.15693 0.99387 0.58200
P 	P 	0.53911 0.05784 0.16931 0.59900
P 	P 	0.64912 0.42969 0.06186 0.67200
P 	P 	0.38406 0.72948 0.14112 0.67000
O 	O 	0.74100 0.50060 0.06720 -0.49800
O 	O 	0.43760 0.04120 0.12771 -0.53300
O 	O 	0.36230 0.10150 0.00851 -0.47700
O 	O 	0.36640 0.81940 0.09499 -0.66300
O 	O 	0.49860 0.08290 0.95491 -0.63600
O 	O 	0.69350 0.11790 0.02171 -0.77100
O 	O 	0.52360 0.19780 0.05082 -0.61400
O 	O 	0.29620 0.65130 0.13475 -0.51200
O 	O 	0.62710 0.06850 0.14046 -0.54400
O 	O 	0.56850 0.95380 0.21047 -0.60700
O 	O 	0.53560 0.16350 0.20726 -0.20700
O 	O 	0.66880 0.33010 0.10427 -0.58100
O 	O 	0.56700 0.49850 0.07811 -0.63700
O 	O 	0.61370 0.39110 0.99545 -0.68900
O 	O 	0.41190 0.26620 0.95681 -0.59200
O 	O 	0.47450 0.65840 0.13453 -0.61300
O 	O 	0.40740 0.77470 0.20509 -0.62100
Ga	Ga	0.12785 0.45824 0.44674 2.07900
Ga	Ga	0.15940 0.32480 0.58871 2.08400
Ga	Ga	0.00245 0.86837 0.56175 2.05200
P 	P 	0.95207 0.34307 0.49387 0.67600
P 	P 	0.03911 0.44216 0.66931 0.52500
P 	P 	0.14912 0.07031 0.56186 0.66500
P 	P 	0.88406 0.77052 0.64112 0.66900
O 	O 	0.24100 0.99940 0.56720 -0.50700
O 	O 	0.93760 0.45880 0.62771 -0.45200
O 	O 	0.86230 0.39850 0.50851 -0.47900
O 	O 	0.86640 0.68060 0.59499 -0.64100
O 	O 	0.99860 0.41710 0.45491 -0.57700
O 	O 	0.19350 0.38210 0.52171 -0.79100
O 	O 	0.02360 0.30220 0.55082 -0.70100
O 	O 	0.79620 0.84870 0.63475 -0.50200
O 	O 	0.12710 0.43150 0.64046 -0.54800
O 	O 	0.06850 0.54620 0.71047 -0.63100
O 	O 	0.03560 0.33650 0.70726 -0.24500
O 	O 	0.16880 0.16990 0.60427 -0.59000
O 	O 	0.06700 0.00150 0.57811 -0.68100
O 	O 	0.11370 0.10890 0.49545 -0.71100
O 	O 	0.91190 0.23380 0.45681 -0.56600
O 	O 	0.97450 0.84160 0.63453 -0.55300
O 	O 	0.90740 0.72530 0.70509 -0.58000
Ga	Ga	0.62785 0.95824 0.44674 2.08600
Ga	Ga	0.65940 0.82480 0.58871 2.08400
Ga	Ga	0.50245 0.36837 0.56175 2.07300
P 	P 	0.45207 0.84307 0.49387 0.60100
P 	P 	0.53911 0.94216 0.66931 0.59800
P 	P 	0.64912 0.57031 0.56186 0.66500
P 	P 	0.38406 0.27052 0.64112 0.67100
O 	O 	0.74100 0.49940 0.56720 -0.49900
O 	O 	0.43760 0.95880 0.62771 -0.53400
O 	O 	0.36230 0.89850 0.50851 -0.48900
O 	O 	0.36640 0.18060 0.59499 -0.66300
O 	O 	0.49860 0.91710 0.45491 -0.63400
O 	O 	0.69350 0.88210 0.52171 -0.77900
O 	O 	0.52360 0.80220 0.55082 -0.62400
O 	O 	0.29620 0.34870 0.63475 -0.51300
O 	O 	0.62710 0.93150 0.64046 -0.54500
O 	O 	0.56850 0.04620 0.71047 -0.60600
O 	O 	0.53560 0.83650 0.70726 -0.20700
O 	O 	0.66880 0.66990 0.60427 -0.58000
O 	O 	0.56700 0.50150 0.57811 -0.63800
O 	O 	0.61370 0.60890 0.49545 -0.68000
O 	O 	0.41190 0.73380 0.45681 -0.59100
O 	O 	0.47450 0.34160 0.63453 -0.61300
O 	O 	0.40740 0.22530 0.70509 -0.62100
Ga	Ga	0.87215 0.45824 0.05326 2.09400
Ga	Ga	0.84060 0.32480 0.91129 2.08500
Ga	Ga	0.99755 0.86837 0.93825 2.09300
P 	P 	0.04793 0.34307 0.00613 0.53900
P 	P 	0.96089 0.44216 0.83069 0.66800
P 	P 	0.85088 0.07031 0.93814 0.65000
P 	P 	0.11594 0.77052 0.85888 0.67100
O 	O 	0.75900 0.99940 0.93280 -0.49600
O 	O 	0.06240 0.45880 0.87229 -0.61200
O 	O 	0.13770 0.39850 0.99149 -0.49900
O 	O 	0.13360 0.68060 0.90501 -0.68400
O 	O 	0.00140 0.41710 0.04509 -0.68600
O 	O 	0.80650 0.38210 0.97829 -0.77800
O 	O 	0.97640 0.30220 0.94918 -0.55500
O 	O 	0.20380 0.84870 0.86525 -0.51900
O 	O 	0.87290 0.43150 0.85954 -0.55100
O 	O 	0.93150 0.54620 0.78953 -0.57400
O 	O 	0.96440 0.33650 0.79274 -0.16900
O 	O 	0.83120 0.16990 0.89573 -0.57300
O 	O 	0.93300 0.00150 0.92189 -0.60100
O 	O 	0.88630 0.10890 0.00455 -0.63600
O 	O 	0.08810 0.23380 0.04319 -0.60800
O 	O 	0.02550 0.84160 0.86547 -0.67100
O 	O 	0.09260 0.72530 0.79491 -0.64900
Ga	Ga	0.37215 0.95824 0.05326 2.08500
Ga	Ga	0.34060 0.82480 0.91129 2.08400
Ga	Ga	0.49755 0.36837 0.93825 2.07200
P 	P 	0.54793 0.84307 0.00613 0.61000
P 	P 	0.46089 0.94216 0.83069 0.59900
P 	P 	0.35088 0.57031 0.93814 0.66000
P 	P 	0.61594 0.27052 0.85888 0.67100
O 	O 	0.25900 0.49940 0.93280 -0.50700
O 	O 	0.56240 0.95880 0.87229 -0.53100
O 	O 	0.63770 0.89850 0.99149 -0.48800
O 	O 	0.63360 0.18060 0.90501 -0.66600
O 	O 	0.50140 0.91710 0.04509 -0.63300
O 	O 	0.30650 0.88210 0.97829 -0.78600
O 	O 	0.47640 0.80220 0.94918 -0.62800
O 	O 	0.70380 0.34870 0.86525 -0.51000
O 	O 	0.37290 0.93150 0.85954 -0.55300
O 	O 	0.43150 0.04620 0.78953 -0.61300
O 	O 	0.46440 0.83650 0.79274 -0.20900
O 	O 	0.33120 0.66990 0.89573 -0.58200
O 	O 	0.43300 0.50150 0.92189 -0.64100
O 	O 	0.38630 0.60890 0.00455 -0.67400
O 	O 	0.58810 0.73380 0.04319 -0.58400
O 	O 	0.52550 0.34160 0.86547 -0.61500
O 	O 	0.59260 0.22530 0.79491 -0.61800
Ga	Ga	0.00000 0.36604 0.25000 2.06100
Ga	Ga	0.50000 0.86604 0.25000 2.08100
Ga	Ga	0.00000 0.63396 0.75000 2.06200
Ga	Ga	0.50000 0.13396 0.75000 2.08100
