data_crystal

_cell_length_a 6.44500
_cell_length_b 6.44500
_cell_length_c 6.44500
_cell_angle_alpha 90.00000
_cell_angle_beta  90.00000
_cell_angle_gamma 90.00000

_symmetry_space_group_name_	'P 1'
_symmetry_space_group_name_H-M	'P 1'

loop_
_symmetry_equiv_pos_as_xyz
  x,y,z

loop_
_atom_site_label
_atom_site_type_symbol
_atom_site_fract_x
_atom_site_fract_y
_atom_site_fract_z
_atom_site_charge
N 	N 	0.33670 0.92650 -0.00000 0.01800
N 	N 	0.66330 0.07350 -0.00000 -0.10900
N 	N 	0.66330 0.92650 -0.00000 0.01800
N 	N 	0.33670 0.07350 -0.00000 -0.11700
N 	N 	0.00000 0.33670 0.92650 0.01700
N 	N 	0.00000 0.66330 0.07350 -0.11000
N 	N 	0.00000 0.66330 0.92650 0.01700
N 	N 	0.00000 0.33670 0.07350 -0.11700
N 	N 	0.92650 0.00000 0.33670 0.01700
N 	N 	0.07350 0.00000 0.66330 -0.11000
N 	N 	0.92650 0.00000 0.66330 0.01700
N 	N 	0.07350 0.00000 0.33670 -0.11700
N 	N 	0.92650 0.33670 -0.00000 0.01700
N 	N 	0.07350 0.66330 -0.00000 -0.11000
N 	N 	0.92650 0.66330 -0.00000 0.01700
N 	N 	0.07350 0.33670 -0.00000 -0.11700
N 	N 	0.33670 0.00000 0.07350 -0.11700
N 	N 	0.66330 0.00000 0.92650 0.01700
N 	N 	0.66330 0.00000 0.07350 -0.11000
N 	N 	0.33670 0.00000 0.92650 0.01700
N 	N 	0.00000 0.92650 0.66330 0.01700
N 	N 	0.00000 0.07350 0.33670 -0.11700
N 	N 	0.00000 0.92650 0.33670 0.01700
N 	N 	0.00000 0.07350 0.66330 -0.11000
Mn	Mn	-0.00000 0.00000 -0.00000 1.22100
N 	N 	0.50000 0.00000 -0.00000 -0.02200
N 	N 	-0.00000 0.50000 -0.00000 -0.02200
N 	N 	0.00000 0.00000 0.50000 -0.02200
