data_crystal

_cell_length_a 6.45050
_cell_length_b 6.45050
_cell_length_c 6.45050
_cell_angle_alpha 90.00000
_cell_angle_beta  90.00000
_cell_angle_gamma 90.00000

_symmetry_space_group_name_	'P 1'
_symmetry_space_group_name_H-M	'P 1'

loop_
_symmetry_equiv_pos_as_xyz
  x,y,z

loop_
_atom_site_label
_atom_site_type_symbol
_atom_site_fract_x
_atom_site_fract_y
_atom_site_fract_z
_atom_site_charge
Mn	Mn	-0.00000 0.00000 -0.00000 1.22200
N 	N 	0.50000 0.00000 -0.00000 -0.02400
N 	N 	0.00000 0.50000 -0.00000 -0.02400
N 	N 	0.00000 0.00000 0.50000 -0.02400
N 	N 	0.33530 0.00000 0.07060 -0.11900
N 	N 	0.66470 0.00000 0.07060 -0.11300
N 	N 	0.66470 0.00000 0.92940 0.01800
N 	N 	0.33530 0.00000 0.92940 0.01900
N 	N 	0.07060 0.33530 -0.00000 -0.11800
N 	N 	0.07060 0.66470 -0.00000 -0.11200
N 	N 	0.92940 0.66470 -0.00000 0.01900
N 	N 	0.92940 0.33530 -0.00000 0.02000
N 	N 	-0.00000 0.07060 0.33530 -0.11800
N 	N 	-0.00000 0.07060 0.66470 -0.11200
N 	N 	0.00000 0.92940 0.66470 0.01900
N 	N 	-0.00000 0.92940 0.33530 0.02000
N 	N 	-0.00000 0.33530 0.92940 0.02000
N 	N 	0.00000 0.66470 0.92940 0.01900
N 	N 	-0.00000 0.66470 0.07060 -0.11200
N 	N 	-0.00000 0.33530 0.07060 -0.11800
N 	N 	0.33530 0.07060 -0.00000 -0.11800
N 	N 	0.66470 0.07060 -0.00000 -0.11200
N 	N 	0.66470 0.92940 -0.00000 0.01900
N 	N 	0.33530 0.92940 -0.00000 0.02000
N 	N 	0.07060 0.00000 0.66470 -0.11200
N 	N 	0.07060 -0.00000 0.33530 -0.11800
N 	N 	0.92940 -0.00000 0.33530 0.02000
N 	N 	0.92940 0.00000 0.66470 0.01900
