data_crystal

_cell_length_a 9.50700
_cell_length_b 9.50700
_cell_length_c 17.44300
_cell_angle_alpha 90.00000
_cell_angle_beta  90.00000
_cell_angle_gamma 120.00000

_symmetry_space_group_name_	'P 1'
_symmetry_space_group_name_H-M	'P 1'

loop_
_symmetry_equiv_pos_as_xyz
  x,y,z

loop_
_atom_site_label
_atom_site_type_symbol
_atom_site_fract_x
_atom_site_fract_y
_atom_site_fract_z
_atom_site_charge
C 	C 	0.35010 0.18500 0.10460 0.40200
C 	C 	0.40090 0.09410 0.05140 -0.21200
O 	O 	0.45000 0.27050 0.15490 -0.45200
O 	O 	0.21460 0.17280 0.09530 -0.43400
H 	H 	0.43070 0.02790 0.08100 0.05700
H 	H 	0.49470 0.16970 0.02270 0.07600
C 	C 	0.81500 0.16510 0.10460 0.39500
C 	C 	0.90590 0.30680 0.05140 -0.09900
O 	O 	0.72950 0.17950 0.15490 -0.44400
O 	O 	0.82720 0.04180 0.09530 -0.38900
H 	H 	0.97210 0.40280 0.08100 0.10200
H 	H 	0.83030 0.32500 0.02270 0.06900
C 	C 	0.83490 0.64990 0.10460 0.42100
C 	C 	0.69320 0.59910 0.05140 -0.26100
O 	O 	0.82050 0.55000 0.15490 -0.41600
O 	O 	0.95820 0.78540 0.09530 -0.28700
H 	H 	0.59720 0.56930 0.08100 0.11200
H 	H 	0.67500 0.50530 0.02270 0.10800
C 	C 	0.35010 0.18500 0.39540 0.41000
C 	C 	0.40090 0.09410 0.44860 -0.23600
O 	O 	0.45000 0.27050 0.34510 -0.45500
O 	O 	0.21460 0.17280 0.40470 -0.43600
H 	H 	0.43070 0.02790 0.41900 0.06900
H 	H 	0.49470 0.16970 0.47730 0.09200
C 	C 	0.81500 0.16510 0.39540 0.40500
C 	C 	0.90590 0.30680 0.44860 -0.12400
O 	O 	0.72950 0.17950 0.34510 -0.44600
O 	O 	0.82720 0.04180 0.40470 -0.39100
H 	H 	0.97210 0.40280 0.41900 0.11500
H 	H 	0.83030 0.32500 0.47730 0.08500
C 	C 	0.83490 0.64990 0.39540 0.43000
C 	C 	0.69320 0.59910 0.44860 -0.28300
O 	O 	0.82050 0.55000 0.34510 -0.41800
O 	O 	0.95820 0.78540 0.40470 -0.28800
H 	H 	0.59720 0.56930 0.41900 0.12400
H 	H 	0.67500 0.50530 0.47730 0.12400
C 	C 	0.18500 0.35010 0.89540 0.39300
C 	C 	0.09410 0.40090 0.94860 -0.16500
O 	O 	0.27050 0.45000 0.84510 -0.44600
O 	O 	0.17280 0.21460 0.90470 -0.40800
H 	H 	0.02790 0.43070 0.91900 0.05600
H 	H 	0.16970 0.49470 0.97730 0.08300
C 	C 	0.16510 0.81500 0.89540 0.39500
C 	C 	0.30680 0.90590 0.94860 -0.08200
O 	O 	0.17950 0.72950 0.84510 -0.44200
O 	O 	0.04180 0.82720 0.90470 -0.37600
H 	H 	0.40280 0.97210 0.91900 0.10800
H 	H 	0.32500 0.83030 0.97730 0.08300
C 	C 	0.64990 0.83490 0.89540 0.41700
C 	C 	0.59910 0.69320 0.94860 -0.22700
O 	O 	0.55000 0.82050 0.84510 -0.41100
O 	O 	0.78540 0.95820 0.90470 -0.26700
H 	H 	0.56930 0.59720 0.91900 0.11700
H 	H 	0.50530 0.67500 0.97730 0.11900
C 	C 	0.18500 0.35010 0.60460 0.40800
C 	C 	0.09410 0.40090 0.55140 -0.22900
O 	O 	0.27050 0.45000 0.65490 -0.45200
O 	O 	0.17280 0.21460 0.59530 -0.43200
H 	H 	0.02790 0.43070 0.58100 0.06500
H 	H 	0.16970 0.49470 0.52270 0.08700
C 	C 	0.16510 0.81500 0.60460 0.40900
C 	C 	0.30680 0.90590 0.55140 -0.14100
O 	O 	0.17950 0.72950 0.65490 -0.44800
O 	O 	0.04180 0.82720 0.59530 -0.39900
H 	H 	0.40280 0.97210 0.58100 0.11700
H 	H 	0.32500 0.83030 0.52270 0.08700
C 	C 	0.64990 0.83490 0.60460 0.43000
C 	C 	0.59910 0.69320 0.55140 -0.28400
O 	O 	0.55000 0.82050 0.65490 -0.41700
O 	O 	0.78540 0.95820 0.59530 -0.28800
H 	H 	0.56930 0.59720 0.58100 0.12600
H 	H 	0.50530 0.67500 0.52270 0.12200
La	La	0.66667 0.33333 0.25000 1.65900
La	La	0.33333 0.66667 0.75000 1.66000
La	La	-0.00000 0.00000 -0.00000 1.46400
La	La	-0.00000 0.00000 0.50000 1.49800
O 	O 	0.27160 0.00000 -0.00000 -0.32400
O 	O 	-0.00000 0.27160 -0.00000 -0.33700
O 	O 	0.72840 0.72840 -0.00000 -0.15700
O 	O 	0.27160 0.00000 0.50000 -0.28400
O 	O 	0.00000 0.27160 0.50000 -0.29400
O 	O 	0.72840 0.72840 0.50000 -0.11800
