data_crystal

_cell_length_a 13.41900
_cell_length_b 17.12500
_cell_length_c 9.25200
_cell_angle_alpha 90.00000
_cell_angle_beta  112.79000
_cell_angle_gamma 90.00000

_symmetry_space_group_name_	'P 1'
_symmetry_space_group_name_H-M	'P 1'

loop_
_symmetry_equiv_pos_as_xyz
  x,y,z

loop_
_atom_site_label
_atom_site_type_symbol
_atom_site_fract_x
_atom_site_fract_y
_atom_site_fract_z
_atom_site_charge
V 	V 	0.03330 0.72930 0.54270 1.20500
P 	P 	0.07190 0.87400 0.32210 0.41200
P 	P 	0.37710 0.84420 0.69030 0.43600
O 	O 	0.17710 0.91800 0.39460 -0.50000
O 	O 	0.05470 0.85230 0.15470 -0.59800
O 	O 	0.06740 0.80460 0.41970 -0.76500
O 	O 	0.33090 0.92260 0.70970 -0.37100
O 	O 	0.06050 0.64630 0.41560 -0.69400
O 	O 	0.03120 0.68120 0.14980 -0.25300
O 	O 	0.08320 0.69350 0.15510 -0.36600
O 	O 	0.15340 0.78610 0.97460 0.67300
O 	O 	0.12130 0.75940 0.97420 -0.95900
V 	V 	0.53330 0.22930 0.54270 1.25700
P 	P 	0.57190 0.37400 0.32210 0.40300
P 	P 	0.87710 0.34420 0.69030 0.43700
O 	O 	0.67710 0.41800 0.39460 -0.56400
O 	O 	0.55470 0.35230 0.15470 -0.58900
O 	O 	0.56740 0.30460 0.41970 -0.74000
O 	O 	0.83090 0.42260 0.70970 -0.43900
O 	O 	0.56050 0.14630 0.41560 -0.68200
O 	O 	0.53120 0.18120 0.14980 -0.20600
O 	O 	0.58320 0.19350 0.15510 -0.39000
O 	O 	0.65340 0.28610 0.97460 0.62100
O 	O 	0.62130 0.25940 0.97420 -0.88100
V 	V 	0.96670 0.72930 0.45730 1.30000
P 	P 	0.92810 0.87400 0.67790 0.47800
P 	P 	0.62290 0.84420 0.30970 0.44200
O 	O 	0.82290 0.91800 0.60540 -0.44300
O 	O 	0.94530 0.85230 0.84530 -0.30200
O 	O 	0.93260 0.80460 0.58030 -0.70200
O 	O 	0.66910 0.92260 0.29030 -0.45000
O 	O 	0.93950 0.64630 0.58440 -0.60000
O 	O 	0.96880 0.68120 0.85020 -0.01800
O 	O 	0.91680 0.69350 0.84490 -0.26700
O 	O 	0.84660 0.78610 0.02540 0.40600
O 	O 	0.87870 0.75940 0.02580 -0.98000
V 	V 	0.46670 0.22930 0.45730 1.23900
P 	P 	0.42810 0.37400 0.67790 0.42100
P 	P 	0.12290 0.34420 0.30970 0.43700
O 	O 	0.32290 0.41800 0.60540 -0.53000
O 	O 	0.44530 0.35230 0.84530 -0.36800
O 	O 	0.43260 0.30460 0.58030 -0.74100
O 	O 	0.16910 0.42260 0.29030 -0.56000
O 	O 	0.43950 0.14630 0.58440 -0.66800
O 	O 	0.46880 0.18120 0.85020 -0.11300
O 	O 	0.41680 0.19350 0.84490 -0.23900
O 	O 	0.34660 0.28610 0.02540 0.40200
O 	O 	0.37870 0.25940 0.02580 -1.05900
V 	V 	0.96670 0.27070 0.45730 1.29700
P 	P 	0.92810 0.12600 0.67790 0.41700
P 	P 	0.62290 0.15580 0.30970 0.44100
O 	O 	0.82290 0.08200 0.60540 -0.56400
O 	O 	0.94530 0.14770 0.84530 -0.34600
O 	O 	0.93260 0.19540 0.58030 -0.71100
O 	O 	0.66910 0.07740 0.29030 -0.59600
O 	O 	0.93950 0.35370 0.58440 -0.60100
O 	O 	0.96880 0.31880 0.85020 -0.02000
O 	O 	0.91680 0.30650 0.84490 -0.27200
O 	O 	0.84660 0.21390 0.02540 0.30700
O 	O 	0.87870 0.24060 0.02580 -0.90500
V 	V 	0.46670 0.77070 0.45730 1.24300
P 	P 	0.42810 0.62600 0.67790 0.42200
P 	P 	0.12290 0.65580 0.30970 0.43800
O 	O 	0.32290 0.58200 0.60540 -0.52900
O 	O 	0.44530 0.64770 0.84530 -0.36700
O 	O 	0.43260 0.69540 0.58030 -0.74000
O 	O 	0.16910 0.57740 0.29030 -0.55900
O 	O 	0.43950 0.85370 0.58440 -0.61000
O 	O 	0.46880 0.81880 0.85020 -0.06900
O 	O 	0.41680 0.80650 0.84490 -0.25200
O 	O 	0.34660 0.71390 0.02540 0.38600
O 	O 	0.37870 0.74060 0.02580 -1.03100
V 	V 	0.03330 0.27070 0.54270 1.20100
P 	P 	0.07190 0.12600 0.32210 0.35000
P 	P 	0.37710 0.15580 0.69030 0.43400
O 	O 	0.17710 0.08200 0.39460 -0.62100
O 	O 	0.05470 0.14770 0.15470 -0.64200
O 	O 	0.06740 0.19540 0.41970 -0.77400
O 	O 	0.33090 0.07740 0.70970 -0.51700
O 	O 	0.06050 0.35370 0.41560 -0.69500
O 	O 	0.03120 0.31880 0.14980 -0.25500
O 	O 	0.08320 0.30650 0.15510 -0.37200
O 	O 	0.15340 0.21390 0.97460 0.57400
O 	O 	0.12130 0.24060 0.97420 -0.88400
V 	V 	0.53330 0.77070 0.54270 1.26100
P 	P 	0.57190 0.62600 0.32210 0.40300
P 	P 	0.87710 0.65580 0.69030 0.43800
O 	O 	0.67710 0.58200 0.39460 -0.56300
O 	O 	0.55470 0.64770 0.15470 -0.58800
O 	O 	0.56740 0.69540 0.41970 -0.73900
O 	O 	0.83090 0.57740 0.70970 -0.43800
O 	O 	0.56050 0.85370 0.41560 -0.62300
O 	O 	0.53120 0.81880 0.14980 -0.16200
O 	O 	0.58320 0.80650 0.15510 -0.40300
O 	O 	0.65340 0.71390 0.97460 0.60500
O 	O 	0.62130 0.74060 0.97420 -0.85400
V 	V 	0.23000 0.00000 0.56120 1.61100
V 	V 	0.73000 0.50000 0.56120 1.69300
V 	V 	0.77000 0.00000 0.43880 1.61700
V 	V 	0.27000 0.50000 0.43880 1.68100
V 	V 	-0.00000 0.76890 -0.00000 1.72100
V 	V 	0.50000 0.26890 -0.00000 1.76000
V 	V 	-0.00000 0.23110 -0.00000 1.71200
V 	V 	0.50000 0.73110 -0.00000 1.75800
