data_crystal

_cell_length_a 9.04800
_cell_length_b 9.46500
_cell_length_c 15.58400
_cell_angle_alpha 90.00000
_cell_angle_beta  90.79000
_cell_angle_gamma 90.00000

_symmetry_space_group_name_	'P 1'
_symmetry_space_group_name_H-M	'P 1'

loop_
_symmetry_equiv_pos_as_xyz
  x,y,z

loop_
_atom_site_label
_atom_site_type_symbol
_atom_site_fract_x
_atom_site_fract_y
_atom_site_fract_z
_atom_site_charge
U 	U 	0.24313 0.50567 0.67534 0.00700
O 	O 	0.18200 0.61820 0.80490 -0.17500
O 	O 	0.14410 0.80470 0.88610 -0.18000
O 	O 	0.37610 0.39380 0.78630 -0.17200
O 	O 	0.39850 0.20310 0.86640 -0.18700
C 	C 	0.13290 0.67380 0.87180 0.27500
C 	C 	0.06530 0.58610 0.93640 -0.03500
C 	C 	0.04990 0.43810 0.92460 -0.02300
H 	H 	0.08280 0.39670 0.87420 0.07900
C 	C 	0.98700 0.35520 0.98660 -0.02200
H 	H 	0.97880 0.25830 0.97760 0.07600
C 	C 	0.51140 0.43890 0.08110 -0.02200
H 	H 	0.51880 0.39820 0.13530 0.08100
C 	C 	0.46720 0.35500 0.00970 -0.02200
H 	H 	0.44600 0.25960 0.01670 0.07700
C 	C 	0.45610 0.41740 0.92930 -0.03500
C 	C 	0.40480 0.33300 0.85670 0.27800
U 	U 	0.25687 0.00567 0.82466 0.00700
O 	O 	0.31800 0.11820 0.69510 -0.17500
O 	O 	0.35590 0.30470 0.61390 -0.18100
O 	O 	0.12390 0.89380 0.71370 -0.17200
O 	O 	0.10150 0.70310 0.63360 -0.18700
C 	C 	0.36710 0.17380 0.62820 0.27500
C 	C 	0.43470 0.08610 0.56360 -0.03600
C 	C 	0.45010 0.93810 0.57540 -0.02400
H 	H 	0.41720 0.89670 0.62580 0.07900
C 	C 	0.51300 0.85520 0.51340 -0.02000
H 	H 	0.52120 0.75830 0.52240 0.07600
C 	C 	0.98860 0.93890 0.41890 -0.02200
H 	H 	0.98120 0.89820 0.36470 0.08100
C 	C 	0.03280 0.85500 0.49030 -0.02100
H 	H 	0.05400 0.75960 0.48330 0.07700
C 	C 	0.04390 0.91740 0.57070 -0.03500
C 	C 	0.09520 0.83300 0.64330 0.27800
U 	U 	0.75687 0.49433 0.32466 0.00700
O 	O 	0.81800 0.38180 0.19510 -0.17500
O 	O 	0.85590 0.19530 0.11390 -0.18000
O 	O 	0.62390 0.60620 0.21370 -0.17200
O 	O 	0.60150 0.79690 0.13360 -0.18700
C 	C 	0.86710 0.32620 0.12820 0.27500
C 	C 	0.93470 0.41390 0.06360 -0.03500
C 	C 	0.95010 0.56190 0.07540 -0.02300
H 	H 	0.91720 0.60330 0.12580 0.07900
C 	C 	0.01300 0.64480 0.01340 -0.02200
H 	H 	0.02120 0.74170 0.02240 0.07600
C 	C 	0.48860 0.56110 0.91890 -0.02200
H 	H 	0.48120 0.60180 0.86470 0.08100
C 	C 	0.53280 0.64500 0.99030 -0.02200
H 	H 	0.55400 0.74040 0.98330 0.07700
C 	C 	0.54390 0.58260 0.07070 -0.03500
C 	C 	0.59520 0.66700 0.14330 0.27800
U 	U 	0.74313 0.99433 0.17534 0.00700
O 	O 	0.68200 0.88180 0.30490 -0.17500
O 	O 	0.64410 0.69530 0.38610 -0.18100
O 	O 	0.87610 0.10620 0.28630 -0.17200
O 	O 	0.89850 0.29690 0.36640 -0.18700
C 	C 	0.63290 0.82620 0.37180 0.27500
C 	C 	0.56530 0.91390 0.43640 -0.03600
C 	C 	0.54990 0.06190 0.42460 -0.02400
H 	H 	0.58280 0.10330 0.37420 0.07900
C 	C 	0.48700 0.14480 0.48660 -0.02000
H 	H 	0.47880 0.24170 0.47760 0.07600
C 	C 	0.01140 0.06110 0.58110 -0.02200
H 	H 	0.01880 0.10180 0.63530 0.08100
C 	C 	0.96720 0.14500 0.50970 -0.02100
H 	H 	0.94600 0.24040 0.51670 0.07700
C 	C 	0.95610 0.08260 0.42930 -0.03500
C 	C 	0.90480 0.16700 0.35670 0.27800
